@<TRIPOS>MOLECULE
native
    40    42     1     0     0
SMALL
NO_CHARGES
****
Generated from the CSD

@<TRIPOS>ATOM
     1 C1      -0.0900  19.5970   4.3670   C.3       1 RES1   0.0000
     2 C2       1.3810  19.9220   4.6750   C.3       1 RES1   0.0000
     3 C3       1.8700  19.2880   5.9980   C.3       1 RES1   0.0000
     4 C4       2.3190  19.4000   3.5590   C.3       1 RES1   0.0000
     5 N5       3.6960  19.9570   3.6110   N.am      1 RES1   0.0000
     6 C6       4.7730  19.2870   4.1060   C.2       1 RES1   0.0000
     7 O7       4.7100  18.1280   4.5340   O.2       1 RES1   0.0000
     8 C8       6.1180  20.0380   4.0130   C.3       1 RES1   0.0000
     9 C9       6.8410  19.4250   2.7860   C.3       1 RES1   0.0000
    10 C10      7.8250  20.4490   2.1930   C.2       1 RES1   0.0000
    11 C11      7.7930  21.7770   2.4330   C.2       1 RES1   0.0000
    12 C12      8.7560  22.6570   1.7970   C.2       1 RES1   0.0000
    13 C13      9.6950  22.1480   0.9520   C.2       1 RES1   0.0000
    14 C14      9.7530  20.7400   0.6730   C.2       1 RES1   0.0000
    15 C15     10.7630  20.2350  -0.2150   C.2       1 RES1   0.0000
    16 C16     10.8110  18.8940  -0.4930   C.2       1 RES1   0.0000
    17 C17      9.8750  17.9990   0.0950   C.2       1 RES1   0.0000
    18 C18      8.9000  18.4890   0.9680   C.2       1 RES1   0.0000
    19 C19      8.8370  19.8570   1.2590   C.2       1 RES1   0.0000
    20 C20      6.9770  19.9000   5.3110   C.3       1 RES1   0.0000
    21 S21      6.4880  21.1190   6.5200   S.o2      1 RES1   0.0000
    22 O22      6.9640  22.3740   6.0080   O.2       1 RES1   0.0000
    23 O23      5.1110  21.0070   6.8760   O.2       1 RES1   0.0000
    24 C24      7.4420  20.7170   8.0430   C.3       1 RES1   0.0000
    25 C25      7.1320  21.8660   9.0330   C.3       1 RES1   0.0000
    26 C26      8.9560  20.6600   7.7230   C.3       1 RES1   0.0000
    27 C27      6.9310  19.4080   8.6970   C.3       1 RES1   0.0000
    28 C28      1.8300  19.7870   2.1110   C.2       1 RES1   0.0000
    29 O29      1.1100  20.7340   1.8380   O.2       1 RES1   0.0000
    30 N30      2.2440  18.8780   1.1540   N.am      1 RES1   0.0000
    31 C31      1.9270  19.0160  -0.2780   C.3       1 RES1   0.0000
    32 C32      1.1910  17.7140  -0.7010   C.3       1 RES1   0.0000
    33 O33      2.1590  16.6320  -0.4430   O.3       1 RES1   0.0000
    34 C34      3.2600  19.1980  -1.0430   C.3       1 RES1   0.0000
    35 C35      3.9850  20.5270  -0.9940   C.2       1 RES1   0.0000
    36 C36      5.0320  20.8010  -0.1070   C.2       1 RES1   0.0000
    37 C37      5.7340  22.0130  -0.1100   C.2       1 RES1   0.0000
    38 C38      5.3690  22.9990  -1.0340   C.2       1 RES1   0.0000
    39 C39      4.3470  22.7430  -1.9450   C.2       1 RES1   0.0000
    40 C40      3.6590  21.5260  -1.9270   C.2       1 RES1   0.0000
@<TRIPOS>BOND
     1     1     2    1
     2     2     3    1
     3     2     4    1
     4     4     5    1
     5     5     6   am
     6     6     7    2
     7     6     8    1
     8     8     9    1
     9     9    10    1
    10    10    11    2
    11    11    12    1
    12    12    13    2
    13    13    14    1
    14    14    15    2
    15    15    16    1
    16    16    17    2
    17    17    18    1
    18    18    19    2
    19     8    20    1
    20    20    21    1
    21    21    22    2
    22    21    23    2
    23    21    24    1
    24    24    25    1
    25    24    26    1
    26    24    27    1
    27     4    28    1
    28    28    29    2
    29    28    30   am
    30    30    31    1
    31    31    32    1
    32    32    33    1
    33    31    34    1
    34    34    35    1
    35    35    36    2
    36    36    37    1
    37    37    38    2
    38    38    39    1
    39    39    40    2
    40    19    10    1
    41    40    35    1
    42    19    14    1
@<TRIPOS>SUBSTRUCTURE
     1 RES1        1 GROUP             0 ****  ****    0  
@<TRIPOS>MOLECULE
ligand_0
    40    42     1     0     0
SMALL
NO_CHARGES
****
Generated from the CSD

@<TRIPOS>ATOM
     1 C1       2.6227  13.6846   1.8279   C.3       1 RES1   0.0000
     2 C2       3.1517  15.0483   1.3537   C.3       1 RES1   0.0000
     3 C3       2.1003  16.1752   1.4797   C.3       1 RES1   0.0000
     4 C4       4.3820  15.4942   2.1816   C.3       1 RES1   0.0000
     5 N5       5.0061  16.7588   1.7119   N.am      1 RES1   0.0000
     6 C6       4.9560  17.9353   2.3953   C.2       1 RES1   0.0000
     7 O7       4.3852  18.0600   3.4858   O.2       1 RES1   0.0000
     8 C8       5.7470  19.1003   1.7637   C.3       1 RES1   0.0000
     9 C9       6.8945  19.4002   2.7623   C.3       1 RES1   0.0000
    10 C10      7.8515  20.4449   2.1614   C.2       1 RES1   0.0000
    11 C11      7.8332  21.7633   2.4507   C.2       1 RES1   0.0000
    12 C12      8.7670  22.6657   1.8026   C.2       1 RES1   0.0000
    13 C13      9.6644  22.1876   0.8966   C.2       1 RES1   0.0000
    14 C14      9.7067  20.7907   0.5642   C.2       1 RES1   0.0000
    15 C15     10.6730  20.3181  -0.3879   C.2       1 RES1   0.0000
    16 C16     10.7055  18.9881  -0.7163   C.2       1 RES1   0.0000
    17 C17      9.7964  18.0724  -0.1179   C.2       1 RES1   0.0000
    18 C18      8.8643  18.5305   0.8170   C.2       1 RES1   0.0000
    19 C19      8.8175  19.8871   1.1601   C.2       1 RES1   0.0000
    20 C20      4.8625  20.3637   1.5124   C.3       1 RES1   0.0000
    21 S21      3.7770  20.1032   0.1193   S.o2      1 RES1   0.0000
    22 O22      4.6435  19.9835  -1.0203   O.2       1 RES1   0.0000
    23 O23      2.8235  19.0699   0.3613   O.2       1 RES1   0.0000
    24 C24      2.8083  21.6599  -0.0521   C.3       1 RES1   0.0000
    25 C25      2.0516  21.8187   1.2890   C.3       1 RES1   0.0000
    26 C26      1.8146  21.5409  -1.2337   C.3       1 RES1   0.0000
    27 C27      3.7413  22.8897  -0.1918   C.3       1 RES1   0.0000
    28 C28      5.5728  14.4627   2.1215   C.2       1 RES1   0.0000
    29 O29      5.9292  13.7408   3.0389   O.2       1 RES1   0.0000
    30 N30      6.2490  14.5074   0.9156   N.am      1 RES1   0.0000
    31 C31      7.4884  13.7535   0.6590   C.3       1 RES1   0.0000
    32 C32      8.6615  14.7656   0.7824   C.3       1 RES1   0.0000
    33 O33      9.8806  13.9528   0.6166   O.3       1 RES1   0.0000
    34 C34      7.3924  13.1545  -0.7648   C.3       1 RES1   0.0000
    35 C35      6.3260  12.1270  -1.0830   C.2       1 RES1   0.0000
    36 C36      6.5155  10.7487  -0.9340   C.2       1 RES1   0.0000
    37 C37      5.5033   9.8112  -1.1754   C.2       1 RES1   0.0000
    38 C38      4.2482  10.2693  -1.5926   C.2       1 RES1   0.0000
    39 C39      4.0249  11.6378  -1.7248   C.2       1 RES1   0.0000
    40 C40      5.0480  12.5581  -1.4776   C.2       1 RES1   0.0000
@<TRIPOS>BOND
     1     1     2    1
     2     2     3    1
     3     2     4    1
     4     4     5    1
     5     5     6   am
     6     6     7    2
     7     6     8    1
     8     8     9    1
     9     9    10    1
    10    10    11    2
    11    11    12    1
    12    12    13    2
    13    13    14    1
    14    14    15    2
    15    15    16    1
    16    16    17    2
    17    17    18    1
    18    18    19    2
    19     8    20    1
    20    20    21    1
    21    21    22    2
    22    21    23    2
    23    21    24    1
    24    24    25    1
    25    24    26    1
    26    24    27    1
    27     4    28    1
    28    28    29    2
    29    28    30   am
    30    30    31    1
    31    31    32    1
    32    32    33    1
    33    31    34    1
    34    34    35    1
    35    35    36    2
    36    36    37    1
    37    37    38    2
    38    38    39    1
    39    39    40    2
    40    19    10    1
    41    40    35    1
    42    19    14    1
@<TRIPOS>SUBSTRUCTURE
     1 RES1        1 GROUP             0 ****  ****    0  
@<TRIPOS>MOLECULE
ligand_1
    40    42     1     0     0
SMALL
NO_CHARGES
****
Generated from the CSD

@<TRIPOS>ATOM
     1 C1       3.7979  13.0593   1.7071   C.3       1 RES1   0.0000
     2 C2       4.3657  14.3637   1.1235   C.3       1 RES1   0.0000
     3 C3       3.5441  14.8906  -0.0759   C.3       1 RES1   0.0000
     4 C4       4.3820  15.4942   2.1816   C.3       1 RES1   0.0000
     5 N5       5.0061  16.7588   1.7119   N.am      1 RES1   0.0000
     6 C6       4.9232  17.9444   2.3762   C.2       1 RES1   0.0000
     7 O7       4.3137  18.0798   3.4442   O.2       1 RES1   0.0000
     8 C8       5.7269  19.1067   1.7558   C.3       1 RES1   0.0000
     9 C9       6.8410  19.4249   2.7861   C.3       1 RES1   0.0000
    10 C10      7.8251  20.4489   2.1931   C.2       1 RES1   0.0000
    11 C11      7.8065  21.7740   2.4502   C.2       1 RES1   0.0000
    12 C12      8.7679  22.6547   1.8127   C.2       1 RES1   0.0000
    13 C13      9.6917  22.1494   0.9490   C.2       1 RES1   0.0000
    14 C14      9.7352  20.7446   0.6515   C.2       1 RES1   0.0000
    15 C15     10.7295  20.2433  -0.2561   C.2       1 RES1   0.0000
    16 C16     10.7634  18.9057  -0.5516   C.2       1 RES1   0.0000
    17 C17      9.8283  18.0104   0.0374   C.2       1 RES1   0.0000
    18 C18      8.8687  18.4966   0.9293   C.2       1 RES1   0.0000
    19 C19      8.8201  19.8612   1.2384   C.2       1 RES1   0.0000
    20 C20      4.8436  20.3618   1.4623   C.3       1 RES1   0.0000
    21 S21      3.8037  20.0788   0.0392   S.o2      1 RES1   0.0000
    22 O22      4.7061  19.9513  -1.0713   O.2       1 RES1   0.0000
    23 O23      2.8489  19.0427   0.2632   O.2       1 RES1   0.0000
    24 C24      2.8322  21.6277  -0.1806   C.3       1 RES1   0.0000
    25 C25      2.0330  21.7973   1.1343   C.3       1 RES1   0.0000
    26 C26      1.8766  21.4892  -1.3912   C.3       1 RES1   0.0000
    27 C27      3.7621  22.8614  -0.3054   C.3       1 RES1   0.0000
    28 C28      5.2287  15.1299   3.4607   C.2       1 RES1   0.0000
    29 O29      4.7696  14.7720   4.5335   O.2       1 RES1   0.0000
    30 N30      6.5838  15.3340   3.2719   N.am      1 RES1   0.0000
    31 C31      7.5800  15.1686   4.3445   C.3       1 RES1   0.0000
    32 C32      7.9421  16.5956   4.8429   C.3       1 RES1   0.0000
    33 O33      8.8615  16.3783   5.9751   O.3       1 RES1   0.0000
    34 C34      8.8064  14.4403   3.7439   C.3       1 RES1   0.0000
    35 C35      8.6654  13.0252   3.2226   C.2       1 RES1   0.0000
    36 C36      8.8642  11.8891   4.0150   C.2       1 RES1   0.0000
    37 C37      8.6741  10.5860   3.5378   C.2       1 RES1   0.0000
    38 C38      8.2761  10.4087   2.2076   C.2       1 RES1   0.0000
    39 C39      8.0468  11.5230   1.4041   C.2       1 RES1   0.0000
    40 C40      8.2407  12.8160   1.8995   C.2       1 RES1   0.0000
@<TRIPOS>BOND
     1     1     2    1
     2     2     3    1
     3     2     4    1
     4     4     5    1
     5     5     6   am
     6     6     7    2
     7     6     8    1
     8     8     9    1
     9     9    10    1
    10    10    11    2
    11    11    12    1
    12    12    13    2
    13    13    14    1
    14    14    15    2
    15    15    16    1
    16    16    17    2
    17    17    18    1
    18    18    19    2
    19     8    20    1
    20    20    21    1
    21    21    22    2
    22    21    23    2
    23    21    24    1
    24    24    25    1
    25    24    26    1
    26    24    27    1
    27     4    28    1
    28    28    29    2
    29    28    30   am
    30    30    31    1
    31    31    32    1
    32    32    33    1
    33    31    34    1
    34    34    35    1
    35    35    36    2
    36    36    37    1
    37    37    38    2
    38    38    39    1
    39    39    40    2
    40    19    10    1
    41    40    35    1
    42    19    14    1
@<TRIPOS>SUBSTRUCTURE
     1 RES1        1 GROUP             0 ****  ****    0  
@<TRIPOS>MOLECULE
ligand_2
    40    42     1     0     0
SMALL
NO_CHARGES
****
Generated from the CSD

@<TRIPOS>ATOM
     1 C1       2.6192  13.6873   1.8317   C.3       1 RES1   0.0000
     2 C2       3.1517  15.0483   1.3537   C.3       1 RES1   0.0000
     3 C3       2.1026  16.1779   1.4748   C.3       1 RES1   0.0000
     4 C4       4.3820  15.4942   2.1816   C.3       1 RES1   0.0000
     5 N5       5.0061  16.7588   1.7119   N.am      1 RES1   0.0000
     6 C6       4.9232  17.9444   2.3762   C.2       1 RES1   0.0000
     7 O7       4.3137  18.0799   3.4441   O.2       1 RES1   0.0000
     8 C8       5.7269  19.1067   1.7558   C.3       1 RES1   0.0000
     9 C9       6.8409  19.4250   2.7861   C.3       1 RES1   0.0000
    10 C10      7.8250  20.4490   2.1931   C.2       1 RES1   0.0000
    11 C11      7.8062  21.7741   2.4500   C.2       1 RES1   0.0000
    12 C12      8.7675  22.6548   1.8125   C.2       1 RES1   0.0000
    13 C13      9.6917  22.1495   0.9491   C.2       1 RES1   0.0000
    14 C14      9.7353  20.7447   0.6519   C.2       1 RES1   0.0000
    15 C15     10.7299  20.2434  -0.2554   C.2       1 RES1   0.0000
    16 C16     10.7641  18.9056  -0.5506   C.2       1 RES1   0.0000
    17 C17      9.8290  18.0103   0.0383   C.2       1 RES1   0.0000
    18 C18      8.8691  18.4966   0.9299   C.2       1 RES1   0.0000
    19 C19      8.8203  19.8613   1.2387   C.2       1 RES1   0.0000
    20 C20      4.8435  20.3618   1.4622   C.3       1 RES1   0.0000
    21 S21      3.8037  20.0787   0.0390   S.o2      1 RES1   0.0000
    22 O22      4.7062  19.9513  -1.0714   O.2       1 RES1   0.0000
    23 O23      2.8490  19.0426   0.2631   O.2       1 RES1   0.0000
    24 C24      2.8321  21.6276  -0.1808   C.3       1 RES1   0.0000
    25 C25      2.0328  21.7971   1.1340   C.3       1 RES1   0.0000
    26 C26      1.8766  21.4890  -1.3915   C.3       1 RES1   0.0000
    27 C27      3.7620  22.8613  -0.3056   C.3       1 RES1   0.0000
    28 C28      5.5728  14.4627   2.1215   C.2       1 RES1   0.0000
    29 O29      6.2641  14.2380   1.1410   O.2       1 RES1   0.0000
    30 N30      5.7179  13.7554   3.3014   N.am      1 RES1   0.0000
    31 C31      6.7086  12.6796   3.4786   C.3       1 RES1   0.0000
    32 C32      5.9379  11.3359   3.3510   C.3       1 RES1   0.0000
    33 O33      6.9781  10.2942   3.4357   O.3       1 RES1   0.0000
    34 C34      7.3447  12.8473   4.8795   C.3       1 RES1   0.0000
    35 C35      8.1605  14.0835   5.1969   C.2       1 RES1   0.0000
    36 C36      9.5408  14.1708   4.9846   C.2       1 RES1   0.0000
    37 C37     10.2753  15.3386   5.2269   C.2       1 RES1   0.0000
    38 C38      9.6034  16.4671   5.7109   C.2       1 RES1   0.0000
    39 C39      8.2254  16.4153   5.9072   C.2       1 RES1   0.0000
    40 C40      7.5096  15.2404   5.6581   C.2       1 RES1   0.0000
@<TRIPOS>BOND
     1     1     2    1
     2     2     3    1
     3     2     4    1
     4     4     5    1
     5     5     6   am
     6     6     7    2
     7     6     8    1
     8     8     9    1
     9     9    10    1
    10    10    11    2
    11    11    12    1
    12    12    13    2
    13    13    14    1
    14    14    15    2
    15    15    16    1
    16    16    17    2
    17    17    18    1
    18    18    19    2
    19     8    20    1
    20    20    21    1
    21    21    22    2
    22    21    23    2
    23    21    24    1
    24    24    25    1
    25    24    26    1
    26    24    27    1
    27     4    28    1
    28    28    29    2
    29    28    30   am
    30    30    31    1
    31    31    32    1
    32    32    33    1
    33    31    34    1
    34    34    35    1
    35    35    36    2
    36    36    37    1
    37    37    38    2
    38    38    39    1
    39    39    40    2
    40    19    10    1
    41    40    35    1
    42    19    14    1
@<TRIPOS>SUBSTRUCTURE
     1 RES1        1 GROUP             0 ****  ****    0  
@<TRIPOS>MOLECULE
ligand_3
    40    42     1     0     0
SMALL
NO_CHARGES
****
Generated from the CSD

@<TRIPOS>ATOM
     1 C1       3.7979  13.0593   1.7071   C.3       1 RES1   0.0000
     2 C2       4.3657  14.3637   1.1235   C.3       1 RES1   0.0000
     3 C3       3.5441  14.8906  -0.0759   C.3       1 RES1   0.0000
     4 C4       4.3820  15.4942   2.1816   C.3       1 RES1   0.0000
     5 N5       5.0061  16.7588   1.7119   N.am      1 RES1   0.0000
     6 C6       4.9232  17.9444   2.3762   C.2       1 RES1   0.0000
     7 O7       4.3138  18.0798   3.4442   O.2       1 RES1   0.0000
     8 C8       5.7269  19.1067   1.7558   C.3       1 RES1   0.0000
     9 C9       6.8410  19.4250   2.7860   C.3       1 RES1   0.0000
    10 C10      7.8250  20.4490   2.1930   C.2       1 RES1   0.0000
    11 C11      7.8065  21.7740   2.4503   C.2       1 RES1   0.0000
    12 C12      8.7678  22.6547   1.8127   C.2       1 RES1   0.0000
    13 C13      9.6916  22.1495   0.9489   C.2       1 RES1   0.0000
    14 C14      9.7349  20.7448   0.6513   C.2       1 RES1   0.0000
    15 C15     10.7291  20.2435  -0.2565   C.2       1 RES1   0.0000
    16 C16     10.7630  18.9059  -0.5521   C.2       1 RES1   0.0000
    17 C17      9.8279  18.0106   0.0369   C.2       1 RES1   0.0000
    18 C18      8.8684  18.4967   0.9290   C.2       1 RES1   0.0000
    19 C19      8.8199  19.8613   1.2381   C.2       1 RES1   0.0000
    20 C20      4.8435  20.3618   1.4623   C.3       1 RES1   0.0000
    21 S21      3.8036  20.0788   0.0392   S.o2      1 RES1   0.0000
    22 O22      4.7060  19.9513  -1.0713   O.2       1 RES1   0.0000
    23 O23      2.8488  19.0426   0.2633   O.2       1 RES1   0.0000
    24 C24      2.8320  21.6277  -0.1806   C.3       1 RES1   0.0000
    25 C25      2.0328  21.7972   1.1343   C.3       1 RES1   0.0000
    26 C26      1.8765  21.4891  -1.3912   C.3       1 RES1   0.0000
    27 C27      3.7619  22.8613  -0.3054   C.3       1 RES1   0.0000
    28 C28      5.2287  15.1299   3.4607   C.2       1 RES1   0.0000
    29 O29      6.4441  15.0242   3.4969   O.2       1 RES1   0.0000
    30 N30      4.4336  14.8563   4.5591   N.am      1 RES1   0.0000
    31 C31      4.9762  14.4178   5.8566   C.3       1 RES1   0.0000
    32 C32      4.7532  12.8818   5.9388   C.3       1 RES1   0.0000
    33 O33      5.3962  12.4738   7.2015   O.3       1 RES1   0.0000
    34 C34      4.2093  15.1711   6.9699   C.3       1 RES1   0.0000
    35 C35      4.3163  16.6783   7.0754   C.2       1 RES1   0.0000
    36 C36      5.2903  17.3296   7.8404   C.2       1 RES1   0.0000
    37 C37      5.4163  18.7239   7.8842   C.2       1 RES1   0.0000
    38 C38      4.5248  19.5033   7.1379   C.2       1 RES1   0.0000
    39 C39      3.5617  18.8800   6.3480   C.2       1 RES1   0.0000
    40 C40      3.4528  17.4865   6.3165   C.2       1 RES1   0.0000
@<TRIPOS>BOND
     1     1     2    1
     2     2     3    1
     3     2     4    1
     4     4     5    1
     5     5     6   am
     6     6     7    2
     7     6     8    1
     8     8     9    1
     9     9    10    1
    10    10    11    2
    11    11    12    1
    12    12    13    2
    13    13    14    1
    14    14    15    2
    15    15    16    1
    16    16    17    2
    17    17    18    1
    18    18    19    2
    19     8    20    1
    20    20    21    1
    21    21    22    2
    22    21    23    2
    23    21    24    1
    24    24    25    1
    25    24    26    1
    26    24    27    1
    27     4    28    1
    28    28    29    2
    29    28    30   am
    30    30    31    1
    31    31    32    1
    32    32    33    1
    33    31    34    1
    34    34    35    1
    35    35    36    2
    36    36    37    1
    37    37    38    2
    38    38    39    1
    39    39    40    2
    40    19    10    1
    41    40    35    1
    42    19    14    1
@<TRIPOS>SUBSTRUCTURE
     1 RES1        1 GROUP             0 ****  ****    0  
@<TRIPOS>MOLECULE
ligand_4
    40    42     1     0     0
SMALL
NO_CHARGES
****
Generated from the CSD

@<TRIPOS>ATOM
     1 C1      11.2959  21.8080   7.9357   C.3       1 RES1   0.0000
     2 C2      10.7811  20.6372   7.0820   C.3       1 RES1   0.0000
     3 C3      10.2862  19.4462   7.9353   C.3       1 RES1   0.0000
     4 C4       9.5910  21.0701   6.1910   C.3       1 RES1   0.0000
     5 N5       9.1033  20.0107   5.2696   N.am      1 RES1   0.0000
     6 C6       7.7883  19.7640   5.0168   C.2       1 RES1   0.0000
     7 O7       6.8681  20.4151   5.5266   O.2       1 RES1   0.0000
     8 C8       7.5120  18.6673   3.9668   C.3       1 RES1   0.0000
     9 C9       6.8851  19.4106   2.7591   C.3       1 RES1   0.0000
    10 C10      7.9092  20.3897   2.1584   C.2       1 RES1   0.0000
    11 C11      7.9075  21.7249   2.3572   C.2       1 RES1   0.0000
    12 C12      8.9078  22.5594   1.7174   C.2       1 RES1   0.0000
    13 C13      9.8514  22.0001   0.9101   C.2       1 RES1   0.0000
    14 C14      9.8778  20.5832   0.6753   C.2       1 RES1   0.0000
    15 C15     10.8935  20.0248  -0.1734   C.2       1 RES1   0.0000
    16 C16     10.9117  18.6750  -0.4095   C.2       1 RES1   0.0000
    17 C17      9.9391  17.8234   0.1835   C.2       1 RES1   0.0000
    18 C18      8.9584  18.3654   1.0185   C.2       1 RES1   0.0000
    19 C19      8.9256  19.7429   1.2664   C.2       1 RES1   0.0000
    20 C20      6.5656  17.5448   4.5017   C.3       1 RES1   0.0000
    21 S21      7.4327  16.4859   5.6478   S.o2      1 RES1   0.0000
    22 O22      8.4412  15.8256   4.8664   O.2       1 RES1   0.0000
    23 O23      7.8317  17.1784   6.8296   O.2       1 RES1   0.0000
    24 C24      6.2023  15.2261   6.1867   C.3       1 RES1   0.0000
    25 C25      5.0574  16.0316   6.8476   C.3       1 RES1   0.0000
    26 C26      6.8479  14.2525   7.2031   C.3       1 RES1   0.0000
    27 C27      5.5889  14.4842   4.9720   C.3       1 RES1   0.0000
    28 C28      9.9496  22.2561   5.2161   C.2       1 RES1   0.0000
    29 O29     10.6812  22.1738   4.2426   O.2       1 RES1   0.0000
    30 N30      9.4007  23.4585   5.6240   N.am      1 RES1   0.0000
    31 C31      9.6385  24.7315   4.9219   C.3       1 RES1   0.0000
    32 C32     10.7208  25.4956   5.7348   C.3       1 RES1   0.0000
    33 O33     10.9970  26.7110   4.9469   O.3       1 RES1   0.0000
    34 C34      8.2991  25.5055   4.8773   C.3       1 RES1   0.0000
    35 C35      7.1192  24.9328   4.1196   C.2       1 RES1   0.0000
    36 C36      6.8753  25.1893   2.7658   C.2       1 RES1   0.0000
    37 C37      5.8142  24.6077   2.0605   C.2       1 RES1   0.0000
    38 C38      4.9528  23.7377   2.7389   C.2       1 RES1   0.0000
    39 C39      5.1874  23.4453   4.0804   C.2       1 RES1   0.0000
    40 C40      6.2532  24.0351   4.7667   C.2       1 RES1   0.0000
@<TRIPOS>BOND
     1     1     2    1
     2     2     3    1
     3     2     4    1
     4     4     5    1
     5     5     6   am
     6     6     7    2
     7     6     8    1
     8     8     9    1
     9     9    10    1
    10    10    11    2
    11    11    12    1
    12    12    13    2
    13    13    14    1
    14    14    15    2
    15    15    16    1
    16    16    17    2
    17    17    18    1
    18    18    19    2
    19     8    20    1
    20    20    21    1
    21    21    22    2
    22    21    23    2
    23    21    24    1
    24    24    25    1
    25    24    26    1
    26    24    27    1
    27     4    28    1
    28    28    29    2
    29    28    30   am
    30    30    31    1
    31    31    32    1
    32    32    33    1
    33    31    34    1
    34    34    35    1
    35    35    36    2
    36    36    37    1
    37    37    38    2
    38    38    39    1
    39    39    40    2
    40    19    10    1
    41    40    35    1
    42    19    14    1
@<TRIPOS>SUBSTRUCTURE
     1 RES1        1 GROUP             0 ****  ****    0  
@<TRIPOS>MOLECULE
ligand_5
    40    42     1     0     0
SMALL
NO_CHARGES
****
Generated from the CSD

@<TRIPOS>ATOM
     1 C1       2.6226  13.6847   1.8280   C.3       1 RES1   0.0000
     2 C2       3.1517  15.0483   1.3537   C.3       1 RES1   0.0000
     3 C3       2.1003  16.1753   1.4796   C.3       1 RES1   0.0000
     4 C4       4.3820  15.4942   2.1816   C.3       1 RES1   0.0000
     5 N5       5.0061  16.7588   1.7119   N.am      1 RES1   0.0000
     6 C6       4.9559  17.9354   2.3952   C.2       1 RES1   0.0000
     7 O7       4.3847  18.0602   3.4855   O.2       1 RES1   0.0000
     8 C8       5.7471  19.1002   1.7638   C.3       1 RES1   0.0000
     9 C9       6.8942  19.4002   2.7629   C.3       1 RES1   0.0000
    10 C10      7.8515  20.4449   2.1623   C.2       1 RES1   0.0000
    11 C11      7.8331  21.7633   2.4515   C.2       1 RES1   0.0000
    12 C12      8.7671  22.6656   1.8037   C.2       1 RES1   0.0000
    13 C13      9.6649  22.1875   0.8981   C.2       1 RES1   0.0000
    14 C14      9.7073  20.7905   0.5658   C.2       1 RES1   0.0000
    15 C15     10.6740  20.3179  -0.3859   C.2       1 RES1   0.0000
    16 C16     10.7065  18.9879  -0.7142   C.2       1 RES1   0.0000
    17 C17      9.7972  18.0723  -0.1161   C.2       1 RES1   0.0000
    18 C18      8.8648  18.5304   0.8184   C.2       1 RES1   0.0000
    19 C19      8.8179  19.8870   1.1614   C.2       1 RES1   0.0000
    20 C20      4.8628  20.3637   1.5119   C.3       1 RES1   0.0000
    21 S21      3.7780  20.1030   0.1184   S.o2      1 RES1   0.0000
    22 O22      4.6450  19.9833  -1.0207   O.2       1 RES1   0.0000
    23 O23      2.8243  19.0698   0.3600   O.2       1 RES1   0.0000
    24 C24      2.8094  21.6598  -0.0537   C.3       1 RES1   0.0000
    25 C25      2.0521  21.8186   1.2871   C.3       1 RES1   0.0000
    26 C26      1.8163  21.5407  -1.2358   C.3       1 RES1   0.0000
    27 C27      3.7425  22.8896  -0.1930   C.3       1 RES1   0.0000
    28 C28      5.5728  14.4627   2.1215   C.2       1 RES1   0.0000
    29 O29      5.9293  13.7410   3.0390   O.2       1 RES1   0.0000
    30 N30      6.2488  14.5072   0.9154   N.am      1 RES1   0.0000
    31 C31      7.4880  13.7531   0.6587   C.3       1 RES1   0.0000
    32 C32      8.6613  14.7650   0.7815   C.3       1 RES1   0.0000
    33 O33      9.8812  13.9451   0.6637   O.3       1 RES1   0.0000
    34 C34      7.3916  13.1536  -0.7649   C.3       1 RES1   0.0000
    35 C35      8.4447  12.1779  -1.2477   C.2       1 RES1   0.0000
    36 C36      9.6016  12.5689  -1.9309   C.2       1 RES1   0.0000
    37 C37     10.5969  11.6641  -2.3214   C.2       1 RES1   0.0000
    38 C38     10.4259  10.3071  -2.0242   C.2       1 RES1   0.0000
    39 C39      9.2956   9.8940  -1.3229   C.2       1 RES1   0.0000
    40 C40      8.3137  10.8129  -0.9405   C.2       1 RES1   0.0000
@<TRIPOS>BOND
     1     1     2    1
     2     2     3    1
     3     2     4    1
     4     4     5    1
     5     5     6   am
     6     6     7    2
     7     6     8    1
     8     8     9    1
     9     9    10    1
    10    10    11    2
    11    11    12    1
    12    12    13    2
    13    13    14    1
    14    14    15    2
    15    15    16    1
    16    16    17    2
    17    17    18    1
    18    18    19    2
    19     8    20    1
    20    20    21    1
    21    21    22    2
    22    21    23    2
    23    21    24    1
    24    24    25    1
    25    24    26    1
    26    24    27    1
    27     4    28    1
    28    28    29    2
    29    28    30   am
    30    30    31    1
    31    31    32    1
    32    32    33    1
    33    31    34    1
    34    34    35    1
    35    35    36    2
    36    36    37    1
    37    37    38    2
    38    38    39    1
    39    39    40    2
    40    19    10    1
    41    40    35    1
    42    19    14    1
@<TRIPOS>SUBSTRUCTURE
     1 RES1        1 GROUP             0 ****  ****    0  
@<TRIPOS>MOLECULE
ligand_6
    40    42     1     0     0
SMALL
NO_CHARGES
****
Generated from the CSD

@<TRIPOS>ATOM
     1 C1       3.7979  13.0593   1.7071   C.3       1 RES1   0.0000
     2 C2       4.3657  14.3637   1.1235   C.3       1 RES1   0.0000
     3 C3       3.5441  14.8906  -0.0759   C.3       1 RES1   0.0000
     4 C4       4.3820  15.4942   2.1816   C.3       1 RES1   0.0000
     5 N5       5.0061  16.7588   1.7119   N.am      1 RES1   0.0000
     6 C6       4.9184  17.9457   2.3732   C.2       1 RES1   0.0000
     7 O7       4.3232  18.0775   3.4497   O.2       1 RES1   0.0000
     8 C8       5.6983  19.1156   1.7369   C.3       1 RES1   0.0000
     9 C9       6.8233  19.4516   2.7495   C.3       1 RES1   0.0000
    10 C10      7.7821  20.4902   2.1408   C.2       1 RES1   0.0000
    11 C11      7.7472  21.8149   2.3977   C.2       1 RES1   0.0000
    12 C12      8.6848  22.7099   1.7449   C.2       1 RES1   0.0000
    13 C13      9.6028  22.2183   0.8671   C.2       1 RES1   0.0000
    14 C14      9.6631  20.8142   0.5695   C.2       1 RES1   0.0000
    15 C15     10.6508  20.3277  -0.3532   C.2       1 RES1   0.0000
    16 C16     10.7007  18.9905  -0.6487   C.2       1 RES1   0.0000
    17 C17      9.7888  18.0813  -0.0449   C.2       1 RES1   0.0000
    18 C18      8.8358  18.5533   0.8617   C.2       1 RES1   0.0000
    19 C19      8.7711  19.9172   1.1710   C.2       1 RES1   0.0000
    20 C20      4.7951  20.3585   1.4520   C.3       1 RES1   0.0000
    21 S21      3.7381  20.0572   0.0454   S.o2      1 RES1   0.0000
    22 O22      4.6256  19.9368  -1.0778   O.2       1 RES1   0.0000
    23 O23      2.7997  19.0101   0.2872   O.2       1 RES1   0.0000
    24 C24      2.7441  21.5930  -0.1656   C.3       1 RES1   0.0000
    25 C25      1.9622  21.7576   1.1603   C.3       1 RES1   0.0000
    26 C26      1.7727  21.4381  -1.3615   C.3       1 RES1   0.0000
    27 C27      3.6566  22.8377  -0.3085   C.3       1 RES1   0.0000
    28 C28      5.2287  15.1299   3.4607   C.2       1 RES1   0.0000
    29 O29      4.7693  14.7786   4.5355   O.2       1 RES1   0.0000
    30 N30      6.5846  15.3256   3.2690   N.am      1 RES1   0.0000
    31 C31      7.5843  15.1333   4.3338   C.3       1 RES1   0.0000
    32 C32      8.5709  16.3308   4.2431   C.3       1 RES1   0.0000
    33 O33      9.4963  16.1445   5.3759   O.3       1 RES1   0.0000
    34 C34      8.2943  13.7820   4.0786   C.3       1 RES1   0.0000
    35 C35      7.5077  12.4894   4.1463   C.2       1 RES1   0.0000
    36 C36      7.3501  11.7442   5.3202   C.2       1 RES1   0.0000
    37 C37      6.5721  10.5814   5.3844   C.2       1 RES1   0.0000
    38 C38      5.9294  10.1375   4.2229   C.2       1 RES1   0.0000
    39 C39      6.0489  10.8741   3.0468   C.2       1 RES1   0.0000
    40 C40      6.8292  12.0334   3.0033   C.2       1 RES1   0.0000
@<TRIPOS>BOND
     1     1     2    1
     2     2     3    1
     3     2     4    1
     4     4     5    1
     5     5     6   am
     6     6     7    2
     7     6     8    1
     8     8     9    1
     9     9    10    1
    10    10    11    2
    11    11    12    1
    12    12    13    2
    13    13    14    1
    14    14    15    2
    15    15    16    1
    16    16    17    2
    17    17    18    1
    18    18    19    2
    19     8    20    1
    20    20    21    1
    21    21    22    2
    22    21    23    2
    23    21    24    1
    24    24    25    1
    25    24    26    1
    26    24    27    1
    27     4    28    1
    28    28    29    2
    29    28    30   am
    30    30    31    1
    31    31    32    1
    32    32    33    1
    33    31    34    1
    34    34    35    1
    35    35    36    2
    36    36    37    1
    37    37    38    2
    38    38    39    1
    39    39    40    2
    40    19    10    1
    41    40    35    1
    42    19    14    1
@<TRIPOS>SUBSTRUCTURE
     1 RES1        1 GROUP             0 ****  ****    0  
@<TRIPOS>MOLECULE
ligand_7
    40    42     1     0     0
SMALL
NO_CHARGES
****
Generated from the CSD

@<TRIPOS>ATOM
     1 C1      10.4367  21.3294   8.8029   C.3       1 RES1   0.0000
     2 C2       9.8216  20.2557   7.8901   C.3       1 RES1   0.0000
     3 C3       8.4637  19.7318   8.4127   C.3       1 RES1   0.0000
     4 C4       9.5668  20.8061   6.4653   C.3       1 RES1   0.0000
     5 N5       9.0645  19.7920   5.5017   N.am      1 RES1   0.0000
     6 C6       7.8000  19.7780   4.9971   C.2       1 RES1   0.0000
     7 O7       6.9429  20.6180   5.2974   O.2       1 RES1   0.0000
     8 C8       7.5231  18.6894   3.9389   C.3       1 RES1   0.0000
     9 C9       6.9032  19.4430   2.7340   C.3       1 RES1   0.0000
    10 C10      7.9274  20.4344   2.1538   C.2       1 RES1   0.0000
    11 C11      7.9159  21.7673   2.3668   C.2       1 RES1   0.0000
    12 C12      8.9175  22.6143   1.7457   C.2       1 RES1   0.0000
    13 C13      9.8722  22.0692   0.9419   C.2       1 RES1   0.0000
    14 C14      9.9093  20.6550   0.6923   C.2       1 RES1   0.0000
    15 C15     10.9364  20.1115  -0.1522   C.2       1 RES1   0.0000
    16 C16     10.9649  18.7645  -0.4024   C.2       1 RES1   0.0000
    17 C17      9.9915  17.9010   0.1719   C.2       1 RES1   0.0000
    18 C18      8.9995  18.4284   1.0029   C.2       1 RES1   0.0000
    19 C19      8.9562  19.8030   1.2650   C.2       1 RES1   0.0000
    20 C20      6.5707  17.5669   4.4630   C.3       1 RES1   0.0000
    21 S21      7.4297  16.4975   5.6055   S.o2      1 RES1   0.0000
    22 O22      8.4388  15.8387   4.8236   O.2       1 RES1   0.0000
    23 O23      7.8267  17.1810   6.7932   O.2       1 RES1   0.0000
    24 C24      6.1928  15.2388   6.1316   C.3       1 RES1   0.0000
    25 C25      5.0483  16.0441   6.7934   C.3       1 RES1   0.0000
    26 C26      6.8311  14.2563   7.1441   C.3       1 RES1   0.0000
    27 C27      5.5813  14.5069   4.9098   C.3       1 RES1   0.0000
    28 C28     10.8745  21.3454   5.7693   C.2       1 RES1   0.0000
    29 O29     11.1335  22.5208   5.5664   O.2       1 RES1   0.0000
    30 N30     11.6952  20.3243   5.3252   N.am      1 RES1   0.0000
    31 C31     12.8986  20.5562   4.5078   C.3       1 RES1   0.0000
    32 C32     12.5162  20.2132   3.0409   C.3       1 RES1   0.0000
    33 O33     13.7132  20.5522   2.2493   O.3       1 RES1   0.0000
    34 C34     14.0193  19.6319   5.0415   C.3       1 RES1   0.0000
    35 C35     14.5506  19.8211   6.4473   C.2       1 RES1   0.0000
    36 C36     15.6263  20.6605   6.7577   C.2       1 RES1   0.0000
    37 C37     16.0718  20.8730   8.0685   C.2       1 RES1   0.0000
    38 C38     15.4199  20.2113   9.1157   C.2       1 RES1   0.0000
    39 C39     14.3303  19.3896   8.8372   C.2       1 RES1   0.0000
    40 C40     13.8997  19.1914   7.5218   C.2       1 RES1   0.0000
@<TRIPOS>BOND
     1     1     2    1
     2     2     3    1
     3     2     4    1
     4     4     5    1
     5     5     6   am
     6     6     7    2
     7     6     8    1
     8     8     9    1
     9     9    10    1
    10    10    11    2
    11    11    12    1
    12    12    13    2
    13    13    14    1
    14    14    15    2
    15    15    16    1
    16    16    17    2
    17    17    18    1
    18    18    19    2
    19     8    20    1
    20    20    21    1
    21    21    22    2
    22    21    23    2
    23    21    24    1
    24    24    25    1
    25    24    26    1
    26    24    27    1
    27     4    28    1
    28    28    29    2
    29    28    30   am
    30    30    31    1
    31    31    32    1
    32    32    33    1
    33    31    34    1
    34    34    35    1
    35    35    36    2
    36    36    37    1
    37    37    38    2
    38    38    39    1
    39    39    40    2
    40    19    10    1
    41    40    35    1
    42    19    14    1
@<TRIPOS>SUBSTRUCTURE
     1 RES1        1 GROUP             0 ****  ****    0  
@<TRIPOS>MOLECULE
ligand_8
    40    42     1     0     0
SMALL
NO_CHARGES
****
Generated from the CSD

@<TRIPOS>ATOM
     1 C1       3.7979  13.0593   1.7071   C.3       1 RES1   0.0000
     2 C2       4.3657  14.3637   1.1235   C.3       1 RES1   0.0000
     3 C3       3.5441  14.8906  -0.0759   C.3       1 RES1   0.0000
     4 C4       4.3820  15.4942   2.1816   C.3       1 RES1   0.0000
     5 N5       5.0061  16.7588   1.7119   N.am      1 RES1   0.0000
     6 C6       4.9232  17.9444   2.3762   C.2       1 RES1   0.0000
     7 O7       4.3137  18.0798   3.4442   O.2       1 RES1   0.0000
     8 C8       5.7269  19.1067   1.7558   C.3       1 RES1   0.0000
     9 C9       6.8410  19.4250   2.7860   C.3       1 RES1   0.0000
    10 C10      7.8251  20.4489   2.1931   C.2       1 RES1   0.0000
    11 C11      7.8062  21.7740   2.4499   C.2       1 RES1   0.0000
    12 C12      8.7676  22.6547   1.8124   C.2       1 RES1   0.0000
    13 C13      9.6918  22.1493   0.9491   C.2       1 RES1   0.0000
    14 C14      9.7355  20.7445   0.6520   C.2       1 RES1   0.0000
    15 C15     10.7302  20.2432  -0.2552   C.2       1 RES1   0.0000
    16 C16     10.7644  18.9054  -0.5504   C.2       1 RES1   0.0000
    17 C17      9.8293  18.0101   0.0386   C.2       1 RES1   0.0000
    18 C18      8.8693  18.4964   0.9301   C.2       1 RES1   0.0000
    19 C19      8.8205  19.8611   1.2388   C.2       1 RES1   0.0000
    20 C20      4.8436  20.3618   1.4623   C.3       1 RES1   0.0000
    21 S21      3.8037  20.0788   0.0392   S.o2      1 RES1   0.0000
    22 O22      4.7061  19.9513  -1.0713   O.2       1 RES1   0.0000
    23 O23      2.8489  19.0427   0.2632   O.2       1 RES1   0.0000
    24 C24      2.8321  21.6277  -0.1806   C.3       1 RES1   0.0000
    25 C25      2.0329  21.7973   1.1343   C.3       1 RES1   0.0000
    26 C26      1.8766  21.4892  -1.3912   C.3       1 RES1   0.0000
    27 C27      3.7621  22.8614  -0.3054   C.3       1 RES1   0.0000
    28 C28      5.2287  15.1299   3.4607   C.2       1 RES1   0.0000
    29 O29      4.7696  14.7721   4.5335   O.2       1 RES1   0.0000
    30 N30      6.5838  15.3340   3.2719   N.am      1 RES1   0.0000
    31 C31      7.5800  15.1685   4.3445   C.3       1 RES1   0.0000
    32 C32      7.9422  16.5955   4.8429   C.3       1 RES1   0.0000
    33 O33      8.8232  16.3775   6.0050   O.3       1 RES1   0.0000
    34 C34      8.8064  14.4402   3.7439   C.3       1 RES1   0.0000
    35 C35      9.9266  13.9721   4.6496   C.2       1 RES1   0.0000
    36 C36     11.0487  14.7513   4.9526   C.2       1 RES1   0.0000
    37 C37     12.0499  14.3314   5.8375   C.2       1 RES1   0.0000
    38 C38     11.9301  13.0738   6.4404   C.2       1 RES1   0.0000
    39 C39     10.8107  12.2883   6.1758   C.2       1 RES1   0.0000
    40 C40      9.8211  12.7259   5.2903   C.2       1 RES1   0.0000
@<TRIPOS>BOND
     1     1     2    1
     2     2     3    1
     3     2     4    1
     4     4     5    1
     5     5     6   am
     6     6     7    2
     7     6     8    1
     8     8     9    1
     9     9    10    1
    10    10    11    2
    11    11    12    1
    12    12    13    2
    13    13    14    1
    14    14    15    2
    15    15    16    1
    16    16    17    2
    17    17    18    1
    18    18    19    2
    19     8    20    1
    20    20    21    1
    21    21    22    2
    22    21    23    2
    23    21    24    1
    24    24    25    1
    25    24    26    1
    26    24    27    1
    27     4    28    1
    28    28    29    2
    29    28    30   am
    30    30    31    1
    31    31    32    1
    32    32    33    1
    33    31    34    1
    34    34    35    1
    35    35    36    2
    36    36    37    1
    37    37    38    2
    38    38    39    1
    39    39    40    2
    40    19    10    1
    41    40    35    1
    42    19    14    1
@<TRIPOS>SUBSTRUCTURE
     1 RES1        1 GROUP             0 ****  ****    0  
@<TRIPOS>MOLECULE
ligand_9
    40    42     1     0     0
SMALL
NO_CHARGES
****
Generated from the CSD

@<TRIPOS>ATOM
     1 C1       2.6217  13.6854   1.8290   C.3       1 RES1   0.0000
     2 C2       3.1517  15.0483   1.3537   C.3       1 RES1   0.0000
     3 C3       2.1009  16.1760   1.4783   C.3       1 RES1   0.0000
     4 C4       4.3820  15.4942   2.1816   C.3       1 RES1   0.0000
     5 N5       5.0061  16.7588   1.7119   N.am      1 RES1   0.0000
     6 C6       4.9526  17.9363   2.3934   C.2       1 RES1   0.0000
     7 O7       4.3769  18.0624   3.4811   O.2       1 RES1   0.0000
     8 C8       5.7459  19.1006   1.7636   C.3       1 RES1   0.0000
     9 C9       6.8885  19.4027   2.7672   C.3       1 RES1   0.0000
    10 C10      7.8482  20.4465   2.1688   C.2       1 RES1   0.0000
    11 C11      7.8282  21.7655   2.4555   C.2       1 RES1   0.0000
    12 C12      8.7648  22.6669   1.8102   C.2       1 RES1   0.0000
    13 C13      9.6667  22.1873   0.9094   C.2       1 RES1   0.0000
    14 C14      9.7109  20.7897   0.5799   C.2       1 RES1   0.0000
    15 C15     10.6819  20.3156  -0.3667   C.2       1 RES1   0.0000
    16 C16     10.7162  18.9850  -0.6925   C.2       1 RES1   0.0000
    17 C17      9.8045  18.0703  -0.0967   C.2       1 RES1   0.0000
    18 C18      8.8678  18.5299   0.8329   C.2       1 RES1   0.0000
    19 C19      8.8191  19.8871   1.1732   C.2       1 RES1   0.0000
    20 C20      4.8621  20.3632   1.5060   C.3       1 RES1   0.0000
    21 S21      3.8464  20.1333   0.0560   S.o2      1 RES1   0.0000
    22 O22      3.5611  18.7260   0.0113   O.2       1 RES1   0.0000
    23 O23      2.7553  21.0512   0.0077   O.2       1 RES1   0.0000
    24 C24      4.9260  20.5499  -1.3765   C.3       1 RES1   0.0000
    25 C25      5.3779  22.0106  -1.1348   C.3       1 RES1   0.0000
    26 C26      4.1263  20.4328  -2.6973   C.3       1 RES1   0.0000
    27 C27      6.2070  19.6774  -1.3871   C.3       1 RES1   0.0000
    28 C28      5.5728  14.4627   2.1215   C.2       1 RES1   0.0000
    29 O29      5.9295  13.7412   3.0391   O.2       1 RES1   0.0000
    30 N30      6.2486  14.5070   0.9153   N.am      1 RES1   0.0000
    31 C31      7.4880  13.7532   0.6587   C.3       1 RES1   0.0000
    32 C32      8.6611  14.7656   0.7810   C.3       1 RES1   0.0000
    33 O33      9.8802  13.9529   0.6153   O.3       1 RES1   0.0000
    34 C34      7.3916  13.1533  -0.7647   C.3       1 RES1   0.0000
    35 C35      6.3252  12.1255  -1.0818   C.2       1 RES1   0.0000
    36 C36      6.5149  10.7472  -0.9321   C.2       1 RES1   0.0000
    37 C37      5.5028   9.8094  -1.1726   C.2       1 RES1   0.0000
    38 C38      4.2475  10.2672  -1.5895   C.2       1 RES1   0.0000
    39 C39      4.0239  11.6355  -1.7224   C.2       1 RES1   0.0000
    40 C40      5.0470  12.5561  -1.4762   C.2       1 RES1   0.0000
@<TRIPOS>BOND
     1     1     2    1
     2     2     3    1
     3     2     4    1
     4     4     5    1
     5     5     6   am
     6     6     7    2
     7     6     8    1
     8     8     9    1
     9     9    10    1
    10    10    11    2
    11    11    12    1
    12    12    13    2
    13    13    14    1
    14    14    15    2
    15    15    16    1
    16    16    17    2
    17    17    18    1
    18    18    19    2
    19     8    20    1
    20    20    21    1
    21    21    22    2
    22    21    23    2
    23    21    24    1
    24    24    25    1
    25    24    26    1
    26    24    27    1
    27     4    28    1
    28    28    29    2
    29    28    30   am
    30    30    31    1
    31    31    32    1
    32    32    33    1
    33    31    34    1
    34    34    35    1
    35    35    36    2
    36    36    37    1
    37    37    38    2
    38    38    39    1
    39    39    40    2
    40    19    10    1
    41    40    35    1
    42    19    14    1
@<TRIPOS>SUBSTRUCTURE
     1 RES1        1 GROUP             0 ****  ****    0  
@<TRIPOS>MOLECULE
ligand_10
    40    42     1     0     0
SMALL
NO_CHARGES
****
Generated from the CSD

@<TRIPOS>ATOM
     1 C1       2.6310  13.6784   1.8190   C.3       1 RES1   0.0000
     2 C2       3.1517  15.0483   1.3537   C.3       1 RES1   0.0000
     3 C3       2.0949  16.1688   1.4911   C.3       1 RES1   0.0000
     4 C4       4.3820  15.4942   2.1816   C.3       1 RES1   0.0000
     5 N5       5.0061  16.7588   1.7119   N.am      1 RES1   0.0000
     6 C6       4.9126  17.9472   2.3697   C.2       1 RES1   0.0000
     7 O7       4.3061  18.0820   3.4395   O.2       1 RES1   0.0000
     8 C8       5.7006  19.1149   1.7393   C.3       1 RES1   0.0000
     9 C9       6.8062  19.4613   2.7696   C.3       1 RES1   0.0000
    10 C10      7.7757  20.4947   2.1691   C.2       1 RES1   0.0000
    11 C11      7.7367  21.8216   2.4144   C.2       1 RES1   0.0000
    12 C12      8.6858  22.7110   1.7706   C.2       1 RES1   0.0000
    13 C13      9.6187  22.2121   0.9130   C.2       1 RES1   0.0000
    14 C14      9.6839  20.8055   0.6281   C.2       1 RES1   0.0000
    15 C15     10.6872  20.3113  -0.2734   C.2       1 RES1   0.0000
    16 C16     10.7419  18.9717  -0.5569   C.2       1 RES1   0.0000
    17 C17      9.8194  18.0677   0.0385   C.2       1 RES1   0.0000
    18 C18      8.8509  18.5472   0.9245   C.2       1 RES1   0.0000
    19 C19      8.7812  19.9137   1.2213   C.2       1 RES1   0.0000
    20 C20      4.7992  20.3531   1.4293   C.3       1 RES1   0.0000
    21 S21      3.7741  20.0416   0.0013   S.o2      1 RES1   0.0000
    22 O22      4.6864  19.9187  -1.1016   O.2       1 RES1   0.0000
    23 O23      2.8340  18.9927   0.2276   O.2       1 RES1   0.0000
    24 C24      2.7802  21.5732  -0.2388   C.3       1 RES1   0.0000
    25 C25      1.9690  21.7415   1.0689   C.3       1 RES1   0.0000
    26 C26      1.8357  21.4094  -1.4549   C.3       1 RES1   0.0000
    27 C27      3.6917  22.8201  -0.3678   C.3       1 RES1   0.0000
    28 C28      5.5728  14.4627   2.1215   C.2       1 RES1   0.0000
    29 O29      6.2789  14.2547   1.1479   O.2       1 RES1   0.0000
    30 N30      5.6992  13.7344   3.2908   N.am      1 RES1   0.0000
    31 C31      6.6400  12.6109   3.4418   C.3       1 RES1   0.0000
    32 C32      5.8652  11.4720   4.1618   C.3       1 RES1   0.0000
    33 O33      6.8095  10.3402   4.2032   O.3       1 RES1   0.0000
    34 C34      7.8418  13.1088   4.2803   C.3       1 RES1   0.0000
    35 C35      8.7613  14.1766   3.7248   C.2       1 RES1   0.0000
    36 C36      9.8884  13.8933   2.9455   C.2       1 RES1   0.0000
    37 C37     10.6984  14.8909   2.3883   C.2       1 RES1   0.0000
    38 C38     10.3737  16.2314   2.6268   C.2       1 RES1   0.0000
    39 C39      9.2428  16.5418   3.3781   C.2       1 RES1   0.0000
    40 C40      8.4459  15.5313   3.9247   C.2       1 RES1   0.0000
@<TRIPOS>BOND
     1     1     2    1
     2     2     3    1
     3     2     4    1
     4     4     5    1
     5     5     6   am
     6     6     7    2
     7     6     8    1
     8     8     9    1
     9     9    10    1
    10    10    11    2
    11    11    12    1
    12    12    13    2
    13    13    14    1
    14    14    15    2
    15    15    16    1
    16    16    17    2
    17    17    18    1
    18    18    19    2
    19     8    20    1
    20    20    21    1
    21    21    22    2
    22    21    23    2
    23    21    24    1
    24    24    25    1
    25    24    26    1
    26    24    27    1
    27     4    28    1
    28    28    29    2
    29    28    30   am
    30    30    31    1
    31    31    32    1
    32    32    33    1
    33    31    34    1
    34    34    35    1
    35    35    36    2
    36    36    37    1
    37    37    38    2
    38    38    39    1
    39    39    40    2
    40    19    10    1
    41    40    35    1
    42    19    14    1
@<TRIPOS>SUBSTRUCTURE
     1 RES1        1 GROUP             0 ****  ****    0  
@<TRIPOS>MOLECULE
ligand_11
    40    42     1     0     0
SMALL
NO_CHARGES
****
Generated from the CSD

@<TRIPOS>ATOM
     1 C1       2.3074  14.0186   2.2978   C.3       1 RES1   0.0000
     2 C2       2.8583  15.4039   1.9213   C.3       1 RES1   0.0000
     3 C3       2.2019  16.5487   2.7275   C.3       1 RES1   0.0000
     4 C4       4.3820  15.4942   2.1816   C.3       1 RES1   0.0000
     5 N5       5.0061  16.7588   1.7119   N.am      1 RES1   0.0000
     6 C6       4.9869  17.9263   2.4121   C.2       1 RES1   0.0000
     7 O7       4.4682  18.0359   3.5299   O.2       1 RES1   0.0000
     8 C8       5.7456  19.1008   1.7589   C.3       1 RES1   0.0000
     9 C9       6.9414  19.3868   2.7035   C.3       1 RES1   0.0000
    10 C10      7.8812  20.4215   2.0594   C.2       1 RES1   0.0000
    11 C11      7.8922  21.7394   2.3512   C.2       1 RES1   0.0000
    12 C12      8.8048  22.6321   1.6610   C.2       1 RES1   0.0000
    13 C13      9.6525  22.1454   0.7126   C.2       1 RES1   0.0000
    14 C14      9.6625  20.7488   0.3765   C.2       1 RES1   0.0000
    15 C15     10.5769  20.2670  -0.6211   C.2       1 RES1   0.0000
    16 C16     10.5780  18.9373  -0.9527   C.2       1 RES1   0.0000
    17 C17      9.6876  18.0312  -0.3133   C.2       1 RES1   0.0000
    18 C18      8.8064  18.4982   0.6655   C.2       1 RES1   0.0000
    19 C19      8.7920  19.8545   1.0125   C.2       1 RES1   0.0000
    20 C20      4.8499  20.3672   1.5704   C.3       1 RES1   0.0000
    21 S21      3.7043  20.1309   0.2219   S.o2      1 RES1   0.0000
    22 O22      4.5198  20.0335  -0.9567   O.2       1 RES1   0.0000
    23 O23      2.7629  19.0920   0.4864   O.2       1 RES1   0.0000
    24 C24      2.7281  21.6892   0.1220   C.3       1 RES1   0.0000
    25 C25      2.0310  21.8221   1.4978   C.3       1 RES1   0.0000
    26 C26      1.6834  21.5906  -1.0168   C.3       1 RES1   0.0000
    27 C27      3.6532  22.9227  -0.0359   C.3       1 RES1   0.0000
    28 C28      5.2045  14.3845   1.4216   C.2       1 RES1   0.0000
    29 O29      5.7571  13.4310   1.9463   O.2       1 RES1   0.0000
    30 N30      5.3106  14.6417   0.0666   N.am      1 RES1   0.0000
    31 C31      6.1400  13.8334  -0.8439   C.3       1 RES1   0.0000
    32 C32      7.1628  14.8040  -1.4979   C.3       1 RES1   0.0000
    33 O33      8.0300  13.9406  -2.3206   O.3       1 RES1   0.0000
    34 C34      5.2025  13.1916  -1.8948   C.3       1 RES1   0.0000
    35 C35      4.1480  12.1952  -1.4596   C.2       1 RES1   0.0000
    36 C36      4.3747  10.8164  -1.3863   C.2       1 RES1   0.0000
    37 C37      3.4105   9.9103  -0.9268   C.2       1 RES1   0.0000
    38 C38      2.1611  10.4015  -0.5308   C.2       1 RES1   0.0000
    39 C39      1.9174  11.7723  -0.5699   C.2       1 RES1   0.0000
    40 C40      2.8935  12.6610  -1.0305   C.2       1 RES1   0.0000
@<TRIPOS>BOND
     1     1     2    1
     2     2     3    1
     3     2     4    1
     4     4     5    1
     5     5     6   am
     6     6     7    2
     7     6     8    1
     8     8     9    1
     9     9    10    1
    10    10    11    2
    11    11    12    1
    12    12    13    2
    13    13    14    1
    14    14    15    2
    15    15    16    1
    16    16    17    2
    17    17    18    1
    18    18    19    2
    19     8    20    1
    20    20    21    1
    21    21    22    2
    22    21    23    2
    23    21    24    1
    24    24    25    1
    25    24    26    1
    26    24    27    1
    27     4    28    1
    28    28    29    2
    29    28    30   am
    30    30    31    1
    31    31    32    1
    32    32    33    1
    33    31    34    1
    34    34    35    1
    35    35    36    2
    36    36    37    1
    37    37    38    2
    38    38    39    1
    39    39    40    2
    40    19    10    1
    41    40    35    1
    42    19    14    1
@<TRIPOS>SUBSTRUCTURE
     1 RES1        1 GROUP             0 ****  ****    0  
@<TRIPOS>MOLECULE
ligand_12
    40    42     1     0     0
SMALL
NO_CHARGES
****
Generated from the CSD

@<TRIPOS>ATOM
     1 C1       2.6131  13.6920   1.8382   C.3       1 RES1   0.0000
     2 C2       3.1517  15.0483   1.3537   C.3       1 RES1   0.0000
     3 C3       2.1066  16.1825   1.4664   C.3       1 RES1   0.0000
     4 C4       4.3820  15.4942   2.1816   C.3       1 RES1   0.0000
     5 N5       5.0061  16.7588   1.7119   N.am      1 RES1   0.0000
     6 C6       5.0808  17.8964   2.4563   C.2       1 RES1   0.0000
     7 O7       4.6532  17.9759   3.6144   O.2       1 RES1   0.0000
     8 C8       5.8273  19.0725   1.7921   C.3       1 RES1   0.0000
     9 C9       7.1071  19.2736   2.6440   C.3       1 RES1   0.0000
    10 C10      8.0080  20.3373   1.9918   C.2       1 RES1   0.0000
    11 C11      8.0770  21.6295   2.3762   C.2       1 RES1   0.0000
    12 C12      8.9433  22.5556   1.6704   C.2       1 RES1   0.0000
    13 C13      9.6887  22.1266   0.6143   C.2       1 RES1   0.0000
    14 C14      9.6346  20.7589   0.1783   C.2       1 RES1   0.0000
    15 C15     10.4420  20.3372  -0.9325   C.2       1 RES1   0.0000
    16 C16     10.3812  19.0362  -1.3584   C.2       1 RES1   0.0000
    17 C17      9.5320  18.1001  -0.7061   C.2       1 RES1   0.0000
    18 C18      8.7556  18.5078   0.3819   C.2       1 RES1   0.0000
    19 C19      8.8052  19.8345   0.8262   C.2       1 RES1   0.0000
    20 C20      4.9682  20.3764   1.7337   C.3       1 RES1   0.0000
    21 S21      3.6998  20.2372   0.4853   S.o2      1 RES1   0.0000
    22 O22      4.4038  20.1608  -0.7646   O.2       1 RES1   0.0000
    23 O23      2.7461  19.2217   0.7929   O.2       1 RES1   0.0000
    24 C24      2.7795  21.8315   0.5338   C.3       1 RES1   0.0000
    25 C25      2.2123  21.9309   1.9707   C.3       1 RES1   0.0000
    26 C26      1.6354  21.8174  -0.5096   C.3       1 RES1   0.0000
    27 C27      3.7341  23.0374   0.3413   C.3       1 RES1   0.0000
    28 C28      5.5728  14.4627   2.1215   C.2       1 RES1   0.0000
    29 O29      5.5086  13.2895   2.4521   O.2       1 RES1   0.0000
    30 N30      6.7588  15.0491   1.7177   N.am      1 RES1   0.0000
    31 C31      8.0178  14.2991   1.5678   C.3       1 RES1   0.0000
    32 C32      8.8748  14.6068   2.8275   C.3       1 RES1   0.0000
    33 O33     10.0754  13.7631   2.6829   O.3       1 RES1   0.0000
    34 C34      8.7071  14.7847   0.2701   C.3       1 RES1   0.0000
    35 C35      8.0411  14.5569  -1.0711   C.2       1 RES1   0.0000
    36 C36      8.2472  13.4121  -1.8489   C.2       1 RES1   0.0000
    37 C37      7.5812  13.1852  -3.0600   C.2       1 RES1   0.0000
    38 C38      6.6754  14.1482  -3.5197   C.2       1 RES1   0.0000
    39 C39      6.4326  15.2853  -2.7529   C.2       1 RES1   0.0000
    40 C40      7.1065  15.4929  -1.5456   C.2       1 RES1   0.0000
@<TRIPOS>BOND
     1     1     2    1
     2     2     3    1
     3     2     4    1
     4     4     5    1
     5     5     6   am
     6     6     7    2
     7     6     8    1
     8     8     9    1
     9     9    10    1
    10    10    11    2
    11    11    12    1
    12    12    13    2
    13    13    14    1
    14    14    15    2
    15    15    16    1
    16    16    17    2
    17    17    18    1
    18    18    19    2
    19     8    20    1
    20    20    21    1
    21    21    22    2
    22    21    23    2
    23    21    24    1
    24    24    25    1
    25    24    26    1
    26    24    27    1
    27     4    28    1
    28    28    29    2
    29    28    30   am
    30    30    31    1
    31    31    32    1
    32    32    33    1
    33    31    34    1
    34    34    35    1
    35    35    36    2
    36    36    37    1
    37    37    38    2
    38    38    39    1
    39    39    40    2
    40    19    10    1
    41    40    35    1
    42    19    14    1
@<TRIPOS>SUBSTRUCTURE
     1 RES1        1 GROUP             0 ****  ****    0  
@<TRIPOS>MOLECULE
ligand_13
    40    42     1     0     0
SMALL
NO_CHARGES
****
Generated from the CSD

@<TRIPOS>ATOM
     1 C1       2.6274  13.6811   1.8229   C.3       1 RES1   0.0000
     2 C2       3.1517  15.0483   1.3537   C.3       1 RES1   0.0000
     3 C3       2.0972  16.1716   1.4862   C.3       1 RES1   0.0000
     4 C4       4.3820  15.4942   2.1816   C.3       1 RES1   0.0000
     5 N5       5.0061  16.7588   1.7119   N.am      1 RES1   0.0000
     6 C6       4.9288  17.9429   2.3795   C.2       1 RES1   0.0000
     7 O7       4.3214  18.0778   3.4488   O.2       1 RES1   0.0000
     8 C8       5.7359  19.1038   1.7610   C.3       1 RES1   0.0000
     9 C9       6.8533  19.4145   2.7901   C.3       1 RES1   0.0000
    10 C10      7.8403  20.4363   2.1983   C.2       1 RES1   0.0000
    11 C11      7.8275  21.7607   2.4593   C.2       1 RES1   0.0000
    12 C12      8.7911  22.6394   1.8226   C.2       1 RES1   0.0000
    13 C13      9.7114  22.1330   0.9558   C.2       1 RES1   0.0000
    14 C14      9.7487  20.7289   0.6541   C.2       1 RES1   0.0000
    15 C15     10.7394  20.2263  -0.2568   C.2       1 RES1   0.0000
    16 C16     10.7675  18.8894  -0.5562   C.2       1 RES1   0.0000
    17 C17      9.8299  17.9961   0.0319   C.2       1 RES1   0.0000
    18 C18      8.8738  18.4835   0.9270   C.2       1 RES1   0.0000
    19 C19      8.8312  19.8474   1.2401   C.2       1 RES1   0.0000
    20 C20      4.8571  20.3633   1.4729   C.3       1 RES1   0.0000
    21 S21      3.8172  20.0906   0.0478   S.o2      1 RES1   0.0000
    22 O22      4.7199  19.9643  -1.0625   O.2       1 RES1   0.0000
    23 O23      2.8581  19.0574   0.2667   O.2       1 RES1   0.0000
    24 C24      2.8520  21.6443  -0.1660   C.3       1 RES1   0.0000
    25 C25      2.0525  21.8114   1.1490   C.3       1 RES1   0.0000
    26 C26      1.8968  21.5149  -1.3779   C.3       1 RES1   0.0000
    27 C27      3.7869  22.8748  -0.2848   C.3       1 RES1   0.0000
    28 C28      5.5728  14.4627   2.1215   C.2       1 RES1   0.0000
    29 O29      6.2641  14.2380   1.1410   O.2       1 RES1   0.0000
    30 N30      5.7179  13.7554   3.3014   N.am      1 RES1   0.0000
    31 C31      6.7086  12.6796   3.4786   C.3       1 RES1   0.0000
    32 C32      5.9379  11.3359   3.3510   C.3       1 RES1   0.0000
    33 O33      6.9828  10.2961   3.3872   O.3       1 RES1   0.0000
    34 C34      7.3447  12.8473   4.8795   C.3       1 RES1   0.0000
    35 C35      8.5274  11.9903   5.2808   C.2       1 RES1   0.0000
    36 C36      8.4002  10.7591   5.9335   C.2       1 RES1   0.0000
    37 C37      9.4979   9.9477   6.2476   C.2       1 RES1   0.0000
    38 C38     10.7806  10.3890   5.9026   C.2       1 RES1   0.0000
    39 C39     10.9337  11.5989   5.2299   C.2       1 RES1   0.0000
    40 C40      9.8252  12.3941   4.9238   C.2       1 RES1   0.0000
@<TRIPOS>BOND
     1     1     2    1
     2     2     3    1
     3     2     4    1
     4     4     5    1
     5     5     6   am
     6     6     7    2
     7     6     8    1
     8     8     9    1
     9     9    10    1
    10    10    11    2
    11    11    12    1
    12    12    13    2
    13    13    14    1
    14    14    15    2
    15    15    16    1
    16    16    17    2
    17    17    18    1
    18    18    19    2
    19     8    20    1
    20    20    21    1
    21    21    22    2
    22    21    23    2
    23    21    24    1
    24    24    25    1
    25    24    26    1
    26    24    27    1
    27     4    28    1
    28    28    29    2
    29    28    30   am
    30    30    31    1
    31    31    32    1
    32    32    33    1
    33    31    34    1
    34    34    35    1
    35    35    36    2
    36    36    37    1
    37    37    38    2
    38    38    39    1
    39    39    40    2
    40    19    10    1
    41    40    35    1
    42    19    14    1
@<TRIPOS>SUBSTRUCTURE
     1 RES1        1 GROUP             0 ****  ****    0  
@<TRIPOS>MOLECULE
ligand_14
    40    42     1     0     0
SMALL
NO_CHARGES
****
Generated from the CSD

@<TRIPOS>ATOM
     1 C1       3.7979  13.0593   1.7071   C.3       1 RES1   0.0000
     2 C2       4.3657  14.3637   1.1235   C.3       1 RES1   0.0000
     3 C3       3.5441  14.8906  -0.0759   C.3       1 RES1   0.0000
     4 C4       4.3820  15.4942   2.1816   C.3       1 RES1   0.0000
     5 N5       5.0061  16.7588   1.7119   N.am      1 RES1   0.0000
     6 C6       4.9232  17.9444   2.3761   C.2       1 RES1   0.0000
     7 O7       4.3138  18.0798   3.4442   O.2       1 RES1   0.0000
     8 C8       5.7268  19.1067   1.7557   C.3       1 RES1   0.0000
     9 C9       6.8409  19.4251   2.7859   C.3       1 RES1   0.0000
    10 C10      7.8250  20.4490   2.1928   C.2       1 RES1   0.0000
    11 C11      7.8063  21.7741   2.4497   C.2       1 RES1   0.0000
    12 C12      8.7677  22.6547   1.8121   C.2       1 RES1   0.0000
    13 C13      9.6916  22.1493   0.9486   C.2       1 RES1   0.0000
    14 C14      9.7351  20.7445   0.6513   C.2       1 RES1   0.0000
    15 C15     10.7295  20.2431  -0.2561   C.2       1 RES1   0.0000
    16 C16     10.7635  18.9054  -0.5514   C.2       1 RES1   0.0000
    17 C17      9.8284  18.0102   0.0377   C.2       1 RES1   0.0000
    18 C18      8.8687  18.4965   0.9294   C.2       1 RES1   0.0000
    19 C19      8.8201  19.8612   1.2383   C.2       1 RES1   0.0000
    20 C20      4.8434  20.3618   1.4622   C.3       1 RES1   0.0000
    21 S21      3.8666  20.1115  -0.0109   S.o2      1 RES1   0.0000
    22 O22      3.5901  18.7023  -0.0484   O.2       1 RES1   0.0000
    23 O23      2.7722  21.0227  -0.0966   O.2       1 RES1   0.0000
    24 C24      4.9805  20.5196  -1.4194   C.3       1 RES1   0.0000
    25 C25      5.4180  21.9853  -1.1813   C.3       1 RES1   0.0000
    26 C26      4.2157  20.3844  -2.7591   C.3       1 RES1   0.0000
    27 C27      6.2661  19.6544  -1.3880   C.3       1 RES1   0.0000
    28 C28      5.2287  15.1299   3.4607   C.2       1 RES1   0.0000
    29 O29      4.7696  14.7720   4.5335   O.2       1 RES1   0.0000
    30 N30      6.5838  15.3340   3.2719   N.am      1 RES1   0.0000
    31 C31      7.5800  15.1685   4.3445   C.3       1 RES1   0.0000
    32 C32      7.9422  16.5954   4.8431   C.3       1 RES1   0.0000
    33 O33      8.8616  16.3779   5.9752   O.3       1 RES1   0.0000
    34 C34      8.8064  14.4402   3.7437   C.3       1 RES1   0.0000
    35 C35      8.6654  13.0251   3.2224   C.2       1 RES1   0.0000
    36 C36      8.8643  11.8889   4.0147   C.2       1 RES1   0.0000
    37 C37      8.6742  10.5859   3.5374   C.2       1 RES1   0.0000
    38 C38      8.2761  10.4086   2.2073   C.2       1 RES1   0.0000
    39 C39      8.0467  11.5230   1.4039   C.2       1 RES1   0.0000
    40 C40      8.2406  12.8159   1.8993   C.2       1 RES1   0.0000
@<TRIPOS>BOND
     1     1     2    1
     2     2     3    1
     3     2     4    1
     4     4     5    1
     5     5     6   am
     6     6     7    2
     7     6     8    1
     8     8     9    1
     9     9    10    1
    10    10    11    2
    11    11    12    1
    12    12    13    2
    13    13    14    1
    14    14    15    2
    15    15    16    1
    16    16    17    2
    17    17    18    1
    18    18    19    2
    19     8    20    1
    20    20    21    1
    21    21    22    2
    22    21    23    2
    23    21    24    1
    24    24    25    1
    25    24    26    1
    26    24    27    1
    27     4    28    1
    28    28    29    2
    29    28    30   am
    30    30    31    1
    31    31    32    1
    32    32    33    1
    33    31    34    1
    34    34    35    1
    35    35    36    2
    36    36    37    1
    37    37    38    2
    38    38    39    1
    39    39    40    2
    40    19    10    1
    41    40    35    1
    42    19    14    1
@<TRIPOS>SUBSTRUCTURE
     1 RES1        1 GROUP             0 ****  ****    0  
@<TRIPOS>MOLECULE
ligand_15
    40    42     1     0     0
SMALL
NO_CHARGES
****
Generated from the CSD

@<TRIPOS>ATOM
     1 C1       3.1677  13.3305   1.5997   C.3       1 RES1   0.0000
     2 C2       3.7035  14.6676   1.0618   C.3       1 RES1   0.0000
     3 C3       2.5921  15.5605   0.4627   C.3       1 RES1   0.0000
     4 C4       4.3820  15.4942   2.1816   C.3       1 RES1   0.0000
     5 N5       5.0061  16.7588   1.7119   N.am      1 RES1   0.0000
     6 C6       4.9389  17.9401   2.3855   C.2       1 RES1   0.0000
     7 O7       4.3453  18.0713   3.4629   O.2       1 RES1   0.0000
     8 C8       5.7398  19.1026   1.7618   C.3       1 RES1   0.0000
     9 C9       6.8701  19.4078   2.7784   C.3       1 RES1   0.0000
    10 C10      7.8510  20.4308   2.1787   C.2       1 RES1   0.0000
    11 C11      7.8431  21.7541   2.4452   C.2       1 RES1   0.0000
    12 C12      8.8000  22.6343   1.8003   C.2       1 RES1   0.0000
    13 C13      9.7088  22.1303   0.9201   C.2       1 RES1   0.0000
    14 C14      9.7406  20.7275   0.6123   C.2       1 RES1   0.0000
    15 C15     10.7194  20.2274  -0.3128   C.2       1 RES1   0.0000
    16 C16     10.7421  18.8917  -0.6180   C.2       1 RES1   0.0000
    17 C17      9.8107  17.9971  -0.0221   C.2       1 RES1   0.0000
    18 C18      8.8663  18.4820   0.8867   C.2       1 RES1   0.0000
    19 C19      8.8293  19.8447   1.2059   C.2       1 RES1   0.0000
    20 C20      4.8591  20.3643   1.4896   C.3       1 RES1   0.0000
    21 S21      3.7977  20.0966   0.0794   S.o2      1 RES1   0.0000
    22 O22      4.6837  19.9722  -1.0446   O.2       1 RES1   0.0000
    23 O23      2.8407  19.0639   0.3098   O.2       1 RES1   0.0000
    24 C24      2.8313  21.6520  -0.1159   C.3       1 RES1   0.0000
    25 C25      2.0517  21.8165   1.2114   C.3       1 RES1   0.0000
    26 C26      1.8581  21.5270  -1.3138   C.3       1 RES1   0.0000
    27 C27      3.7659  22.8817  -0.2453   C.3       1 RES1   0.0000
    28 C28      5.5816  14.7355   2.8678   C.2       1 RES1   0.0000
    29 O29      5.5408  14.1895   3.9587   O.2       1 RES1   0.0000
    30 N30      6.7478  14.8143   2.1280   N.am      1 RES1   0.0000
    31 C31      8.0391  14.2868   2.6019   C.3       1 RES1   0.0000
    32 C32      8.8640  15.5054   3.1021   C.3       1 RES1   0.0000
    33 O33     10.0792  14.9201   3.6979   O.3       1 RES1   0.0000
    34 C34      8.7264  13.5763   1.4111   C.3       1 RES1   0.0000
    35 C35      9.9948  12.7794   1.6355   C.2       1 RES1   0.0000
    36 C36     11.2780  13.3262   1.5237   C.2       1 RES1   0.0000
    37 C37     12.4424  12.5949   1.7905   C.2       1 RES1   0.0000
    38 C38     12.3210  11.2553   2.1778   C.2       1 RES1   0.0000
    39 C39     11.0547  10.6931   2.3213   C.2       1 RES1   0.0000
    40 C40      9.9041  11.4402   2.0516   C.2       1 RES1   0.0000
@<TRIPOS>BOND
     1     1     2    1
     2     2     3    1
     3     2     4    1
     4     4     5    1
     5     5     6   am
     6     6     7    2
     7     6     8    1
     8     8     9    1
     9     9    10    1
    10    10    11    2
    11    11    12    1
    12    12    13    2
    13    13    14    1
    14    14    15    2
    15    15    16    1
    16    16    17    2
    17    17    18    1
    18    18    19    2
    19     8    20    1
    20    20    21    1
    21    21    22    2
    22    21    23    2
    23    21    24    1
    24    24    25    1
    25    24    26    1
    26    24    27    1
    27     4    28    1
    28    28    29    2
    29    28    30   am
    30    30    31    1
    31    31    32    1
    32    32    33    1
    33    31    34    1
    34    34    35    1
    35    35    36    2
    36    36    37    1
    37    37    38    2
    38    38    39    1
    39    39    40    2
    40    19    10    1
    41    40    35    1
    42    19    14    1
@<TRIPOS>SUBSTRUCTURE
     1 RES1        1 GROUP             0 ****  ****    0  
@<TRIPOS>MOLECULE
ligand_16
    40    42     1     0     0
SMALL
NO_CHARGES
****
Generated from the CSD

@<TRIPOS>ATOM
     1 C1      10.7820  21.6723   8.3621   C.3       1 RES1   0.0000
     2 C2      10.1979  20.5331   7.5105   C.3       1 RES1   0.0000
     3 C3       9.0708  19.7611   8.2352   C.3       1 RES1   0.0000
     4 C4       9.5910  21.0701   6.1910   C.3       1 RES1   0.0000
     5 N5       9.1033  20.0107   5.2696   N.am      1 RES1   0.0000
     6 C6       7.7881  19.7575   5.0245   C.2       1 RES1   0.0000
     7 O7       6.8674  20.3947   5.5505   O.2       1 RES1   0.0000
     8 C8       7.5112  18.6728   3.9622   C.3       1 RES1   0.0000
     9 C9       6.8465  19.4236   2.7795   C.3       1 RES1   0.0000
    10 C10      7.8357  20.4406   2.1832   C.2       1 RES1   0.0000
    11 C11      7.8015  21.7714   2.4071   C.2       1 RES1   0.0000
    12 C12      8.7700  22.6439   1.7693   C.2       1 RES1   0.0000
    13 C13      9.7166  22.1251   0.9388   C.2       1 RES1   0.0000
    14 C14      9.7772  20.7139   0.6771   C.2       1 RES1   0.0000
    15 C15     10.7951  20.1985  -0.1957   C.2       1 RES1   0.0000
    16 C16     10.8457  18.8543  -0.4573   C.2       1 RES1   0.0000
    17 C17      9.9046  17.9662   0.1329   C.2       1 RES1   0.0000
    18 C18      8.9218  18.4664   0.9912   C.2       1 RES1   0.0000
    19 C19      8.8561  19.8377   1.2654   C.2       1 RES1   0.0000
    20 C20      6.5966  17.5242   4.4970   C.3       1 RES1   0.0000
    21 S21      7.5075  16.4603   5.6039   S.o2      1 RES1   0.0000
    22 O22      8.5100  15.8329   4.7884   O.2       1 RES1   0.0000
    23 O23      7.9203  17.1381   6.7895   O.2       1 RES1   0.0000
    24 C24      6.3118  15.1688   6.1458   C.3       1 RES1   0.0000
    25 C25      5.1678  15.9412   6.8465   C.3       1 RES1   0.0000
    26 C26      6.9969  14.1885   7.1294   C.3       1 RES1   0.0000
    27 C27      5.6849  14.4383   4.9310   C.3       1 RES1   0.0000
    28 C28     10.6324  21.8603   5.3097   C.2       1 RES1   0.0000
    29 O29     11.5757  21.3638   4.7153   O.2       1 RES1   0.0000
    30 N30     10.4159  23.2263   5.3353   N.am      1 RES1   0.0000
    31 C31     11.2953  24.1937   4.6562   C.3       1 RES1   0.0000
    32 C32     12.2044  24.8178   5.7516   C.3       1 RES1   0.0000
    33 O33     13.1599  25.6636   5.0127   O.3       1 RES1   0.0000
    34 C34     10.3969  25.2569   3.9796   C.3       1 RES1   0.0000
    35 C35     11.0103  26.2881   3.0551   C.2       1 RES1   0.0000
    36 C36     11.4655  27.5380   3.4894   C.2       1 RES1   0.0000
    37 C37     12.0842  28.4606   2.6363   C.2       1 RES1   0.0000
    38 C38     12.2484  28.1241   1.2876   C.2       1 RES1   0.0000
    39 C39     11.8272  26.8764   0.8341   C.2       1 RES1   0.0000
    40 C40     11.2128  25.9684   1.7018   C.2       1 RES1   0.0000
@<TRIPOS>BOND
     1     1     2    1
     2     2     3    1
     3     2     4    1
     4     4     5    1
     5     5     6   am
     6     6     7    2
     7     6     8    1
     8     8     9    1
     9     9    10    1
    10    10    11    2
    11    11    12    1
    12    12    13    2
    13    13    14    1
    14    14    15    2
    15    15    16    1
    16    16    17    2
    17    17    18    1
    18    18    19    2
    19     8    20    1
    20    20    21    1
    21    21    22    2
    22    21    23    2
    23    21    24    1
    24    24    25    1
    25    24    26    1
    26    24    27    1
    27     4    28    1
    28    28    29    2
    29    28    30   am
    30    30    31    1
    31    31    32    1
    32    32    33    1
    33    31    34    1
    34    34    35    1
    35    35    36    2
    36    36    37    1
    37    37    38    2
    38    38    39    1
    39    39    40    2
    40    19    10    1
    41    40    35    1
    42    19    14    1
@<TRIPOS>SUBSTRUCTURE
     1 RES1        1 GROUP             0 ****  ****    0  
@<TRIPOS>MOLECULE
ligand_17
    40    42     1     0     0
SMALL
NO_CHARGES
****
Generated from the CSD

@<TRIPOS>ATOM
     1 C1       3.7979  13.0593   1.7071   C.3       1 RES1   0.0000
     2 C2       4.3657  14.3637   1.1235   C.3       1 RES1   0.0000
     3 C3       3.5441  14.8906  -0.0759   C.3       1 RES1   0.0000
     4 C4       4.3820  15.4942   2.1816   C.3       1 RES1   0.0000
     5 N5       5.0061  16.7588   1.7119   N.am      1 RES1   0.0000
     6 C6       4.8599  17.9604   2.3352   C.2       1 RES1   0.0000
     7 O7       4.2101  18.1067   3.3777   O.2       1 RES1   0.0000
     8 C8       5.6437  19.1310   1.7051   C.3       1 RES1   0.0000
     9 C9       6.7198  19.5104   2.7548   C.3       1 RES1   0.0000
    10 C10      7.6805  20.5578   2.1643   C.2       1 RES1   0.0000
    11 C11      7.6076  21.8861   2.3933   C.2       1 RES1   0.0000
    12 C12      8.5519  22.7887   1.7608   C.2       1 RES1   0.0000
    13 C13      9.5144  22.3005   0.9301   C.2       1 RES1   0.0000
    14 C14      9.6160  20.8927   0.6630   C.2       1 RES1   0.0000
    15 C15     10.6499  20.4102  -0.2099   C.2       1 RES1   0.0000
    16 C16     10.7395  19.0691  -0.4767   C.2       1 RES1   0.0000
    17 C17      9.8232  18.1520   0.1083   C.2       1 RES1   0.0000
    18 C18      8.8249  18.6203   0.9667   C.2       1 RES1   0.0000
    19 C19      8.7194  19.9881   1.2461   C.2       1 RES1   0.0000
    20 C20      4.7304  20.3499   1.3559   C.3       1 RES1   0.0000
    21 S21      3.7377  19.9981  -0.0855   S.o2      1 RES1   0.0000
    22 O22      4.6726  19.8704  -1.1687   O.2       1 RES1   0.0000
    23 O23      2.8095  18.9386   0.1414   O.2       1 RES1   0.0000
    24 C24      2.7252  21.5096  -0.3710   C.3       1 RES1   0.0000
    25 C25      1.8867  21.6877   0.9180   C.3       1 RES1   0.0000
    26 C26      1.8068  21.3102  -1.6017   C.3       1 RES1   0.0000
    27 C27      3.6199  22.7682  -0.5045   C.3       1 RES1   0.0000
    28 C28      5.2287  15.1299   3.4607   C.2       1 RES1   0.0000
    29 O29      4.8630  14.3954   4.3643   O.2       1 RES1   0.0000
    30 N30      6.4361  15.8035   3.5034   N.am      1 RES1   0.0000
    31 C31      7.3459  15.7527   4.6609   C.3       1 RES1   0.0000
    32 C32      7.1334  17.0716   5.4554   C.3       1 RES1   0.0000
    33 O33      7.9802  16.9310   6.6544   O.3       1 RES1   0.0000
    34 C34      8.7918  15.6320   4.1223   C.3       1 RES1   0.0000
    35 C35      9.2074  14.4036   3.3396   C.2       1 RES1   0.0000
    36 C36      9.7449  13.2567   3.9344   C.2       1 RES1   0.0000
    37 C37     10.0713  12.1048   3.2076   C.2       1 RES1   0.0000
    38 C38      9.8598  12.1003   1.8240   C.2       1 RES1   0.0000
    39 C39      9.3026  13.2195   1.2101   C.2       1 RES1   0.0000
    40 C40      8.9820  14.3596   1.9532   C.2       1 RES1   0.0000
@<TRIPOS>BOND
     1     1     2    1
     2     2     3    1
     3     2     4    1
     4     4     5    1
     5     5     6   am
     6     6     7    2
     7     6     8    1
     8     8     9    1
     9     9    10    1
    10    10    11    2
    11    11    12    1
    12    12    13    2
    13    13    14    1
    14    14    15    2
    15    15    16    1
    16    16    17    2
    17    17    18    1
    18    18    19    2
    19     8    20    1
    20    20    21    1
    21    21    22    2
    22    21    23    2
    23    21    24    1
    24    24    25    1
    25    24    26    1
    26    24    27    1
    27     4    28    1
    28    28    29    2
    29    28    30   am
    30    30    31    1
    31    31    32    1
    32    32    33    1
    33    31    34    1
    34    34    35    1
    35    35    36    2
    36    36    37    1
    37    37    38    2
    38    38    39    1
    39    39    40    2
    40    19    10    1
    41    40    35    1
    42    19    14    1
@<TRIPOS>SUBSTRUCTURE
     1 RES1        1 GROUP             0 ****  ****    0  
@<TRIPOS>MOLECULE
ligand_18
    40    42     1     0     0
SMALL
NO_CHARGES
****
Generated from the CSD

@<TRIPOS>ATOM
     1 C1       3.7979  13.0593   1.7071   C.3       1 RES1   0.0000
     2 C2       4.3657  14.3637   1.1235   C.3       1 RES1   0.0000
     3 C3       3.5441  14.8906  -0.0759   C.3       1 RES1   0.0000
     4 C4       4.3820  15.4942   2.1816   C.3       1 RES1   0.0000
     5 N5       5.0061  16.7588   1.7119   N.am      1 RES1   0.0000
     6 C6       4.9232  17.9444   2.3762   C.2       1 RES1   0.0000
     7 O7       4.3138  18.0798   3.4442   O.2       1 RES1   0.0000
     8 C8       5.7269  19.1067   1.7558   C.3       1 RES1   0.0000
     9 C9       6.8410  19.4250   2.7860   C.3       1 RES1   0.0000
    10 C10      7.8250  20.4490   2.1930   C.2       1 RES1   0.0000
    11 C11      7.8065  21.7740   2.4502   C.2       1 RES1   0.0000
    12 C12      8.7678  22.6548   1.8127   C.2       1 RES1   0.0000
    13 C13      9.6916  22.1495   0.9489   C.2       1 RES1   0.0000
    14 C14      9.7350  20.7448   0.6513   C.2       1 RES1   0.0000
    15 C15     10.7292  20.2435  -0.2564   C.2       1 RES1   0.0000
    16 C16     10.7631  18.9059  -0.5520   C.2       1 RES1   0.0000
    17 C17      9.8280  18.0105   0.0370   C.2       1 RES1   0.0000
    18 C18      8.8685  18.4967   0.9290   C.2       1 RES1   0.0000
    19 C19      8.8199  19.8613   1.2382   C.2       1 RES1   0.0000
    20 C20      4.8435  20.3618   1.4623   C.3       1 RES1   0.0000
    21 S21      3.8036  20.0788   0.0392   S.o2      1 RES1   0.0000
    22 O22      4.7060  19.9513  -1.0713   O.2       1 RES1   0.0000
    23 O23      2.8488  19.0426   0.2633   O.2       1 RES1   0.0000
    24 C24      2.8320  21.6277  -0.1806   C.3       1 RES1   0.0000
    25 C25      2.0328  21.7972   1.1343   C.3       1 RES1   0.0000
    26 C26      1.8765  21.4891  -1.3912   C.3       1 RES1   0.0000
    27 C27      3.7619  22.8613  -0.3054   C.3       1 RES1   0.0000
    28 C28      5.2287  15.1299   3.4607   C.2       1 RES1   0.0000
    29 O29      6.4441  15.0242   3.4969   O.2       1 RES1   0.0000
    30 N30      4.4336  14.8563   4.5591   N.am      1 RES1   0.0000
    31 C31      4.9762  14.4178   5.8566   C.3       1 RES1   0.0000
    32 C32      4.7532  12.8818   5.9388   C.3       1 RES1   0.0000
    33 O33      5.4373  12.4665   7.1774   O.3       1 RES1   0.0000
    34 C34      4.2093  15.1711   6.9699   C.3       1 RES1   0.0000
    35 C35      4.6639  15.0592   8.4104   C.2       1 RES1   0.0000
    36 C36      4.1821  14.0899   9.2971   C.2       1 RES1   0.0000
    37 C37      4.6524  13.9589  10.6099   C.2       1 RES1   0.0000
    38 C38      5.6419  14.8404  11.0606   C.2       1 RES1   0.0000
    39 C39      6.1571  15.7985  10.1909   C.2       1 RES1   0.0000
    40 C40      5.6754  15.9125   8.8833   C.2       1 RES1   0.0000
@<TRIPOS>BOND
     1     1     2    1
     2     2     3    1
     3     2     4    1
     4     4     5    1
     5     5     6   am
     6     6     7    2
     7     6     8    1
     8     8     9    1
     9     9    10    1
    10    10    11    2
    11    11    12    1
    12    12    13    2
    13    13    14    1
    14    14    15    2
    15    15    16    1
    16    16    17    2
    17    17    18    1
    18    18    19    2
    19     8    20    1
    20    20    21    1
    21    21    22    2
    22    21    23    2
    23    21    24    1
    24    24    25    1
    25    24    26    1
    26    24    27    1
    27     4    28    1
    28    28    29    2
    29    28    30   am
    30    30    31    1
    31    31    32    1
    32    32    33    1
    33    31    34    1
    34    34    35    1
    35    35    36    2
    36    36    37    1
    37    37    38    2
    38    38    39    1
    39    39    40    2
    40    19    10    1
    41    40    35    1
    42    19    14    1
@<TRIPOS>SUBSTRUCTURE
     1 RES1        1 GROUP             0 ****  ****    0  
@<TRIPOS>MOLECULE
ligand_19
    40    42     1     0     0
SMALL
NO_CHARGES
****
Generated from the CSD

@<TRIPOS>ATOM
     1 C1       2.6199  13.6867   1.8309   C.3       1 RES1   0.0000
     2 C2       3.1517  15.0483   1.3537   C.3       1 RES1   0.0000
     3 C3       2.1021  16.1773   1.4759   C.3       1 RES1   0.0000
     4 C4       4.3820  15.4942   2.1816   C.3       1 RES1   0.0000
     5 N5       5.0061  16.7588   1.7119   N.am      1 RES1   0.0000
     6 C6       4.9231  17.9444   2.3761   C.2       1 RES1   0.0000
     7 O7       4.3131  18.0800   3.4438   O.2       1 RES1   0.0000
     8 C8       5.7272  19.1066   1.7560   C.3       1 RES1   0.0000
     9 C9       6.8408  19.4249   2.7869   C.3       1 RES1   0.0000
    10 C10      7.8252  20.4487   2.1943   C.2       1 RES1   0.0000
    11 C11      7.8066  21.7738   2.4513   C.2       1 RES1   0.0000
    12 C12      8.7684  22.6543   1.8142   C.2       1 RES1   0.0000
    13 C13      9.6928  22.1488   0.9511   C.2       1 RES1   0.0000
    14 C14      9.7363  20.7440   0.6539   C.2       1 RES1   0.0000
    15 C15     10.7311  20.2425  -0.2531   C.2       1 RES1   0.0000
    16 C16     10.7651  18.9048  -0.5484   C.2       1 RES1   0.0000
    17 C17      9.8296  18.0097   0.0402   C.2       1 RES1   0.0000
    18 C18      8.8695  18.4961   0.9315   C.2       1 RES1   0.0000
    19 C19      8.8208  19.8608   1.2403   C.2       1 RES1   0.0000
    20 C20      4.8442  20.3618   1.4619   C.3       1 RES1   0.0000
    21 S21      3.8690  20.1119  -0.0123   S.o2      1 RES1   0.0000
    22 O22      3.5923  18.7028  -0.0504   O.2       1 RES1   0.0000
    23 O23      2.7748  21.0233  -0.0991   O.2       1 RES1   0.0000
    24 C24      4.9845  20.5200  -1.4195   C.3       1 RES1   0.0000
    25 C25      5.4219  21.9856  -1.1808   C.3       1 RES1   0.0000
    26 C26      4.2212  20.3852  -2.7600   C.3       1 RES1   0.0000
    27 C27      6.2699  19.6547  -1.3868   C.3       1 RES1   0.0000
    28 C28      5.5728  14.4627   2.1215   C.2       1 RES1   0.0000
    29 O29      6.2641  14.2380   1.1410   O.2       1 RES1   0.0000
    30 N30      5.7179  13.7554   3.3014   N.am      1 RES1   0.0000
    31 C31      6.7086  12.6796   3.4786   C.3       1 RES1   0.0000
    32 C32      5.9379  11.3359   3.3510   C.3       1 RES1   0.0000
    33 O33      6.9781  10.2942   3.4356   O.3       1 RES1   0.0000
    34 C34      7.3447  12.8473   4.8795   C.3       1 RES1   0.0000
    35 C35      8.1603  14.0836   5.1969   C.2       1 RES1   0.0000
    36 C36      9.5406  14.1711   4.9846   C.2       1 RES1   0.0000
    37 C37     10.2750  15.3390   5.2270   C.2       1 RES1   0.0000
    38 C38      9.6029  16.4673   5.7111   C.2       1 RES1   0.0000
    39 C39      8.2250  16.4153   5.9074   C.2       1 RES1   0.0000
    40 C40      7.5093  15.2404   5.6582   C.2       1 RES1   0.0000
@<TRIPOS>BOND
     1     1     2    1
     2     2     3    1
     3     2     4    1
     4     4     5    1
     5     5     6   am
     6     6     7    2
     7     6     8    1
     8     8     9    1
     9     9    10    1
    10    10    11    2
    11    11    12    1
    12    12    13    2
    13    13    14    1
    14    14    15    2
    15    15    16    1
    16    16    17    2
    17    17    18    1
    18    18    19    2
    19     8    20    1
    20    20    21    1
    21    21    22    2
    22    21    23    2
    23    21    24    1
    24    24    25    1
    25    24    26    1
    26    24    27    1
    27     4    28    1
    28    28    29    2
    29    28    30   am
    30    30    31    1
    31    31    32    1
    32    32    33    1
    33    31    34    1
    34    34    35    1
    35    35    36    2
    36    36    37    1
    37    37    38    2
    38    38    39    1
    39    39    40    2
    40    19    10    1
    41    40    35    1
    42    19    14    1
@<TRIPOS>SUBSTRUCTURE
     1 RES1        1 GROUP             0 ****  ****    0  
@<TRIPOS>MOLECULE
ligand_20
    40    42     1     0     0
SMALL
NO_CHARGES
****
Generated from the CSD

@<TRIPOS>ATOM
     1 C1       3.7979  13.0593   1.7071   C.3       1 RES1   0.0000
     2 C2       4.3657  14.3637   1.1235   C.3       1 RES1   0.0000
     3 C3       3.5441  14.8906  -0.0759   C.3       1 RES1   0.0000
     4 C4       4.3820  15.4942   2.1816   C.3       1 RES1   0.0000
     5 N5       5.0061  16.7588   1.7119   N.am      1 RES1   0.0000
     6 C6       4.9232  17.9444   2.3762   C.2       1 RES1   0.0000
     7 O7       4.3138  18.0798   3.4442   O.2       1 RES1   0.0000
     8 C8       5.7269  19.1067   1.7558   C.3       1 RES1   0.0000
     9 C9       6.8410  19.4250   2.7860   C.3       1 RES1   0.0000
    10 C10      7.8251  20.4489   2.1929   C.2       1 RES1   0.0000
    11 C11      7.8065  21.7740   2.4499   C.2       1 RES1   0.0000
    12 C12      8.7680  22.6546   1.8124   C.2       1 RES1   0.0000
    13 C13      9.6918  22.1491   0.9488   C.2       1 RES1   0.0000
    14 C14      9.7353  20.7444   0.6514   C.2       1 RES1   0.0000
    15 C15     10.7296  20.2429  -0.2560   C.2       1 RES1   0.0000
    16 C16     10.7635  18.9052  -0.5514   C.2       1 RES1   0.0000
    17 C17      9.8284  18.0100   0.0377   C.2       1 RES1   0.0000
    18 C18      8.8687  18.4964   0.9295   C.2       1 RES1   0.0000
    19 C19      8.8202  19.8610   1.2384   C.2       1 RES1   0.0000
    20 C20      4.8435  20.3618   1.4623   C.3       1 RES1   0.0000
    21 S21      3.8668  20.1116  -0.0109   S.o2      1 RES1   0.0000
    22 O22      3.5902  18.7024  -0.0484   O.2       1 RES1   0.0000
    23 O23      2.7724  21.0229  -0.0967   O.2       1 RES1   0.0000
    24 C24      4.9808  20.5196  -1.4193   C.3       1 RES1   0.0000
    25 C25      5.4184  21.9853  -1.1812   C.3       1 RES1   0.0000
    26 C26      4.2160  20.3845  -2.7590   C.3       1 RES1   0.0000
    27 C27      6.2663  19.6543  -1.3879   C.3       1 RES1   0.0000
    28 C28      5.2287  15.1299   3.4607   C.2       1 RES1   0.0000
    29 O29      6.4441  15.0242   3.4969   O.2       1 RES1   0.0000
    30 N30      4.4336  14.8563   4.5591   N.am      1 RES1   0.0000
    31 C31      4.9762  14.4178   5.8566   C.3       1 RES1   0.0000
    32 C32      4.7532  12.8818   5.9388   C.3       1 RES1   0.0000
    33 O33      5.3958  12.4738   7.2018   O.3       1 RES1   0.0000
    34 C34      4.2093  15.1711   6.9699   C.3       1 RES1   0.0000
    35 C35      4.3168  16.6783   7.0758   C.2       1 RES1   0.0000
    36 C36      5.2908  17.3291   7.8411   C.2       1 RES1   0.0000
    37 C37      5.4172  18.7233   7.8852   C.2       1 RES1   0.0000
    38 C38      4.5262  19.5031   7.1389   C.2       1 RES1   0.0000
    39 C39      3.5630  18.8804   6.3487   C.2       1 RES1   0.0000
    40 C40      3.4537  17.4869   6.3169   C.2       1 RES1   0.0000
@<TRIPOS>BOND
     1     1     2    1
     2     2     3    1
     3     2     4    1
     4     4     5    1
     5     5     6   am
     6     6     7    2
     7     6     8    1
     8     8     9    1
     9     9    10    1
    10    10    11    2
    11    11    12    1
    12    12    13    2
    13    13    14    1
    14    14    15    2
    15    15    16    1
    16    16    17    2
    17    17    18    1
    18    18    19    2
    19     8    20    1
    20    20    21    1
    21    21    22    2
    22    21    23    2
    23    21    24    1
    24    24    25    1
    25    24    26    1
    26    24    27    1
    27     4    28    1
    28    28    29    2
    29    28    30   am
    30    30    31    1
    31    31    32    1
    32    32    33    1
    33    31    34    1
    34    34    35    1
    35    35    36    2
    36    36    37    1
    37    37    38    2
    38    38    39    1
    39    39    40    2
    40    19    10    1
    41    40    35    1
    42    19    14    1
@<TRIPOS>SUBSTRUCTURE
     1 RES1        1 GROUP             0 ****  ****    0  
@<TRIPOS>MOLECULE
ligand_21
    40    42     1     0     0
SMALL
NO_CHARGES
****
Generated from the CSD

@<TRIPOS>ATOM
     1 C1       2.6225  13.6848   1.8282   C.3       1 RES1   0.0000
     2 C2       3.1517  15.0483   1.3537   C.3       1 RES1   0.0000
     3 C3       2.1004  16.1754   1.4794   C.3       1 RES1   0.0000
     4 C4       4.3820  15.4942   2.1816   C.3       1 RES1   0.0000
     5 N5       5.0061  16.7588   1.7119   N.am      1 RES1   0.0000
     6 C6       4.9562  17.9353   2.3954   C.2       1 RES1   0.0000
     7 O7       4.3856  18.0599   3.4860   O.2       1 RES1   0.0000
     8 C8       5.7473  19.1002   1.7638   C.3       1 RES1   0.0000
     9 C9       6.8950  19.3997   2.7623   C.3       1 RES1   0.0000
    10 C10      7.8520  20.4445   2.1614   C.2       1 RES1   0.0000
    11 C11      7.8340  21.7628   2.4511   C.2       1 RES1   0.0000
    12 C12      8.7677  22.6653   1.8030   C.2       1 RES1   0.0000
    13 C13      9.6648  22.1873   0.8965   C.2       1 RES1   0.0000
    14 C14      9.7068  20.7905   0.5638   C.2       1 RES1   0.0000
    15 C15     10.6728  20.3180  -0.3887   C.2       1 RES1   0.0000
    16 C16     10.7049  18.9881  -0.7176   C.2       1 RES1   0.0000
    17 C17      9.7959  18.0724  -0.1192   C.2       1 RES1   0.0000
    18 C18      8.8641  18.5304   0.8162   C.2       1 RES1   0.0000
    19 C19      8.8177  19.8868   1.1597   C.2       1 RES1   0.0000
    20 C20      4.8630  20.3638   1.5129   C.3       1 RES1   0.0000
    21 S21      3.7772  20.1037   0.1199   S.o2      1 RES1   0.0000
    22 O22      4.6435  19.9840  -1.0198   O.2       1 RES1   0.0000
    23 O23      2.8235  19.0705   0.3618   O.2       1 RES1   0.0000
    24 C24      2.8088  21.6606  -0.0512   C.3       1 RES1   0.0000
    25 C25      2.0523  21.8193   1.2901   C.3       1 RES1   0.0000
    26 C26      1.8149  21.5420  -1.2327   C.3       1 RES1   0.0000
    27 C27      3.7420  22.8903  -0.1908   C.3       1 RES1   0.0000
    28 C28      5.5728  14.4627   2.1215   C.2       1 RES1   0.0000
    29 O29      5.9292  13.7408   3.0389   O.2       1 RES1   0.0000
    30 N30      6.2490  14.5074   0.9156   N.am      1 RES1   0.0000
    31 C31      7.4883  13.7535   0.6590   C.3       1 RES1   0.0000
    32 C32      8.6615  14.7655   0.7822   C.3       1 RES1   0.0000
    33 O33      9.8806  13.9527   0.6165   O.3       1 RES1   0.0000
    34 C34      7.3923  13.1543  -0.7648   C.3       1 RES1   0.0000
    35 C35      7.2568  14.0703  -1.9635   C.2       1 RES1   0.0000
    36 C36      6.0246  14.4914  -2.4757   C.2       1 RES1   0.0000
    37 C37      5.9121  15.3850  -3.5484   C.2       1 RES1   0.0000
    38 C38      7.0818  15.8737  -4.1418   C.2       1 RES1   0.0000
    39 C39      8.3214  15.4905  -3.6356   C.2       1 RES1   0.0000
    40 C40      8.4129  14.5983  -2.5630   C.2       1 RES1   0.0000
@<TRIPOS>BOND
     1     1     2    1
     2     2     3    1
     3     2     4    1
     4     4     5    1
     5     5     6   am
     6     6     7    2
     7     6     8    1
     8     8     9    1
     9     9    10    1
    10    10    11    2
    11    11    12    1
    12    12    13    2
    13    13    14    1
    14    14    15    2
    15    15    16    1
    16    16    17    2
    17    17    18    1
    18    18    19    2
    19     8    20    1
    20    20    21    1
    21    21    22    2
    22    21    23    2
    23    21    24    1
    24    24    25    1
    25    24    26    1
    26    24    27    1
    27     4    28    1
    28    28    29    2
    29    28    30   am
    30    30    31    1
    31    31    32    1
    32    32    33    1
    33    31    34    1
    34    34    35    1
    35    35    36    2
    36    36    37    1
    37    37    38    2
    38    38    39    1
    39    39    40    2
    40    19    10    1
    41    40    35    1
    42    19    14    1
@<TRIPOS>SUBSTRUCTURE
     1 RES1        1 GROUP             0 ****  ****    0  
@<TRIPOS>MOLECULE
ligand_22
    40    42     1     0     0
SMALL
NO_CHARGES
****
Generated from the CSD

@<TRIPOS>ATOM
     1 C1       2.3048  14.0235   2.3117   C.3       1 RES1   0.0000
     2 C2       2.8583  15.4039   1.9213   C.3       1 RES1   0.0000
     3 C3       2.2035  16.5581   2.7153   C.3       1 RES1   0.0000
     4 C4       4.3820  15.4942   2.1816   C.3       1 RES1   0.0000
     5 N5       5.0061  16.7588   1.7119   N.am      1 RES1   0.0000
     6 C6       5.0034  17.9213   2.4206   C.2       1 RES1   0.0000
     7 O7       4.5050  18.0246   3.5481   O.2       1 RES1   0.0000
     8 C8       5.7543  19.0980   1.7623   C.3       1 RES1   0.0000
     9 C9       6.9692  19.3716   2.6861   C.3       1 RES1   0.0000
    10 C10      7.9037  20.4033   2.0298   C.2       1 RES1   0.0000
    11 C11      7.9307  21.7192   2.3298   C.2       1 RES1   0.0000
    12 C12      8.8360  22.6095   1.6270   C.2       1 RES1   0.0000
    13 C13      9.6607  22.1227   0.6586   C.2       1 RES1   0.0000
    14 C14      9.6532  20.7282   0.3134   C.2       1 RES1   0.0000
    15 C15     10.5436  20.2461  -0.7056   C.2       1 RES1   0.0000
    16 C16     10.5278  18.9187  -1.0457   C.2       1 RES1   0.0000
    17 C17      9.6435  18.0151  -0.3942   C.2       1 RES1   0.0000
    18 C18      8.7858  18.4823   0.6052   C.2       1 RES1   0.0000
    19 C19      8.7888  19.8364   0.9611   C.2       1 RES1   0.0000
    20 C20      4.8605  20.3695   1.6010   C.3       1 RES1   0.0000
    21 S21      3.9918  20.3326   0.0419   S.o2      1 RES1   0.0000
    22 O22      5.0130  20.4264  -0.9642   O.2       1 RES1   0.0000
    23 O23      3.0588  19.2559  -0.0331   O.2       1 RES1   0.0000
    24 C24      2.9911  21.8778  -0.0046   C.3       1 RES1   0.0000
    25 C25      2.0488  21.7898   1.2204   C.3       1 RES1   0.0000
    26 C26      2.1778  21.9456  -1.3206   C.3       1 RES1   0.0000
    27 C27      3.8812  23.1301   0.2001   C.3       1 RES1   0.0000
    28 C28      5.2045  14.3845   1.4216   C.2       1 RES1   0.0000
    29 O29      5.3737  14.3331   0.2139   O.2       1 RES1   0.0000
    30 N30      5.6690  13.3971   2.2719   N.am      1 RES1   0.0000
    31 C31      6.4011  12.2085   1.8016   C.3       1 RES1   0.0000
    32 C32      5.3868  11.0308   1.7972   C.3       1 RES1   0.0000
    33 O33      6.1324   9.8922   1.2296   O.3       1 RES1   0.0000
    34 C34      7.5726  11.9554   2.7808   C.3       1 RES1   0.0000
    35 C35      8.6820  12.9780   2.9136   C.2       1 RES1   0.0000
    36 C36      9.8415  12.9627   2.1305   C.2       1 RES1   0.0000
    37 C37     10.8340  13.9468   2.2214   C.2       1 RES1   0.0000
    38 C38     10.6656  14.9883   3.1412   C.2       1 RES1   0.0000
    39 C39      9.5090  15.0416   3.9155   C.2       1 RES1   0.0000
    40 C40      8.5290  14.0502   3.8090   C.2       1 RES1   0.0000
@<TRIPOS>BOND
     1     1     2    1
     2     2     3    1
     3     2     4    1
     4     4     5    1
     5     5     6   am
     6     6     7    2
     7     6     8    1
     8     8     9    1
     9     9    10    1
    10    10    11    2
    11    11    12    1
    12    12    13    2
    13    13    14    1
    14    14    15    2
    15    15    16    1
    16    16    17    2
    17    17    18    1
    18    18    19    2
    19     8    20    1
    20    20    21    1
    21    21    22    2
    22    21    23    2
    23    21    24    1
    24    24    25    1
    25    24    26    1
    26    24    27    1
    27     4    28    1
    28    28    29    2
    29    28    30   am
    30    30    31    1
    31    31    32    1
    32    32    33    1
    33    31    34    1
    34    34    35    1
    35    35    36    2
    36    36    37    1
    37    37    38    2
    38    38    39    1
    39    39    40    2
    40    19    10    1
    41    40    35    1
    42    19    14    1
@<TRIPOS>SUBSTRUCTURE
     1 RES1        1 GROUP             0 ****  ****    0  
@<TRIPOS>MOLECULE
ligand_23
    40    42     1     0     0
SMALL
NO_CHARGES
****
Generated from the CSD

@<TRIPOS>ATOM
     1 C1      11.2959  21.8080   7.9357   C.3       1 RES1   0.0000
     2 C2      10.7811  20.6372   7.0820   C.3       1 RES1   0.0000
     3 C3      10.2862  19.4462   7.9353   C.3       1 RES1   0.0000
     4 C4       9.5910  21.0701   6.1910   C.3       1 RES1   0.0000
     5 N5       9.1033  20.0107   5.2696   N.am      1 RES1   0.0000
     6 C6       7.7880  19.7531   5.0296   C.2       1 RES1   0.0000
     7 O7       6.8672  20.3844   5.5624   O.2       1 RES1   0.0000
     8 C8       7.5105  18.6716   3.9642   C.3       1 RES1   0.0000
     9 C9       6.8410  19.4250   2.7860   C.3       1 RES1   0.0000
    10 C10      7.8250  20.4490   2.1930   C.2       1 RES1   0.0000
    11 C11      7.7864  21.7784   2.4243   C.2       1 RES1   0.0000
    12 C12      8.7502  22.6580   1.7891   C.2       1 RES1   0.0000
    13 C13      9.6967  22.1473   0.9536   C.2       1 RES1   0.0000
    14 C14      9.7619  20.7378   0.6839   C.2       1 RES1   0.0000
    15 C15     10.7796  20.2311  -0.1942   C.2       1 RES1   0.0000
    16 C16     10.8346  18.8885  -0.4634   C.2       1 RES1   0.0000
    17 C17      9.8981  17.9937   0.1241   C.2       1 RES1   0.0000
    18 C18      8.9155  18.4854   0.9876   C.2       1 RES1   0.0000
    19 C19      8.8454  19.8550   1.2695   C.2       1 RES1   0.0000
    20 C20      6.6000  17.5191   4.4975   C.3       1 RES1   0.0000
    21 S21      7.5148  16.4565   5.6024   S.o2      1 RES1   0.0000
    22 O22      8.5187  15.8331   4.7855   O.2       1 RES1   0.0000
    23 O23      7.9263  17.1339   6.7886   O.2       1 RES1   0.0000
    24 C24      6.3233  15.1606   6.1433   C.3       1 RES1   0.0000
    25 C25      5.1774  15.9286   6.8458   C.3       1 RES1   0.0000
    26 C26      7.0120  14.1811   7.1252   C.3       1 RES1   0.0000
    27 C27      5.6978  14.4299   4.9280   C.3       1 RES1   0.0000
    28 C28      9.9496  22.2561   5.2161   C.2       1 RES1   0.0000
    29 O29     10.6943  22.1778   4.2522   O.2       1 RES1   0.0000
    30 N30      9.3831  23.4542   5.6123   N.am      1 RES1   0.0000
    31 C31      9.6248  24.7289   4.9145   C.3       1 RES1   0.0000
    32 C32     10.6639  25.5137   5.7632   C.3       1 RES1   0.0000
    33 O33     10.9852  26.7067   4.9584   O.3       1 RES1   0.0000
    34 C34      8.2751  25.4799   4.8185   C.3       1 RES1   0.0000
    35 C35      8.1715  26.7475   3.9957   C.2       1 RES1   0.0000
    36 C36      8.3821  28.0268   4.5221   C.2       1 RES1   0.0000
    37 C37      8.3412  29.1876   3.7394   C.2       1 RES1   0.0000
    38 C38      8.0694  29.0669   2.3716   C.2       1 RES1   0.0000
    39 C39      7.8807  27.8032   1.8170   C.2       1 RES1   0.0000
    40 C40      7.9269  26.6561   2.6149   C.2       1 RES1   0.0000
@<TRIPOS>BOND
     1     1     2    1
     2     2     3    1
     3     2     4    1
     4     4     5    1
     5     5     6   am
     6     6     7    2
     7     6     8    1
     8     8     9    1
     9     9    10    1
    10    10    11    2
    11    11    12    1
    12    12    13    2
    13    13    14    1
    14    14    15    2
    15    15    16    1
    16    16    17    2
    17    17    18    1
    18    18    19    2
    19     8    20    1
    20    20    21    1
    21    21    22    2
    22    21    23    2
    23    21    24    1
    24    24    25    1
    25    24    26    1
    26    24    27    1
    27     4    28    1
    28    28    29    2
    29    28    30   am
    30    30    31    1
    31    31    32    1
    32    32    33    1
    33    31    34    1
    34    34    35    1
    35    35    36    2
    36    36    37    1
    37    37    38    2
    38    38    39    1
    39    39    40    2
    40    19    10    1
    41    40    35    1
    42    19    14    1
@<TRIPOS>SUBSTRUCTURE
     1 RES1        1 GROUP             0 ****  ****    0  
@<TRIPOS>MOLECULE
ligand_24
    40    42     1     0     0
SMALL
NO_CHARGES
****
Generated from the CSD

@<TRIPOS>ATOM
     1 C1       3.7979  13.0593   1.7071   C.3       1 RES1   0.0000
     2 C2       4.3657  14.3637   1.1235   C.3       1 RES1   0.0000
     3 C3       3.5441  14.8906  -0.0759   C.3       1 RES1   0.0000
     4 C4       4.3820  15.4942   2.1816   C.3       1 RES1   0.0000
     5 N5       5.0061  16.7588   1.7119   N.am      1 RES1   0.0000
     6 C6       4.9232  17.9444   2.3762   C.2       1 RES1   0.0000
     7 O7       4.3138  18.0798   3.4442   O.2       1 RES1   0.0000
     8 C8       5.7268  19.1067   1.7557   C.3       1 RES1   0.0000
     9 C9       6.8410  19.4250   2.7859   C.3       1 RES1   0.0000
    10 C10      7.8249  20.4491   2.1928   C.2       1 RES1   0.0000
    11 C11      7.8063  21.7741   2.4502   C.2       1 RES1   0.0000
    12 C12      8.7675  22.6550   1.8126   C.2       1 RES1   0.0000
    13 C13      9.6912  22.1498   0.9486   C.2       1 RES1   0.0000
    14 C14      9.7346  20.7451   0.6509   C.2       1 RES1   0.0000
    15 C15     10.7288  20.2440  -0.2569   C.2       1 RES1   0.0000
    16 C16     10.7628  18.9064  -0.5527   C.2       1 RES1   0.0000
    17 C17      9.8278  18.0110   0.0364   C.2       1 RES1   0.0000
    18 C18      8.8683  18.4970   0.9286   C.2       1 RES1   0.0000
    19 C19      8.8198  19.8616   1.2378   C.2       1 RES1   0.0000
    20 C20      4.8434  20.3618   1.4623   C.3       1 RES1   0.0000
    21 S21      3.8034  20.0788   0.0393   S.o2      1 RES1   0.0000
    22 O22      4.7056  19.9513  -1.0713   O.2       1 RES1   0.0000
    23 O23      2.8486  19.0426   0.2635   O.2       1 RES1   0.0000
    24 C24      2.8317  21.6276  -0.1803   C.3       1 RES1   0.0000
    25 C25      2.0327  21.7972   1.1347   C.3       1 RES1   0.0000
    26 C26      1.8760  21.4891  -1.3908   C.3       1 RES1   0.0000
    27 C27      3.7616  22.8614  -0.3052   C.3       1 RES1   0.0000
    28 C28      5.2287  15.1299   3.4607   C.2       1 RES1   0.0000
    29 O29      4.7696  14.7723   4.5335   O.2       1 RES1   0.0000
    30 N30      6.5838  15.3337   3.2718   N.am      1 RES1   0.0000
    31 C31      7.5800  15.1684   4.3444   C.3       1 RES1   0.0000
    32 C32      8.3134  16.5312   4.4880   C.3       1 RES1   0.0000
    33 O33      9.2271  16.3499   5.6310   O.3       1 RES1   0.0000
    34 C34      8.5470  14.0361   3.9225   C.3       1 RES1   0.0000
    35 C35      9.3742  14.1784   2.6616   C.2       1 RES1   0.0000
    36 C36      8.9391  13.7501   1.4025   C.2       1 RES1   0.0000
    37 C37      9.6878  13.9395   0.2340   C.2       1 RES1   0.0000
    38 C38     10.9302  14.5773   0.3276   C.2       1 RES1   0.0000
    39 C39     11.3761  15.0360   1.5648   C.2       1 RES1   0.0000
    40 C40     10.6134  14.8386   2.7198   C.2       1 RES1   0.0000
@<TRIPOS>BOND
     1     1     2    1
     2     2     3    1
     3     2     4    1
     4     4     5    1
     5     5     6   am
     6     6     7    2
     7     6     8    1
     8     8     9    1
     9     9    10    1
    10    10    11    2
    11    11    12    1
    12    12    13    2
    13    13    14    1
    14    14    15    2
    15    15    16    1
    16    16    17    2
    17    17    18    1
    18    18    19    2
    19     8    20    1
    20    20    21    1
    21    21    22    2
    22    21    23    2
    23    21    24    1
    24    24    25    1
    25    24    26    1
    26    24    27    1
    27     4    28    1
    28    28    29    2
    29    28    30   am
    30    30    31    1
    31    31    32    1
    32    32    33    1
    33    31    34    1
    34    34    35    1
    35    35    36    2
    36    36    37    1
    37    37    38    2
    38    38    39    1
    39    39    40    2
    40    19    10    1
    41    40    35    1
    42    19    14    1
@<TRIPOS>SUBSTRUCTURE
     1 RES1        1 GROUP             0 ****  ****    0  
@<TRIPOS>MOLECULE
ligand_25
    40    42     1     0     0
SMALL
NO_CHARGES
****
Generated from the CSD

@<TRIPOS>ATOM
     1 C1       2.6274  13.6810   1.8228   C.3       1 RES1   0.0000
     2 C2       3.1517  15.0483   1.3537   C.3       1 RES1   0.0000
     3 C3       2.0972  16.1716   1.4862   C.3       1 RES1   0.0000
     4 C4       4.3820  15.4942   2.1816   C.3       1 RES1   0.0000
     5 N5       5.0061  16.7588   1.7119   N.am      1 RES1   0.0000
     6 C6       4.9286  17.9429   2.3794   C.2       1 RES1   0.0000
     7 O7       4.3212  18.0778   3.4487   O.2       1 RES1   0.0000
     8 C8       5.7358  19.1038   1.7610   C.3       1 RES1   0.0000
     9 C9       6.8530  19.4147   2.7902   C.3       1 RES1   0.0000
    10 C10      7.8400  20.4365   2.1984   C.2       1 RES1   0.0000
    11 C11      7.8269  21.7610   2.4591   C.2       1 RES1   0.0000
    12 C12      8.7906  22.6397   1.8225   C.2       1 RES1   0.0000
    13 C13      9.7113  22.1332   0.9561   C.2       1 RES1   0.0000
    14 C14      9.7489  20.7291   0.6548   C.2       1 RES1   0.0000
    15 C15     10.7399  20.2264  -0.2556   C.2       1 RES1   0.0000
    16 C16     10.7684  18.8894  -0.5547   C.2       1 RES1   0.0000
    17 C17      9.8308  17.9961   0.0333   C.2       1 RES1   0.0000
    18 C18      8.8743  18.4836   0.9280   C.2       1 RES1   0.0000
    19 C19      8.8314  19.8476   1.2407   C.2       1 RES1   0.0000
    20 C20      4.8570  20.3633   1.4727   C.3       1 RES1   0.0000
    21 S21      3.8173  20.0904   0.0474   S.o2      1 RES1   0.0000
    22 O22      4.7203  19.9641  -1.0628   O.2       1 RES1   0.0000
    23 O23      2.8582  19.0571   0.2661   O.2       1 RES1   0.0000
    24 C24      2.8521  21.6441  -0.1667   C.3       1 RES1   0.0000
    25 C25      2.0523  21.8112   1.1481   C.3       1 RES1   0.0000
    26 C26      1.8972  21.5145  -1.3788   C.3       1 RES1   0.0000
    27 C27      3.7870  22.8746  -0.2855   C.3       1 RES1   0.0000
    28 C28      5.5728  14.4627   2.1215   C.2       1 RES1   0.0000
    29 O29      6.2641  14.2380   1.1410   O.2       1 RES1   0.0000
    30 N30      5.7179  13.7554   3.3014   N.am      1 RES1   0.0000
    31 C31      6.7086  12.6796   3.4786   C.3       1 RES1   0.0000
    32 C32      5.9379  11.3359   3.3510   C.3       1 RES1   0.0000
    33 O33      6.9782  10.2942   3.4352   O.3       1 RES1   0.0000
    34 C34      7.3447  12.8473   4.8795   C.3       1 RES1   0.0000
    35 C35      6.4776  12.7660   6.1188   C.2       1 RES1   0.0000
    36 C36      5.8512  13.8768   6.6948   C.2       1 RES1   0.0000
    37 C37      5.0045  13.7812   7.8064   C.2       1 RES1   0.0000
    38 C38      4.7796  12.5215   8.3737   C.2       1 RES1   0.0000
    39 C39      5.3706  11.3958   7.8050   C.2       1 RES1   0.0000
    40 C40      6.2118  11.5118   6.6942   C.2       1 RES1   0.0000
@<TRIPOS>BOND
     1     1     2    1
     2     2     3    1
     3     2     4    1
     4     4     5    1
     5     5     6   am
     6     6     7    2
     7     6     8    1
     8     8     9    1
     9     9    10    1
    10    10    11    2
    11    11    12    1
    12    12    13    2
    13    13    14    1
    14    14    15    2
    15    15    16    1
    16    16    17    2
    17    17    18    1
    18    18    19    2
    19     8    20    1
    20    20    21    1
    21    21    22    2
    22    21    23    2
    23    21    24    1
    24    24    25    1
    25    24    26    1
    26    24    27    1
    27     4    28    1
    28    28    29    2
    29    28    30   am
    30    30    31    1
    31    31    32    1
    32    32    33    1
    33    31    34    1
    34    34    35    1
    35    35    36    2
    36    36    37    1
    37    37    38    2
    38    38    39    1
    39    39    40    2
    40    19    10    1
    41    40    35    1
    42    19    14    1
@<TRIPOS>SUBSTRUCTURE
     1 RES1        1 GROUP             0 ****  ****    0  
@<TRIPOS>MOLECULE
ligand_26
    40    42     1     0     0
SMALL
NO_CHARGES
****
Generated from the CSD

@<TRIPOS>ATOM
     1 C1      11.2959  21.8080   7.9357   C.3       1 RES1   0.0000
     2 C2      10.7811  20.6372   7.0820   C.3       1 RES1   0.0000
     3 C3      10.2862  19.4462   7.9353   C.3       1 RES1   0.0000
     4 C4       9.5910  21.0701   6.1910   C.3       1 RES1   0.0000
     5 N5       9.1033  20.0107   5.2696   N.am      1 RES1   0.0000
     6 C6       7.7884  19.7646   5.0161   C.2       1 RES1   0.0000
     7 O7       6.8682  20.4168   5.5245   O.2       1 RES1   0.0000
     8 C8       7.5120  18.6670   3.9670   C.3       1 RES1   0.0000
     9 C9       6.8877  19.4097   2.7576   C.3       1 RES1   0.0000
    10 C10      7.9092  20.3970   2.1657   C.2       1 RES1   0.0000
    11 C11      7.9103  21.7289   2.3853   C.2       1 RES1   0.0000
    12 C12      8.9074  22.5721   1.7522   C.2       1 RES1   0.0000
    13 C13      9.8454  22.0245   0.9305   C.2       1 RES1   0.0000
    14 C14      9.8687  20.6113   0.6735   C.2       1 RES1   0.0000
    15 C15     10.8785  20.0651  -0.1900   C.2       1 RES1   0.0000
    16 C16     10.8936  18.7192  -0.4471   C.2       1 RES1   0.0000
    17 C17      9.9238  17.8594   0.1386   C.2       1 RES1   0.0000
    18 C18      8.9489  18.3895   0.9880   C.2       1 RES1   0.0000
    19 C19      8.9192  19.7630   1.2575   C.2       1 RES1   0.0000
    20 C20      6.5635  17.5463   4.5019   C.3       1 RES1   0.0000
    21 S21      7.4368  16.4677   5.6247   S.o2      1 RES1   0.0000
    22 O22      8.4176  17.2996   6.2649   O.2       1 RES1   0.0000
    23 O23      6.5509  15.7060   6.4434   O.2       1 RES1   0.0000
    24 C24      8.3178  15.2514   4.5590   C.3       1 RES1   0.0000
    25 C25      7.2118  14.5746   3.7133   C.3       1 RES1   0.0000
    26 C26      9.0539  14.2097   5.4370   C.3       1 RES1   0.0000
    27 C27      9.2731  15.9620   3.5667   C.3       1 RES1   0.0000
    28 C28      9.9496  22.2561   5.2161   C.2       1 RES1   0.0000
    29 O29     10.6806  22.1736   4.2421   O.2       1 RES1   0.0000
    30 N30      9.4015  23.4587   5.6246   N.am      1 RES1   0.0000
    31 C31      9.6394  24.7317   4.9224   C.3       1 RES1   0.0000
    32 C32     10.7237  25.4945   5.7337   C.3       1 RES1   0.0000
    33 O33     10.9999  26.7098   4.9456   O.3       1 RES1   0.0000
    34 C34      8.3006  25.5070   4.8803   C.3       1 RES1   0.0000
    35 C35      7.1188  24.9353   4.1246   C.2       1 RES1   0.0000
    36 C36      6.8729  25.1919   2.7712   C.2       1 RES1   0.0000
    37 C37      5.8099  24.6112   2.0679   C.2       1 RES1   0.0000
    38 C38      4.9487  23.7423   2.7480   C.2       1 RES1   0.0000
    39 C39      5.1853  23.4500   4.0890   C.2       1 RES1   0.0000
    40 C40      6.2529  24.0387   4.7735   C.2       1 RES1   0.0000
@<TRIPOS>BOND
     1     1     2    1
     2     2     3    1
     3     2     4    1
     4     4     5    1
     5     5     6   am
     6     6     7    2
     7     6     8    1
     8     8     9    1
     9     9    10    1
    10    10    11    2
    11    11    12    1
    12    12    13    2
    13    13    14    1
    14    14    15    2
    15    15    16    1
    16    16    17    2
    17    17    18    1
    18    18    19    2
    19     8    20    1
    20    20    21    1
    21    21    22    2
    22    21    23    2
    23    21    24    1
    24    24    25    1
    25    24    26    1
    26    24    27    1
    27     4    28    1
    28    28    29    2
    29    28    30   am
    30    30    31    1
    31    31    32    1
    32    32    33    1
    33    31    34    1
    34    34    35    1
    35    35    36    2
    36    36    37    1
    37    37    38    2
    38    38    39    1
    39    39    40    2
    40    19    10    1
    41    40    35    1
    42    19    14    1
@<TRIPOS>SUBSTRUCTURE
     1 RES1        1 GROUP             0 ****  ****    0  
@<TRIPOS>MOLECULE
ligand_27
    40    42     1     0     0
SMALL
NO_CHARGES
****
Generated from the CSD

@<TRIPOS>ATOM
     1 C1      11.2959  21.8080   7.9357   C.3       1 RES1   0.0000
     2 C2      10.7811  20.6372   7.0820   C.3       1 RES1   0.0000
     3 C3      10.2862  19.4462   7.9353   C.3       1 RES1   0.0000
     4 C4       9.5910  21.0701   6.1910   C.3       1 RES1   0.0000
     5 N5       9.1033  20.0107   5.2696   N.am      1 RES1   0.0000
     6 C6       7.7883  19.7645   5.0163   C.2       1 RES1   0.0000
     7 O7       6.8682  20.4163   5.5251   O.2       1 RES1   0.0000
     8 C8       7.5120  18.6671   3.9669   C.3       1 RES1   0.0000
     9 C9       6.8868  19.4100   2.7581   C.3       1 RES1   0.0000
    10 C10      7.9095  20.3939   2.1626   C.2       1 RES1   0.0000
    11 C11      7.9023  21.7286   2.3638   C.2       1 RES1   0.0000
    12 C12      8.9017  22.5678   1.7289   C.2       1 RES1   0.0000
    13 C13      9.8501  22.0135   0.9239   C.2       1 RES1   0.0000
    14 C14      9.8824  20.5970   0.6867   C.2       1 RES1   0.0000
    15 C15     10.9030  20.0438  -0.1595   C.2       1 RES1   0.0000
    16 C16     10.9269  18.6946  -0.3980   C.2       1 RES1   0.0000
    17 C17      9.9553  17.8384   0.1902   C.2       1 RES1   0.0000
    18 C18      8.9698  18.3754   1.0227   C.2       1 RES1   0.0000
    19 C19      8.9312  19.7523   1.2730   C.2       1 RES1   0.0000
    20 C20      6.5643  17.5458   4.5018   C.3       1 RES1   0.0000
    21 S21      6.7673  16.0470   3.5537   S.o2      1 RES1   0.0000
    22 O22      6.2875  16.3626   2.2369   O.2       1 RES1   0.0000
    23 O23      8.0758  15.4944   3.6874   O.2       1 RES1   0.0000
    24 C24      5.6178  14.8228   4.3095   C.3       1 RES1   0.0000
    25 C25      6.0821  14.6818   5.7795   C.3       1 RES1   0.0000
    26 C26      5.7209  13.4675   3.5676   C.3       1 RES1   0.0000
    27 C27      4.1656  15.3631   4.3451   C.3       1 RES1   0.0000
    28 C28      9.9496  22.2561   5.2161   C.2       1 RES1   0.0000
    29 O29     10.6804  22.1736   4.2420   O.2       1 RES1   0.0000
    30 N30      9.4017  23.4587   5.6247   N.am      1 RES1   0.0000
    31 C31      9.6393  24.7317   4.9223   C.3       1 RES1   0.0000
    32 C32     10.7240  25.4946   5.7329   C.3       1 RES1   0.0000
    33 O33     10.9996  26.7099   4.9447   O.3       1 RES1   0.0000
    34 C34      8.3004  25.5069   4.8807   C.3       1 RES1   0.0000
    35 C35      7.1184  24.9354   4.1255   C.2       1 RES1   0.0000
    36 C36      6.8721  25.1918   2.7721   C.2       1 RES1   0.0000
    37 C37      5.8089  24.6112   2.0691   C.2       1 RES1   0.0000
    38 C38      4.9478  23.7425   2.7496   C.2       1 RES1   0.0000
    39 C39      5.1847  23.4502   4.0906   C.2       1 RES1   0.0000
    40 C40      6.2525  24.0389   4.7747   C.2       1 RES1   0.0000
@<TRIPOS>BOND
     1     1     2    1
     2     2     3    1
     3     2     4    1
     4     4     5    1
     5     5     6   am
     6     6     7    2
     7     6     8    1
     8     8     9    1
     9     9    10    1
    10    10    11    2
    11    11    12    1
    12    12    13    2
    13    13    14    1
    14    14    15    2
    15    15    16    1
    16    16    17    2
    17    17    18    1
    18    18    19    2
    19     8    20    1
    20    20    21    1
    21    21    22    2
    22    21    23    2
    23    21    24    1
    24    24    25    1
    25    24    26    1
    26    24    27    1
    27     4    28    1
    28    28    29    2
    29    28    30   am
    30    30    31    1
    31    31    32    1
    32    32    33    1
    33    31    34    1
    34    34    35    1
    35    35    36    2
    36    36    37    1
    37    37    38    2
    38    38    39    1
    39    39    40    2
    40    19    10    1
    41    40    35    1
    42    19    14    1
@<TRIPOS>SUBSTRUCTURE
     1 RES1        1 GROUP             0 ****  ****    0  
@<TRIPOS>MOLECULE
ligand_28
    40    42     1     0     0
SMALL
NO_CHARGES
****
Generated from the CSD

@<TRIPOS>ATOM
     1 C1      10.4363  21.3295   8.8031   C.3       1 RES1   0.0000
     2 C2       9.8216  20.2557   7.8901   C.3       1 RES1   0.0000
     3 C3       8.4638  19.7313   8.4125   C.3       1 RES1   0.0000
     4 C4       9.5668  20.8061   6.4653   C.3       1 RES1   0.0000
     5 N5       9.0645  19.7920   5.5017   N.am      1 RES1   0.0000
     6 C6       7.7995  19.7771   4.9983   C.2       1 RES1   0.0000
     7 O7       6.9419  20.6161   5.2999   O.2       1 RES1   0.0000
     8 C8       7.5227  18.6888   3.9397   C.3       1 RES1   0.0000
     9 C9       6.9009  19.4427   2.7359   C.3       1 RES1   0.0000
    10 C10      7.9237  20.4353   2.1553   C.2       1 RES1   0.0000
    11 C11      7.9111  21.7681   2.3691   C.2       1 RES1   0.0000
    12 C12      8.9113  22.6164   1.7475   C.2       1 RES1   0.0000
    13 C13      9.8658  22.0727   0.9425   C.2       1 RES1   0.0000
    14 C14      9.9039  20.6586   0.6921   C.2       1 RES1   0.0000
    15 C15     10.9309  20.1167  -0.1537   C.2       1 RES1   0.0000
    16 C16     10.9603  18.7698  -0.4047   C.2       1 RES1   0.0000
    17 C17      9.9883  17.9050   0.1700   C.2       1 RES1   0.0000
    18 C18      8.9966  18.4311   1.0022   C.2       1 RES1   0.0000
    19 C19      8.9523  19.8054   1.2652   C.2       1 RES1   0.0000
    20 C20      6.5718  17.5652   4.4640   C.3       1 RES1   0.0000
    21 S21      7.4329  16.4958   5.6050   S.o2      1 RES1   0.0000
    22 O22      8.4419  15.8384   4.8217   O.2       1 RES1   0.0000
    23 O23      7.8304  17.1788   6.7928   O.2       1 RES1   0.0000
    24 C24      6.1977  15.2356   6.1315   C.3       1 RES1   0.0000
    25 C25      5.0531  16.0394   6.7949   C.3       1 RES1   0.0000
    26 C26      6.8379  14.2530   7.1427   C.3       1 RES1   0.0000
    27 C27      5.5857  14.5039   4.9098   C.3       1 RES1   0.0000
    28 C28     10.8745  21.3454   5.7693   C.2       1 RES1   0.0000
    29 O29     11.1334  22.5208   5.5663   O.2       1 RES1   0.0000
    30 N30     11.6953  20.3243   5.3254   N.am      1 RES1   0.0000
    31 C31     12.8989  20.5562   4.5083   C.3       1 RES1   0.0000
    32 C32     12.5168  20.2132   3.0412   C.3       1 RES1   0.0000
    33 O33     13.6963  20.5973   2.2440   O.3       1 RES1   0.0000
    34 C34     14.0195  19.6319   5.0422   C.3       1 RES1   0.0000
    35 C35     15.4317  19.7714   4.5127   C.2       1 RES1   0.0000
    36 C36     15.9185  19.0494   3.4174   C.2       1 RES1   0.0000
    37 C37     17.2076  19.2291   2.9000   C.2       1 RES1   0.0000
    38 C38     18.0517  20.1653   3.5085   C.2       1 RES1   0.0000
    39 C39     17.5839  20.9156   4.5847   C.2       1 RES1   0.0000
    40 C40     16.2930  20.7225   5.0858   C.2       1 RES1   0.0000
@<TRIPOS>BOND
     1     1     2    1
     2     2     3    1
     3     2     4    1
     4     4     5    1
     5     5     6   am
     6     6     7    2
     7     6     8    1
     8     8     9    1
     9     9    10    1
    10    10    11    2
    11    11    12    1
    12    12    13    2
    13    13    14    1
    14    14    15    2
    15    15    16    1
    16    16    17    2
    17    17    18    1
    18    18    19    2
    19     8    20    1
    20    20    21    1
    21    21    22    2
    22    21    23    2
    23    21    24    1
    24    24    25    1
    25    24    26    1
    26    24    27    1
    27     4    28    1
    28    28    29    2
    29    28    30   am
    30    30    31    1
    31    31    32    1
    32    32    33    1
    33    31    34    1
    34    34    35    1
    35    35    36    2
    36    36    37    1
    37    37    38    2
    38    38    39    1
    39    39    40    2
    40    19    10    1
    41    40    35    1
    42    19    14    1
@<TRIPOS>SUBSTRUCTURE
     1 RES1        1 GROUP             0 ****  ****    0  
@<TRIPOS>MOLECULE
ligand_29
    40    42     1     0     0
SMALL
NO_CHARGES
****
Generated from the CSD

@<TRIPOS>ATOM
     1 C1       3.7866  13.0958   1.9617   C.3       1 RES1   0.0000
     2 C2       4.2965  14.4091   1.3457   C.3       1 RES1   0.0000
     3 C3       3.2528  15.0838   0.4255   C.3       1 RES1   0.0000
     4 C4       4.6570  15.4426   2.4410   C.3       1 RES1   0.0000
     5 N5       5.2458  16.7033   1.9185   N.am      1 RES1   0.0000
     6 C6       4.9232  17.9444   2.3762   C.2       1 RES1   0.0000
     7 O7       4.1008  18.1392   3.2796   O.2       1 RES1   0.0000
     8 C8       5.7269  19.1067   1.7558   C.3       1 RES1   0.0000
     9 C9       6.8410  19.4250   2.7860   C.3       1 RES1   0.0000
    10 C10      7.8250  20.4490   2.1930   C.2       1 RES1   0.0000
    11 C11      7.8065  21.7740   2.4503   C.2       1 RES1   0.0000
    12 C12      8.7678  22.6547   1.8127   C.2       1 RES1   0.0000
    13 C13      9.6916  22.1495   0.9489   C.2       1 RES1   0.0000
    14 C14      9.7349  20.7448   0.6513   C.2       1 RES1   0.0000
    15 C15     10.7291  20.2435  -0.2565   C.2       1 RES1   0.0000
    16 C16     10.7630  18.9059  -0.5521   C.2       1 RES1   0.0000
    17 C17      9.8279  18.0106   0.0369   C.2       1 RES1   0.0000
    18 C18      8.8684  18.4967   0.9290   C.2       1 RES1   0.0000
    19 C19      8.8199  19.8613   1.2381   C.2       1 RES1   0.0000
    20 C20      4.8435  20.3618   1.4623   C.3       1 RES1   0.0000
    21 S21      3.8036  20.0788   0.0392   S.o2      1 RES1   0.0000
    22 O22      4.7060  19.9513  -1.0713   O.2       1 RES1   0.0000
    23 O23      2.8488  19.0426   0.2633   O.2       1 RES1   0.0000
    24 C24      2.8320  21.6277  -0.1806   C.3       1 RES1   0.0000
    25 C25      2.0328  21.7972   1.1343   C.3       1 RES1   0.0000
    26 C26      1.8765  21.4891  -1.3912   C.3       1 RES1   0.0000
    27 C27      3.7619  22.8613  -0.3054   C.3       1 RES1   0.0000
    28 C28      5.7569  14.9213   3.4430   C.2       1 RES1   0.0000
    29 O29      6.9328  14.7411   3.1701   O.2       1 RES1   0.0000
    30 N30      5.2325  14.6029   4.6828   N.am      1 RES1   0.0000
    31 C31      6.0371  14.0243   5.7728   C.3       1 RES1   0.0000
    32 C32      5.3739  12.6696   6.1481   C.3       1 RES1   0.0000
    33 O33      6.2633  12.0832   7.1676   O.3       1 RES1   0.0000
    34 C34      6.0185  15.0214   6.9563   C.3       1 RES1   0.0000
    35 C35      6.6396  16.3939   6.7989   C.2       1 RES1   0.0000
    36 C36      7.9801  16.6707   7.0898   C.2       1 RES1   0.0000
    37 C37      8.5586  17.9298   6.8851   C.2       1 RES1   0.0000
    38 C38      7.7613  18.9611   6.3753   C.2       1 RES1   0.0000
    39 C39      6.4303  18.7063   6.0536   C.2       1 RES1   0.0000
    40 C40      5.8715  17.4420   6.2639   C.2       1 RES1   0.0000
@<TRIPOS>BOND
     1     1     2    1
     2     2     3    1
     3     2     4    1
     4     4     5    1
     5     5     6   am
     6     6     7    2
     7     6     8    1
     8     8     9    1
     9     9    10    1
    10    10    11    2
    11    11    12    1
    12    12    13    2
    13    13    14    1
    14    14    15    2
    15    15    16    1
    16    16    17    2
    17    17    18    1
    18    18    19    2
    19     8    20    1
    20    20    21    1
    21    21    22    2
    22    21    23    2
    23    21    24    1
    24    24    25    1
    25    24    26    1
    26    24    27    1
    27     4    28    1
    28    28    29    2
    29    28    30   am
    30    30    31    1
    31    31    32    1
    32    32    33    1
    33    31    34    1
    34    34    35    1
    35    35    36    2
    36    36    37    1
    37    37    38    2
    38    38    39    1
    39    39    40    2
    40    19    10    1
    41    40    35    1
    42    19    14    1
@<TRIPOS>SUBSTRUCTURE
     1 RES1        1 GROUP             0 ****  ****    0  
@<TRIPOS>MOLECULE
ligand_30
    40    42     1     0     0
SMALL
NO_CHARGES
****
Generated from the CSD

@<TRIPOS>ATOM
     1 C1      10.7823  21.6723   8.3620   C.3       1 RES1   0.0000
     2 C2      10.1979  20.5331   7.5105   C.3       1 RES1   0.0000
     3 C3       9.0707  19.7613   8.2353   C.3       1 RES1   0.0000
     4 C4       9.5910  21.0701   6.1910   C.3       1 RES1   0.0000
     5 N5       9.1033  20.0107   5.2696   N.am      1 RES1   0.0000
     6 C6       7.7881  19.7571   5.0249   C.2       1 RES1   0.0000
     7 O7       6.8675  20.3962   5.5487   O.2       1 RES1   0.0000
     8 C8       7.5111  18.6693   3.9658   C.3       1 RES1   0.0000
     9 C9       6.8442  19.4161   2.7819   C.3       1 RES1   0.0000
    10 C10      7.8318  20.4320   2.1812   C.2       1 RES1   0.0000
    11 C11      7.7962  21.7636   2.4002   C.2       1 RES1   0.0000
    12 C12      8.7634  22.6349   1.7585   C.2       1 RES1   0.0000
    13 C13      9.7099  22.1140   0.9293   C.2       1 RES1   0.0000
    14 C14      9.7720  20.7019   0.6728   C.2       1 RES1   0.0000
    15 C15     10.7899  20.1845  -0.1989   C.2       1 RES1   0.0000
    16 C16     10.8418  18.8394  -0.4555   C.2       1 RES1   0.0000
    17 C17      9.9021  17.9524   0.1386   C.2       1 RES1   0.0000
    18 C18      8.9193  18.4546   0.9958   C.2       1 RES1   0.0000
    19 C19      8.8522  19.8269   1.2649   C.2       1 RES1   0.0000
    20 C20      6.5985  17.5211   4.5049   C.3       1 RES1   0.0000
    21 S21      7.5116  16.4619   5.6144   S.o2      1 RES1   0.0000
    22 O22      8.5144  15.8333   4.8002   O.2       1 RES1   0.0000
    23 O23      7.9242  17.1439   6.7976   O.2       1 RES1   0.0000
    24 C24      6.3181  15.1704   6.1611   C.3       1 RES1   0.0000
    25 C25      5.1734  15.9433   6.8602   C.3       1 RES1   0.0000
    26 C26      7.0052  14.1941   7.1473   C.3       1 RES1   0.0000
    27 C27      5.6913  14.4353   4.9490   C.3       1 RES1   0.0000
    28 C28     10.6324  21.8603   5.3097   C.2       1 RES1   0.0000
    29 O29     11.5743  21.3635   4.7133   O.2       1 RES1   0.0000
    30 N30     10.4178  23.2266   5.3377   N.am      1 RES1   0.0000
    31 C31     11.2987  24.1940   4.6607   C.3       1 RES1   0.0000
    32 C32     12.2093  24.8138   5.7573   C.3       1 RES1   0.0000
    33 O33     13.1349  25.6974   5.0247   O.3       1 RES1   0.0000
    34 C34     10.4021  25.2604   3.9868   C.3       1 RES1   0.0000
    35 C35      9.4826  26.1186   4.8309   C.2       1 RES1   0.0000
    36 C36      8.1646  25.7632   5.1386   C.2       1 RES1   0.0000
    37 C37      7.3423  26.5362   5.9682   C.2       1 RES1   0.0000
    38 C38      7.8556  27.7213   6.5078   C.2       1 RES1   0.0000
    39 C39      9.1726  28.0858   6.2380   C.2       1 RES1   0.0000
    40 C40      9.9782  27.2999   5.4085   C.2       1 RES1   0.0000
@<TRIPOS>BOND
     1     1     2    1
     2     2     3    1
     3     2     4    1
     4     4     5    1
     5     5     6   am
     6     6     7    2
     7     6     8    1
     8     8     9    1
     9     9    10    1
    10    10    11    2
    11    11    12    1
    12    12    13    2
    13    13    14    1
    14    14    15    2
    15    15    16    1
    16    16    17    2
    17    17    18    1
    18    18    19    2
    19     8    20    1
    20    20    21    1
    21    21    22    2
    22    21    23    2
    23    21    24    1
    24    24    25    1
    25    24    26    1
    26    24    27    1
    27     4    28    1
    28    28    29    2
    29    28    30   am
    30    30    31    1
    31    31    32    1
    32    32    33    1
    33    31    34    1
    34    34    35    1
    35    35    36    2
    36    36    37    1
    37    37    38    2
    38    38    39    1
    39    39    40    2
    40    19    10    1
    41    40    35    1
    42    19    14    1
@<TRIPOS>SUBSTRUCTURE
     1 RES1        1 GROUP             0 ****  ****    0  
@<TRIPOS>MOLECULE
ligand_31
    40    42     1     0     0
SMALL
NO_CHARGES
****
Generated from the CSD

@<TRIPOS>ATOM
     1 C1       3.7979  13.0593   1.7071   C.3       1 RES1   0.0000
     2 C2       4.3657  14.3637   1.1235   C.3       1 RES1   0.0000
     3 C3       3.5441  14.8906  -0.0759   C.3       1 RES1   0.0000
     4 C4       4.3820  15.4942   2.1816   C.3       1 RES1   0.0000
     5 N5       5.0061  16.7588   1.7119   N.am      1 RES1   0.0000
     6 C6       4.9232  17.9444   2.3762   C.2       1 RES1   0.0000
     7 O7       4.3138  18.0798   3.4442   O.2       1 RES1   0.0000
     8 C8       5.7269  19.1067   1.7558   C.3       1 RES1   0.0000
     9 C9       6.8410  19.4250   2.7860   C.3       1 RES1   0.0000
    10 C10      7.8250  20.4490   2.1930   C.2       1 RES1   0.0000
    11 C11      7.8061  21.7741   2.4498   C.2       1 RES1   0.0000
    12 C12      8.7675  22.6548   1.8123   C.2       1 RES1   0.0000
    13 C13      9.6917  22.1494   0.9490   C.2       1 RES1   0.0000
    14 C14      9.7354  20.7446   0.6518   C.2       1 RES1   0.0000
    15 C15     10.7300  20.2433  -0.2554   C.2       1 RES1   0.0000
    16 C16     10.7643  18.9056  -0.5506   C.2       1 RES1   0.0000
    17 C17      9.8292  18.0102   0.0384   C.2       1 RES1   0.0000
    18 C18      8.8693  18.4965   0.9300   C.2       1 RES1   0.0000
    19 C19      8.8204  19.8612   1.2387   C.2       1 RES1   0.0000
    20 C20      4.8435  20.3618   1.4623   C.3       1 RES1   0.0000
    21 S21      3.8036  20.0788   0.0392   S.o2      1 RES1   0.0000
    22 O22      4.7060  19.9513  -1.0713   O.2       1 RES1   0.0000
    23 O23      2.8488  19.0426   0.2633   O.2       1 RES1   0.0000
    24 C24      2.8320  21.6277  -0.1806   C.3       1 RES1   0.0000
    25 C25      2.0328  21.7972   1.1343   C.3       1 RES1   0.0000
    26 C26      1.8765  21.4891  -1.3912   C.3       1 RES1   0.0000
    27 C27      3.7619  22.8613  -0.3054   C.3       1 RES1   0.0000
    28 C28      5.2287  15.1299   3.4607   C.2       1 RES1   0.0000
    29 O29      6.4441  15.0242   3.4969   O.2       1 RES1   0.0000
    30 N30      4.4336  14.8563   4.5591   N.am      1 RES1   0.0000
    31 C31      4.9762  14.4178   5.8566   C.3       1 RES1   0.0000
    32 C32      4.7532  12.8818   5.9388   C.3       1 RES1   0.0000
    33 O33      5.3957  12.4738   7.2018   O.3       1 RES1   0.0000
    34 C34      4.2093  15.1711   6.9699   C.3       1 RES1   0.0000
    35 C35      2.7118  14.9924   7.1109   C.2       1 RES1   0.0000
    36 C36      1.7748  15.7984   6.4549   C.2       1 RES1   0.0000
    37 C37      0.3932  15.5873   6.5464   C.2       1 RES1   0.0000
    38 C38     -0.0745  14.5296   7.3350   C.2       1 RES1   0.0000
    39 C39      0.8373  13.6965   7.9788   C.2       1 RES1   0.0000
    40 C40      2.2130  13.9228   7.8738   C.2       1 RES1   0.0000
@<TRIPOS>BOND
     1     1     2    1
     2     2     3    1
     3     2     4    1
     4     4     5    1
     5     5     6   am
     6     6     7    2
     7     6     8    1
     8     8     9    1
     9     9    10    1
    10    10    11    2
    11    11    12    1
    12    12    13    2
    13    13    14    1
    14    14    15    2
    15    15    16    1
    16    16    17    2
    17    17    18    1
    18    18    19    2
    19     8    20    1
    20    20    21    1
    21    21    22    2
    22    21    23    2
    23    21    24    1
    24    24    25    1
    25    24    26    1
    26    24    27    1
    27     4    28    1
    28    28    29    2
    29    28    30   am
    30    30    31    1
    31    31    32    1
    32    32    33    1
    33    31    34    1
    34    34    35    1
    35    35    36    2
    36    36    37    1
    37    37    38    2
    38    38    39    1
    39    39    40    2
    40    19    10    1
    41    40    35    1
    42    19    14    1
@<TRIPOS>SUBSTRUCTURE
     1 RES1        1 GROUP             0 ****  ****    0  
@<TRIPOS>MOLECULE
ligand_32
    40    42     1     0     0
SMALL
NO_CHARGES
****
Generated from the CSD

@<TRIPOS>ATOM
     1 C1       2.6219  13.6852   1.8287   C.3       1 RES1   0.0000
     2 C2       3.1517  15.0483   1.3537   C.3       1 RES1   0.0000
     3 C3       2.1008  16.1758   1.4786   C.3       1 RES1   0.0000
     4 C4       4.3820  15.4942   2.1816   C.3       1 RES1   0.0000
     5 N5       5.0061  16.7588   1.7119   N.am      1 RES1   0.0000
     6 C6       4.9527  17.9363   2.3934   C.2       1 RES1   0.0000
     7 O7       4.3771  18.0623   3.4812   O.2       1 RES1   0.0000
     8 C8       5.7461  19.1006   1.7636   C.3       1 RES1   0.0000
     9 C9       6.8889  19.4024   2.7670   C.3       1 RES1   0.0000
    10 C10      7.8485  20.4462   2.1686   C.2       1 RES1   0.0000
    11 C11      7.8286  21.7652   2.4552   C.2       1 RES1   0.0000
    12 C12      8.7652  22.6665   1.8098   C.2       1 RES1   0.0000
    13 C13      9.6671  22.1868   0.9090   C.2       1 RES1   0.0000
    14 C14      9.7112  20.7893   0.5796   C.2       1 RES1   0.0000
    15 C15     10.6822  20.3151  -0.3670   C.2       1 RES1   0.0000
    16 C16     10.7165  18.9844  -0.6927   C.2       1 RES1   0.0000
    17 C17      9.8048  18.0698  -0.0969   C.2       1 RES1   0.0000
    18 C18      8.8681  18.5295   0.8328   C.2       1 RES1   0.0000
    19 C19      8.8194  19.8867   1.1730   C.2       1 RES1   0.0000
    20 C20      4.8622  20.3633   1.5064   C.3       1 RES1   0.0000
    21 S21      3.8465  20.1339   0.0564   S.o2      1 RES1   0.0000
    22 O22      3.5615  18.7266   0.0110   O.2       1 RES1   0.0000
    23 O23      2.7552  21.0516   0.0086   O.2       1 RES1   0.0000
    24 C24      4.9260  20.5513  -1.3760   C.3       1 RES1   0.0000
    25 C25      5.3774  22.0121  -1.1338   C.3       1 RES1   0.0000
    26 C26      4.1263  20.4345  -2.6969   C.3       1 RES1   0.0000
    27 C27      6.2073  19.6792  -1.3870   C.3       1 RES1   0.0000
    28 C28      5.5728  14.4627   2.1215   C.2       1 RES1   0.0000
    29 O29      5.9297  13.7415   3.0392   O.2       1 RES1   0.0000
    30 N30      6.2483  14.5066   0.9151   N.am      1 RES1   0.0000
    31 C31      7.4876  13.7528   0.6584   C.3       1 RES1   0.0000
    32 C32      8.6607  14.7652   0.7798   C.3       1 RES1   0.0000
    33 O33      9.8808  13.9456   0.6621   O.3       1 RES1   0.0000
    34 C34      7.3907  13.1522  -0.7647   C.3       1 RES1   0.0000
    35 C35      8.4440  12.1765  -1.2473   C.2       1 RES1   0.0000
    36 C36      9.6004  12.5675  -1.9315   C.2       1 RES1   0.0000
    37 C37     10.5959  11.6629  -2.3217   C.2       1 RES1   0.0000
    38 C38     10.4256  10.3060  -2.0233   C.2       1 RES1   0.0000
    39 C39      9.2959   9.8929  -1.3211   C.2       1 RES1   0.0000
    40 C40      8.3138  10.8117  -0.9389   C.2       1 RES1   0.0000
@<TRIPOS>BOND
     1     1     2    1
     2     2     3    1
     3     2     4    1
     4     4     5    1
     5     5     6   am
     6     6     7    2
     7     6     8    1
     8     8     9    1
     9     9    10    1
    10    10    11    2
    11    11    12    1
    12    12    13    2
    13    13    14    1
    14    14    15    2
    15    15    16    1
    16    16    17    2
    17    17    18    1
    18    18    19    2
    19     8    20    1
    20    20    21    1
    21    21    22    2
    22    21    23    2
    23    21    24    1
    24    24    25    1
    25    24    26    1
    26    24    27    1
    27     4    28    1
    28    28    29    2
    29    28    30   am
    30    30    31    1
    31    31    32    1
    32    32    33    1
    33    31    34    1
    34    34    35    1
    35    35    36    2
    36    36    37    1
    37    37    38    2
    38    38    39    1
    39    39    40    2
    40    19    10    1
    41    40    35    1
    42    19    14    1
@<TRIPOS>SUBSTRUCTURE
     1 RES1        1 GROUP             0 ****  ****    0  
@<TRIPOS>MOLECULE
ligand_33
    40    42     1     0     0
SMALL
NO_CHARGES
****
Generated from the CSD

@<TRIPOS>ATOM
     1 C1       9.8151  21.5511   8.8898   C.3       1 RES1   0.0000
     2 C2       9.1518  20.5455   7.9342   C.3       1 RES1   0.0000
     3 C3       7.6072  20.6086   7.9766   C.3       1 RES1   0.0000
     4 C4       9.5668  20.8061   6.4653   C.3       1 RES1   0.0000
     5 N5       9.0645  19.7920   5.5017   N.am      1 RES1   0.0000
     6 C6       7.8113  19.7987   4.9695   C.2       1 RES1   0.0000
     7 O7       6.9781  20.6802   5.2127   O.2       1 RES1   0.0000
     8 C8       7.5189  18.6737   3.9543   C.3       1 RES1   0.0000
     9 C9       6.9514  19.3932   2.7036   C.3       1 RES1   0.0000
    10 C10      8.0218  20.3220   2.1036   C.2       1 RES1   0.0000
    11 C11      8.0526  21.6628   2.2571   C.2       1 RES1   0.0000
    12 C12      9.0961  22.4463   1.6221   C.2       1 RES1   0.0000
    13 C13     10.0480  21.8334   0.8652   C.2       1 RES1   0.0000
    14 C14     10.0407  20.4089   0.6793   C.2       1 RES1   0.0000
    15 C15     11.0659  19.7933  -0.1168   C.2       1 RES1   0.0000
    16 C16     11.0524  18.4363  -0.3065   C.2       1 RES1   0.0000
    17 C17     10.0374  17.6331   0.2831   C.2       1 RES1   0.0000
    18 C18      9.0470  18.2309   1.0671   C.2       1 RES1   0.0000
    19 C19      9.0465  19.6166   1.2673   C.2       1 RES1   0.0000
    20 C20      6.5167  17.6091   4.5057   C.3       1 RES1   0.0000
    21 S21      7.3135  16.5629   5.7130   S.o2      1 RES1   0.0000
    22 O22      8.3148  15.8355   4.9836   O.2       1 RES1   0.0000
    23 O23      7.7096  17.2847   6.8782   O.2       1 RES1   0.0000
    24 C24      6.0222  15.3721   6.2661   C.3       1 RES1   0.0000
    25 C25      4.8933  16.2450   6.8662   C.3       1 RES1   0.0000
    26 C26      6.6043  14.4145   7.3349   C.3       1 RES1   0.0000
    27 C27      5.4109  14.6078   5.0643   C.3       1 RES1   0.0000
    28 C28     11.1278  20.7644   6.2487   C.2       1 RES1   0.0000
    29 O29     11.8343  21.7312   6.0117   O.2       1 RES1   0.0000
    30 N30     11.6301  19.4758   6.2770   N.am      1 RES1   0.0000
    31 C31     13.0331  19.1515   5.9664   C.3       1 RES1   0.0000
    32 C32     13.0530  18.5936   4.5158   C.3       1 RES1   0.0000
    33 O33     14.4800  18.3770   4.2139   O.3       1 RES1   0.0000
    34 C34     13.5150  18.0996   6.9942   C.3       1 RES1   0.0000
    35 C35     13.5909  18.4575   8.4640   C.2       1 RES1   0.0000
    36 C36     14.7305  19.0021   9.0664   C.2       1 RES1   0.0000
    37 C37     14.7702  19.3835  10.4135   C.2       1 RES1   0.0000
    38 C38     13.6239  19.2055  11.1967   C.2       1 RES1   0.0000
    39 C39     12.4680  18.6889  10.6162   C.2       1 RES1   0.0000
    40 C40     12.4478  18.3153   9.2690   C.2       1 RES1   0.0000
@<TRIPOS>BOND
     1     1     2    1
     2     2     3    1
     3     2     4    1
     4     4     5    1
     5     5     6   am
     6     6     7    2
     7     6     8    1
     8     8     9    1
     9     9    10    1
    10    10    11    2
    11    11    12    1
    12    12    13    2
    13    13    14    1
    14    14    15    2
    15    15    16    1
    16    16    17    2
    17    17    18    1
    18    18    19    2
    19     8    20    1
    20    20    21    1
    21    21    22    2
    22    21    23    2
    23    21    24    1
    24    24    25    1
    25    24    26    1
    26    24    27    1
    27     4    28    1
    28    28    29    2
    29    28    30   am
    30    30    31    1
    31    31    32    1
    32    32    33    1
    33    31    34    1
    34    34    35    1
    35    35    36    2
    36    36    37    1
    37    37    38    2
    38    38    39    1
    39    39    40    2
    40    19    10    1
    41    40    35    1
    42    19    14    1
@<TRIPOS>SUBSTRUCTURE
     1 RES1        1 GROUP             0 ****  ****    0  
@<TRIPOS>MOLECULE
ligand_34
    40    42     1     0     0
SMALL
NO_CHARGES
****
Generated from the CSD

@<TRIPOS>ATOM
     1 C1       3.7980  13.0593   1.7071   C.3       1 RES1   0.0000
     2 C2       4.3657  14.3637   1.1235   C.3       1 RES1   0.0000
     3 C3       3.5440  14.8906  -0.0759   C.3       1 RES1   0.0000
     4 C4       4.3820  15.4942   2.1816   C.3       1 RES1   0.0000
     5 N5       5.0061  16.7588   1.7119   N.am      1 RES1   0.0000
     6 C6       4.9183  17.9457   2.3732   C.2       1 RES1   0.0000
     7 O7       4.3231  18.0775   3.4496   O.2       1 RES1   0.0000
     8 C8       5.6983  19.1155   1.7370   C.3       1 RES1   0.0000
     9 C9       6.8232  19.4516   2.7497   C.3       1 RES1   0.0000
    10 C10      7.7820  20.4903   2.1411   C.2       1 RES1   0.0000
    11 C11      7.7469  21.8151   2.3980   C.2       1 RES1   0.0000
    12 C12      8.6846  22.7101   1.7453   C.2       1 RES1   0.0000
    13 C13      9.6027  22.2186   0.8677   C.2       1 RES1   0.0000
    14 C14      9.6633  20.8145   0.5701   C.2       1 RES1   0.0000
    15 C15     10.6511  20.3281  -0.3525   C.2       1 RES1   0.0000
    16 C16     10.7012  18.9909  -0.6479   C.2       1 RES1   0.0000
    17 C17      9.7893  18.0816  -0.0442   C.2       1 RES1   0.0000
    18 C18      8.8361  18.5535   0.8622   C.2       1 RES1   0.0000
    19 C19      8.7712  19.9174   1.1714   C.2       1 RES1   0.0000
    20 C20      4.7952  20.3585   1.4519   C.3       1 RES1   0.0000
    21 S21      3.8008  20.0907  -0.0063   S.o2      1 RES1   0.0000
    22 O22      3.5412  18.6781  -0.0350   O.2       1 RES1   0.0000
    23 O23      2.6941  20.9881  -0.0797   O.2       1 RES1   0.0000
    24 C24      4.8895  20.5073  -1.4320   C.3       1 RES1   0.0000
    25 C25      5.3124  21.9790  -1.2052   C.3       1 RES1   0.0000
    26 C26      4.1075  20.3580  -2.7601   C.3       1 RES1   0.0000
    27 C27      6.1859  19.6579  -1.4160   C.3       1 RES1   0.0000
    28 C28      5.2287  15.1299   3.4607   C.2       1 RES1   0.0000
    29 O29      4.7693  14.7787   4.5356   O.2       1 RES1   0.0000
    30 N30      6.5846  15.3255   3.2690   N.am      1 RES1   0.0000
    31 C31      7.5843  15.1331   4.3337   C.3       1 RES1   0.0000
    32 C32      8.5711  16.3305   4.2429   C.3       1 RES1   0.0000
    33 O33      9.4965  16.1442   5.3757   O.3       1 RES1   0.0000
    34 C34      8.2942  13.7817   4.0786   C.3       1 RES1   0.0000
    35 C35      7.5074  12.4892   4.1464   C.2       1 RES1   0.0000
    36 C36      7.3498  11.7441   5.3203   C.2       1 RES1   0.0000
    37 C37      6.5716  10.5814   5.3846   C.2       1 RES1   0.0000
    38 C38      5.9289  10.1376   4.2231   C.2       1 RES1   0.0000
    39 C39      6.0485  10.8740   3.0470   C.2       1 RES1   0.0000
    40 C40      6.8289  12.0333   3.0034   C.2       1 RES1   0.0000
@<TRIPOS>BOND
     1     1     2    1
     2     2     3    1
     3     2     4    1
     4     4     5    1
     5     5     6   am
     6     6     7    2
     7     6     8    1
     8     8     9    1
     9     9    10    1
    10    10    11    2
    11    11    12    1
    12    12    13    2
    13    13    14    1
    14    14    15    2
    15    15    16    1
    16    16    17    2
    17    17    18    1
    18    18    19    2
    19     8    20    1
    20    20    21    1
    21    21    22    2
    22    21    23    2
    23    21    24    1
    24    24    25    1
    25    24    26    1
    26    24    27    1
    27     4    28    1
    28    28    29    2
    29    28    30   am
    30    30    31    1
    31    31    32    1
    32    32    33    1
    33    31    34    1
    34    34    35    1
    35    35    36    2
    36    36    37    1
    37    37    38    2
    38    38    39    1
    39    39    40    2
    40    19    10    1
    41    40    35    1
    42    19    14    1
@<TRIPOS>SUBSTRUCTURE
     1 RES1        1 GROUP             0 ****  ****    0  
@<TRIPOS>MOLECULE
ligand_35
    40    42     1     0     0
SMALL
NO_CHARGES
****
Generated from the CSD

@<TRIPOS>ATOM
     1 C1      10.4316  21.3310   8.8045   C.3       1 RES1   0.0000
     2 C2       9.8216  20.2557   7.8901   C.3       1 RES1   0.0000
     3 C3       8.4649  19.7266   8.4105   C.3       1 RES1   0.0000
     4 C4       9.5668  20.8061   6.4653   C.3       1 RES1   0.0000
     5 N5       9.0645  19.7920   5.5017   N.am      1 RES1   0.0000
     6 C6       7.7984  19.7749   5.0013   C.2       1 RES1   0.0000
     7 O7       6.9397  20.6117   5.3057   O.2       1 RES1   0.0000
     8 C8       7.5214  18.6870   3.9423   C.3       1 RES1   0.0000
     9 C9       6.9502  19.4483   2.7183   C.3       1 RES1   0.0000
    10 C10      8.0053  20.4259   2.1711   C.2       1 RES1   0.0000
    11 C11      8.0215  21.7547   2.4087   C.2       1 RES1   0.0000
    12 C12      9.0512  22.5893   1.8176   C.2       1 RES1   0.0000
    13 C13     10.0047  22.0368   1.0173   C.2       1 RES1   0.0000
    14 C14     10.0127  20.6269   0.7420   C.2       1 RES1   0.0000
    15 C15     11.0391  20.0751  -0.0980   C.2       1 RES1   0.0000
    16 C16     11.0401  18.7326  -0.3728   C.2       1 RES1   0.0000
    17 C17     10.0388  17.8817   0.1716   C.2       1 RES1   0.0000
    18 C18      9.0473  18.4169   0.9982   C.2       1 RES1   0.0000
    19 C19      9.0320  19.7871   1.2853   C.2       1 RES1   0.0000
    20 C20      6.5291  17.5911   4.4484   C.3       1 RES1   0.0000
    21 S21      7.3507  16.4690   5.5676   S.o2      1 RES1   0.0000
    22 O22      8.3477  17.2596   6.2344   O.2       1 RES1   0.0000
    23 O23      6.4288  15.7243   6.3619   O.2       1 RES1   0.0000
    24 C24      8.2084  15.2405   4.4969   C.3       1 RES1   0.0000
    25 C25      7.0958  14.6195   3.6177   C.3       1 RES1   0.0000
    26 C26      8.8889  14.1573   5.3695   C.3       1 RES1   0.0000
    27 C27      9.2082  15.9334   3.5363   C.3       1 RES1   0.0000
    28 C28     10.8745  21.3454   5.7693   C.2       1 RES1   0.0000
    29 O29     11.1326  22.5207   5.5646   O.2       1 RES1   0.0000
    30 N30     11.6964  20.3242   5.3276   N.am      1 RES1   0.0000
    31 C31     12.9016  20.5561   4.5127   C.3       1 RES1   0.0000
    32 C32     12.5223  20.2129   3.0450   C.3       1 RES1   0.0000
    33 O33     13.7212  20.5514   2.2560   O.3       1 RES1   0.0000
    34 C34     14.0212  19.6319   5.0489   C.3       1 RES1   0.0000
    35 C35     14.5497  19.8215   6.4557   C.2       1 RES1   0.0000
    36 C36     15.6248  20.6609   6.7680   C.2       1 RES1   0.0000
    37 C37     16.0677  20.8738   8.0796   C.2       1 RES1   0.0000
    38 C38     15.4137  20.2124   9.1256   C.2       1 RES1   0.0000
    39 C39     14.3247  19.3906   8.8453   C.2       1 RES1   0.0000
    40 C40     13.8967  19.1921   7.5291   C.2       1 RES1   0.0000
@<TRIPOS>BOND
     1     1     2    1
     2     2     3    1
     3     2     4    1
     4     4     5    1
     5     5     6   am
     6     6     7    2
     7     6     8    1
     8     8     9    1
     9     9    10    1
    10    10    11    2
    11    11    12    1
    12    12    13    2
    13    13    14    1
    14    14    15    2
    15    15    16    1
    16    16    17    2
    17    17    18    1
    18    18    19    2
    19     8    20    1
    20    20    21    1
    21    21    22    2
    22    21    23    2
    23    21    24    1
    24    24    25    1
    25    24    26    1
    26    24    27    1
    27     4    28    1
    28    28    29    2
    29    28    30   am
    30    30    31    1
    31    31    32    1
    32    32    33    1
    33    31    34    1
    34    34    35    1
    35    35    36    2
    36    36    37    1
    37    37    38    2
    38    38    39    1
    39    39    40    2
    40    19    10    1
    41    40    35    1
    42    19    14    1
@<TRIPOS>SUBSTRUCTURE
     1 RES1        1 GROUP             0 ****  ****    0  
@<TRIPOS>MOLECULE
ligand_36
    40    42     1     0     0
SMALL
NO_CHARGES
****
Generated from the CSD

@<TRIPOS>ATOM
     1 C1      10.4313  21.3310   8.8045   C.3       1 RES1   0.0000
     2 C2       9.8216  20.2557   7.8901   C.3       1 RES1   0.0000
     3 C3       8.4650  19.7263   8.4103   C.3       1 RES1   0.0000
     4 C4       9.5668  20.8061   6.4653   C.3       1 RES1   0.0000
     5 N5       9.0645  19.7920   5.5017   N.am      1 RES1   0.0000
     6 C6       7.7995  19.7770   4.9984   C.2       1 RES1   0.0000
     7 O7       6.9417  20.6157   5.3004   O.2       1 RES1   0.0000
     8 C8       7.5227  18.6890   3.9395   C.3       1 RES1   0.0000
     9 C9       6.9004  19.4430   2.7361   C.3       1 RES1   0.0000
    10 C10      7.9195  20.4427   2.1612   C.2       1 RES1   0.0000
    11 C11      7.8994  21.7748   2.3789   C.2       1 RES1   0.0000
    12 C12      8.8968  22.6301   1.7627   C.2       1 RES1   0.0000
    13 C13      9.8564  22.0938   0.9587   C.2       1 RES1   0.0000
    14 C14      9.9026  20.6807   0.7042   C.2       1 RES1   0.0000
    15 C15     10.9347  20.1466  -0.1403   C.2       1 RES1   0.0000
    16 C16     10.9719  18.8006  -0.3952   C.2       1 RES1   0.0000
    17 C17     10.0029  17.9291   0.1743   C.2       1 RES1   0.0000
    18 C18      9.0061  18.4475   1.0053   C.2       1 RES1   0.0000
    19 C19      8.9538  19.8208   1.2722   C.2       1 RES1   0.0000
    20 C20      6.5724  17.5648   4.4637   C.3       1 RES1   0.0000
    21 S21      6.7729  16.0743   3.5020   S.o2      1 RES1   0.0000
    22 O22      6.2947  16.4029   2.1879   O.2       1 RES1   0.0000
    23 O23      8.0800  15.5176   3.6316   O.2       1 RES1   0.0000
    24 C24      5.6202  14.8457   4.2459   C.3       1 RES1   0.0000
    25 C25      6.0831  14.6903   5.7149   C.3       1 RES1   0.0000
    26 C26      5.7208  13.4971   3.4917   C.3       1 RES1   0.0000
    27 C27      4.1691  15.3889   4.2854   C.3       1 RES1   0.0000
    28 C28     10.8745  21.3454   5.7693   C.2       1 RES1   0.0000
    29 O29     11.1334  22.5208   5.5662   O.2       1 RES1   0.0000
    30 N30     11.6953  20.3243   5.3255   N.am      1 RES1   0.0000
    31 C31     12.8987  20.5562   4.5080   C.3       1 RES1   0.0000
    32 C32     12.5164  20.2127   3.0412   C.3       1 RES1   0.0000
    33 O33     13.7133  20.5518   2.2495   O.3       1 RES1   0.0000
    34 C34     14.0196  19.6321   5.0420   C.3       1 RES1   0.0000
    35 C35     14.5511  19.8221   6.4476   C.2       1 RES1   0.0000
    36 C36     15.6268  20.6616   6.7574   C.2       1 RES1   0.0000
    37 C37     16.0726  20.8748   8.0680   C.2       1 RES1   0.0000
    38 C38     15.4209  20.2136   9.1156   C.2       1 RES1   0.0000
    39 C39     14.3313  19.3917   8.8377   C.2       1 RES1   0.0000
    40 C40     13.9005  19.1929   7.5226   C.2       1 RES1   0.0000
@<TRIPOS>BOND
     1     1     2    1
     2     2     3    1
     3     2     4    1
     4     4     5    1
     5     5     6   am
     6     6     7    2
     7     6     8    1
     8     8     9    1
     9     9    10    1
    10    10    11    2
    11    11    12    1
    12    12    13    2
    13    13    14    1
    14    14    15    2
    15    15    16    1
    16    16    17    2
    17    17    18    1
    18    18    19    2
    19     8    20    1
    20    20    21    1
    21    21    22    2
    22    21    23    2
    23    21    24    1
    24    24    25    1
    25    24    26    1
    26    24    27    1
    27     4    28    1
    28    28    29    2
    29    28    30   am
    30    30    31    1
    31    31    32    1
    32    32    33    1
    33    31    34    1
    34    34    35    1
    35    35    36    2
    36    36    37    1
    37    37    38    2
    38    38    39    1
    39    39    40    2
    40    19    10    1
    41    40    35    1
    42    19    14    1
@<TRIPOS>SUBSTRUCTURE
     1 RES1        1 GROUP             0 ****  ****    0  
@<TRIPOS>MOLECULE
ligand_37
    40    42     1     0     0
SMALL
NO_CHARGES
****
Generated from the CSD

@<TRIPOS>ATOM
     1 C1       3.7979  13.0593   1.7071   C.3       1 RES1   0.0000
     2 C2       4.3657  14.3637   1.1235   C.3       1 RES1   0.0000
     3 C3       3.5441  14.8906  -0.0759   C.3       1 RES1   0.0000
     4 C4       4.3820  15.4942   2.1816   C.3       1 RES1   0.0000
     5 N5       5.0061  16.7588   1.7119   N.am      1 RES1   0.0000
     6 C6       4.9232  17.9444   2.3762   C.2       1 RES1   0.0000
     7 O7       4.3138  18.0798   3.4442   O.2       1 RES1   0.0000
     8 C8       5.7269  19.1067   1.7558   C.3       1 RES1   0.0000
     9 C9       6.8410  19.4250   2.7860   C.3       1 RES1   0.0000
    10 C10      7.8250  20.4490   2.1930   C.2       1 RES1   0.0000
    11 C11      7.8064  21.7740   2.4501   C.2       1 RES1   0.0000
    12 C12      8.7678  22.6547   1.8126   C.2       1 RES1   0.0000
    13 C13      9.6917  22.1494   0.9489   C.2       1 RES1   0.0000
    14 C14      9.7351  20.7446   0.6515   C.2       1 RES1   0.0000
    15 C15     10.7295  20.2433  -0.2561   C.2       1 RES1   0.0000
    16 C16     10.7635  18.9056  -0.5516   C.2       1 RES1   0.0000
    17 C17      9.8284  18.0104   0.0374   C.2       1 RES1   0.0000
    18 C18      8.8687  18.4966   0.9293   C.2       1 RES1   0.0000
    19 C19      8.8201  19.8612   1.2383   C.2       1 RES1   0.0000
    20 C20      4.8435  20.3618   1.4623   C.3       1 RES1   0.0000
    21 S21      3.8671  20.1117  -0.0111   S.o2      1 RES1   0.0000
    22 O22      3.5905  18.7026  -0.0488   O.2       1 RES1   0.0000
    23 O23      2.7728  21.0231  -0.0970   O.2       1 RES1   0.0000
    24 C24      4.9814  20.5198  -1.4193   C.3       1 RES1   0.0000
    25 C25      5.4188  21.9856  -1.1811   C.3       1 RES1   0.0000
    26 C26      4.2170  20.3846  -2.7592   C.3       1 RES1   0.0000
    27 C27      6.2670  19.6547  -1.3875   C.3       1 RES1   0.0000
    28 C28      5.2287  15.1299   3.4607   C.2       1 RES1   0.0000
    29 O29      4.7696  14.7720   4.5335   O.2       1 RES1   0.0000
    30 N30      6.5838  15.3340   3.2719   N.am      1 RES1   0.0000
    31 C31      7.5800  15.1686   4.3445   C.3       1 RES1   0.0000
    32 C32      7.9421  16.5955   4.8430   C.3       1 RES1   0.0000
    33 O33      8.8231  16.3775   6.0052   O.3       1 RES1   0.0000
    34 C34      8.8064  14.4403   3.7439   C.3       1 RES1   0.0000
    35 C35      9.9264  13.9718   4.6496   C.2       1 RES1   0.0000
    36 C36     11.0487  14.7506   4.9528   C.2       1 RES1   0.0000
    37 C37     12.0497  14.3303   5.8378   C.2       1 RES1   0.0000
    38 C38     11.9295  13.0728   6.4405   C.2       1 RES1   0.0000
    39 C39     10.8099  12.2876   6.1757   C.2       1 RES1   0.0000
    40 C40      9.8205  12.7255   5.2902   C.2       1 RES1   0.0000
@<TRIPOS>BOND
     1     1     2    1
     2     2     3    1
     3     2     4    1
     4     4     5    1
     5     5     6   am
     6     6     7    2
     7     6     8    1
     8     8     9    1
     9     9    10    1
    10    10    11    2
    11    11    12    1
    12    12    13    2
    13    13    14    1
    14    14    15    2
    15    15    16    1
    16    16    17    2
    17    17    18    1
    18    18    19    2
    19     8    20    1
    20    20    21    1
    21    21    22    2
    22    21    23    2
    23    21    24    1
    24    24    25    1
    25    24    26    1
    26    24    27    1
    27     4    28    1
    28    28    29    2
    29    28    30   am
    30    30    31    1
    31    31    32    1
    32    32    33    1
    33    31    34    1
    34    34    35    1
    35    35    36    2
    36    36    37    1
    37    37    38    2
    38    38    39    1
    39    39    40    2
    40    19    10    1
    41    40    35    1
    42    19    14    1
@<TRIPOS>SUBSTRUCTURE
     1 RES1        1 GROUP             0 ****  ****    0  
@<TRIPOS>MOLECULE
ligand_38
    40    42     1     0     0
SMALL
NO_CHARGES
****
Generated from the CSD

@<TRIPOS>ATOM
     1 C1       0.0749  17.6268   4.4117   C.3       1 RES1   0.0000
     2 C2       1.2093  18.6641   4.3744   C.3       1 RES1   0.0000
     3 C3       1.7839  18.9738   5.7763   C.3       1 RES1   0.0000
     4 C4       2.3944  18.1721   3.5075   C.3       1 RES1   0.0000
     5 N5       3.4877  19.1665   3.3502   N.am      1 RES1   0.0000
     6 C6       4.7207  19.0420   3.9142   C.2       1 RES1   0.0000
     7 O7       5.0485  18.0782   4.6170   O.2       1 RES1   0.0000
     8 C8       5.7322  20.1464   3.5413   C.3       1 RES1   0.0000
     9 C9       6.8269  19.4299   2.7093   C.3       1 RES1   0.0000
    10 C10      7.6822  20.4698   1.9639   C.2       1 RES1   0.0000
    11 C11      7.5286  21.8073   2.0625   C.2       1 RES1   0.0000
    12 C12      8.3755  22.6980   1.2907   C.2       1 RES1   0.0000
    13 C13      9.3275  22.1890   0.4604   C.2       1 RES1   0.0000
    14 C14      9.5134  20.7705   0.3304   C.2       1 RES1   0.0000
    15 C15     10.5340  20.2674  -0.5465   C.2       1 RES1   0.0000
    16 C16     10.7033  18.9143  -0.6822   C.2       1 RES1   0.0000
    17 C17      9.8829  18.0060   0.0421   C.2       1 RES1   0.0000
    18 C18      8.8980  18.4959   0.9040   C.2       1 RES1   0.0000
    19 C19      8.7116  19.8757   1.0505   C.2       1 RES1   0.0000
    20 C20      6.3389  20.8567   4.7940   C.3       1 RES1   0.0000
    21 S21      5.1448  21.9614   5.5290   S.o2      1 RES1   0.0000
    22 O22      4.9245  22.9889   4.5495   O.2       1 RES1   0.0000
    23 O23      4.0143  21.2664   6.0530   O.2       1 RES1   0.0000
    24 C24      5.9944  22.7168   6.9777   C.3       1 RES1   0.0000
    25 C25      6.3703  21.5278   7.8950   C.3       1 RES1   0.0000
    26 C26      5.0380  23.6927   7.7062   C.3       1 RES1   0.0000
    27 C27      7.3211  23.3995   6.5579   C.3       1 RES1   0.0000
    28 C28      1.9806  17.8555   2.0195   C.2       1 RES1   0.0000
    29 O29      1.8949  16.7398   1.5321   O.2       1 RES1   0.0000
    30 N30      1.7912  19.0023   1.2694   N.am      1 RES1   0.0000
    31 C31      1.5522  18.9832  -0.1841   C.3       1 RES1   0.0000
    32 C32      2.8979  19.3606  -0.8640   C.3       1 RES1   0.0000
    33 O33      2.6394  19.2331  -2.3101   O.3       1 RES1   0.0000
    34 C34      0.4411  20.0148  -0.4951   C.3       1 RES1   0.0000
    35 C35     -0.9547  19.8131   0.0575   C.2       1 RES1   0.0000
    36 C36     -1.9563  19.1076  -0.6186   C.2       1 RES1   0.0000
    37 C37     -3.2253  18.8773  -0.0725   C.2       1 RES1   0.0000
    38 C38     -3.5103  19.3810   1.2019   C.2       1 RES1   0.0000
    39 C39     -2.5233  20.0652   1.9074   C.2       1 RES1   0.0000
    40 C40     -1.2618  20.2837   1.3455   C.2       1 RES1   0.0000
@<TRIPOS>BOND
     1     1     2    1
     2     2     3    1
     3     2     4    1
     4     4     5    1
     5     5     6   am
     6     6     7    2
     7     6     8    1
     8     8     9    1
     9     9    10    1
    10    10    11    2
    11    11    12    1
    12    12    13    2
    13    13    14    1
    14    14    15    2
    15    15    16    1
    16    16    17    2
    17    17    18    1
    18    18    19    2
    19     8    20    1
    20    20    21    1
    21    21    22    2
    22    21    23    2
    23    21    24    1
    24    24    25    1
    25    24    26    1
    26    24    27    1
    27     4    28    1
    28    28    29    2
    29    28    30   am
    30    30    31    1
    31    31    32    1
    32    32    33    1
    33    31    34    1
    34    34    35    1
    35    35    36    2
    36    36    37    1
    37    37    38    2
    38    38    39    1
    39    39    40    2
    40    19    10    1
    41    40    35    1
    42    19    14    1
@<TRIPOS>SUBSTRUCTURE
     1 RES1        1 GROUP             0 ****  ****    0  
@<TRIPOS>MOLECULE
ligand_39
    40    42     1     0     0
SMALL
NO_CHARGES
****
Generated from the CSD

@<TRIPOS>ATOM
     1 C1       9.8165  22.4114   8.5457   C.3       1 RES1   0.0000
     2 C2       9.8576  21.3310   7.4524   C.3       1 RES1   0.0000
     3 C3      10.3577  19.9655   7.9784   C.3       1 RES1   0.0000
     4 C4       8.4528  21.0867   6.8485   C.3       1 RES1   0.0000
     5 N5       8.4350  20.1203   5.7195   N.am      1 RES1   0.0000
     6 C6       7.3012  19.5789   5.1949   C.2       1 RES1   0.0000
     7 O7       6.1682  19.8448   5.6146   O.2       1 RES1   0.0000
     8 C8       7.5105  18.6716   3.9642   C.3       1 RES1   0.0000
     9 C9       6.8410  19.4250   2.7860   C.3       1 RES1   0.0000
    10 C10      7.8250  20.4490   2.1930   C.2       1 RES1   0.0000
    11 C11      7.7860  21.7784   2.4239   C.2       1 RES1   0.0000
    12 C12      8.7499  22.6581   1.7887   C.2       1 RES1   0.0000
    13 C13      9.6968  22.1472   0.9537   C.2       1 RES1   0.0000
    14 C14      9.7624  20.7377   0.6845   C.2       1 RES1   0.0000
    15 C15     10.7806  20.2308  -0.1930   C.2       1 RES1   0.0000
    16 C16     10.8359  18.8882  -0.4617   C.2       1 RES1   0.0000
    17 C17      9.8994  17.9934   0.1258   C.2       1 RES1   0.0000
    18 C18      8.9164  18.4852   0.9887   C.2       1 RES1   0.0000
    19 C19      8.8459  19.8549   1.2701   C.2       1 RES1   0.0000
    20 C20      6.8979  17.2467   4.1540   C.3       1 RES1   0.0000
    21 S21      7.8991  16.2763   5.2688   S.o2      1 RES1   0.0000
    22 O22      9.1516  16.0903   4.5903   O.2       1 RES1   0.0000
    23 O23      7.9137  16.8130   6.5905   O.2       1 RES1   0.0000
    24 C24      7.0605  14.6414   5.3923   C.3       1 RES1   0.0000
    25 C25      5.6497  14.9484   5.9506   C.3       1 RES1   0.0000
    26 C26      7.8428  13.7135   6.3541   C.3       1 RES1   0.0000
    27 C27      6.8632  14.0039   3.9934   C.3       1 RES1   0.0000
    28 C28      7.8176  22.3852   6.2191   C.2       1 RES1   0.0000
    29 O29      8.2026  22.9381   5.2014   O.2       1 RES1   0.0000
    30 N30      6.7960  22.9022   6.9955   N.am      1 RES1   0.0000
    31 C31      6.0891  24.1523   6.6675   C.3       1 RES1   0.0000
    32 C32      6.6765  25.2546   7.5925   C.3       1 RES1   0.0000
    33 O33      6.0144  26.5003   7.1633   O.3       1 RES1   0.0000
    34 C34      4.5805  23.9260   6.9282   C.3       1 RES1   0.0000
    35 C35      3.8159  22.9061   6.1099   C.2       1 RES1   0.0000
    36 C36      3.1676  23.2124   4.9082   C.2       1 RES1   0.0000
    37 C37      2.5131  22.2492   4.1300   C.2       1 RES1   0.0000
    38 C38      2.4976  20.9223   4.5755   C.2       1 RES1   0.0000
    39 C39      3.1566  20.5854   5.7554   C.2       1 RES1   0.0000
    40 C40      3.8057  21.5614   6.5176   C.2       1 RES1   0.0000
@<TRIPOS>BOND
     1     1     2    1
     2     2     3    1
     3     2     4    1
     4     4     5    1
     5     5     6   am
     6     6     7    2
     7     6     8    1
     8     8     9    1
     9     9    10    1
    10    10    11    2
    11    11    12    1
    12    12    13    2
    13    13    14    1
    14    14    15    2
    15    15    16    1
    16    16    17    2
    17    17    18    1
    18    18    19    2
    19     8    20    1
    20    20    21    1
    21    21    22    2
    22    21    23    2
    23    21    24    1
    24    24    25    1
    25    24    26    1
    26    24    27    1
    27     4    28    1
    28    28    29    2
    29    28    30   am
    30    30    31    1
    31    31    32    1
    32    32    33    1
    33    31    34    1
    34    34    35    1
    35    35    36    2
    36    36    37    1
    37    37    38    2
    38    38    39    1
    39    39    40    2
    40    19    10    1
    41    40    35    1
    42    19    14    1
@<TRIPOS>SUBSTRUCTURE
     1 RES1        1 GROUP             0 ****  ****    0  
@<TRIPOS>MOLECULE
ligand_40
    40    42     1     0     0
SMALL
NO_CHARGES
****
Generated from the CSD

@<TRIPOS>ATOM
     1 C1       2.6995  17.3469   8.2806   C.3       1 RES1   0.0000
     2 C2       4.0271  17.9089   7.7459   C.3       1 RES1   0.0000
     3 C3       5.1903  16.8949   7.8465   C.3       1 RES1   0.0000
     4 C4       3.9110  18.3049   6.2535   C.3       1 RES1   0.0000
     5 N5       5.1305  18.9471   5.6972   N.am      1 RES1   0.0000
     6 C6       5.9541  18.3612   4.7849   C.2       1 RES1   0.0000
     7 O7       5.7606  17.2274   4.3294   O.2       1 RES1   0.0000
     8 C8       7.1101  19.2468   4.2739   C.3       1 RES1   0.0000
     9 C9       6.8009  19.4923   2.7745   C.3       1 RES1   0.0000
    10 C10      7.7903  20.5204   2.1978   C.2       1 RES1   0.0000
    11 C11      7.7178  21.8539   2.3942   C.2       1 RES1   0.0000
    12 C12      8.6914  22.7364   1.7780   C.2       1 RES1   0.0000
    13 C13      9.6814  22.2239   0.9955   C.2       1 RES1   0.0000
    14 C14      9.7834  20.8098   0.7639   C.2       1 RES1   0.0000
    15 C15     10.8463  20.3017  -0.0581   C.2       1 RES1   0.0000
    16 C16     10.9369  18.9544  -0.2913   C.2       1 RES1   0.0000
    17 C17      9.9929  18.0561   0.2787   C.2       1 RES1   0.0000
    18 C18      8.9660  18.5496   1.0880   C.2       1 RES1   0.0000
    19 C19      8.8593  19.9240   1.3326   C.2       1 RES1   0.0000
    20 C20      8.5107  18.5817   4.4678   C.3       1 RES1   0.0000
    21 S21      8.9934  18.6240   6.1859   S.o2      1 RES1   0.0000
    22 O22      9.1605  20.0160   6.4993   O.2       1 RES1   0.0000
    23 O23      8.1331  17.8389   7.0099   O.2       1 RES1   0.0000
    24 C24     10.6454  17.8134   6.2568   C.3       1 RES1   0.0000
    25 C25     10.4182  16.3783   5.7226   C.3       1 RES1   0.0000
    26 C26     11.1605  17.7819   7.7167   C.3       1 RES1   0.0000
    27 C27     11.6493  18.4988   5.2952   C.3       1 RES1   0.0000
    28 C28      2.7869  19.3774   5.9855   C.2       1 RES1   0.0000
    29 O29      1.7227  19.1613   5.4282   O.2       1 RES1   0.0000
    30 N30      3.1631  20.6470   6.3857   N.am      1 RES1   0.0000
    31 C31      2.3599  21.8500   6.1069   C.3       1 RES1   0.0000
    32 C32      3.0346  22.5704   4.9063   C.3       1 RES1   0.0000
    33 O33      2.1471  23.7077   4.6008   O.3       1 RES1   0.0000
    34 C34      2.3641  22.7283   7.3813   C.3       1 RES1   0.0000
    35 C35      1.7302  22.2135   8.6569   C.2       1 RES1   0.0000
    36 C36      0.3860  22.4196   8.9866   C.2       1 RES1   0.0000
    37 C37     -0.2041  21.8891  10.1409   C.2       1 RES1   0.0000
    38 C38      0.5850  21.1260  11.0093   C.2       1 RES1   0.0000
    39 C39      1.9196  20.8844  10.6926   C.2       1 RES1   0.0000
    40 C40      2.4900  21.4216   9.5346   C.2       1 RES1   0.0000
@<TRIPOS>BOND
     1     1     2    1
     2     2     3    1
     3     2     4    1
     4     4     5    1
     5     5     6   am
     6     6     7    2
     7     6     8    1
     8     8     9    1
     9     9    10    1
    10    10    11    2
    11    11    12    1
    12    12    13    2
    13    13    14    1
    14    14    15    2
    15    15    16    1
    16    16    17    2
    17    17    18    1
    18    18    19    2
    19     8    20    1
    20    20    21    1
    21    21    22    2
    22    21    23    2
    23    21    24    1
    24    24    25    1
    25    24    26    1
    26    24    27    1
    27     4    28    1
    28    28    29    2
    29    28    30   am
    30    30    31    1
    31    31    32    1
    32    32    33    1
    33    31    34    1
    34    34    35    1
    35    35    36    2
    36    36    37    1
    37    37    38    2
    38    38    39    1
    39    39    40    2
    40    19    10    1
    41    40    35    1
    42    19    14    1
@<TRIPOS>SUBSTRUCTURE
     1 RES1        1 GROUP             0 ****  ****    0  
@<TRIPOS>MOLECULE
ligand_41
    40    42     1     0     0
SMALL
NO_CHARGES
****
Generated from the CSD

@<TRIPOS>ATOM
     1 C1       2.6227  13.6846   1.8279   C.3       1 RES1   0.0000
     2 C2       3.1517  15.0483   1.3537   C.3       1 RES1   0.0000
     3 C3       2.1002  16.1752   1.4797   C.3       1 RES1   0.0000
     4 C4       4.3820  15.4942   2.1816   C.3       1 RES1   0.0000
     5 N5       5.0061  16.7588   1.7119   N.am      1 RES1   0.0000
     6 C6       4.9044  17.9494   2.3645   C.2       1 RES1   0.0000
     7 O7       4.2915  18.0859   3.4305   O.2       1 RES1   0.0000
     8 C8       5.6911  19.1177   1.7338   C.3       1 RES1   0.0000
     9 C9       6.7898  19.4724   2.7687   C.3       1 RES1   0.0000
    10 C10      7.7577  20.5084   2.1699   C.2       1 RES1   0.0000
    11 C11      7.7115  21.8358   2.4110   C.2       1 RES1   0.0000
    12 C12      8.6598  22.7275   1.7692   C.2       1 RES1   0.0000
    13 C13      9.5992  22.2302   0.9178   C.2       1 RES1   0.0000
    14 C14      9.6721  20.8231   0.6375   C.2       1 RES1   0.0000
    15 C15     10.6822  20.3307  -0.2574   C.2       1 RES1   0.0000
    16 C16     10.7443  18.9905  -0.5366   C.2       1 RES1   0.0000
    17 C17      9.8229  18.0841   0.0569   C.2       1 RES1   0.0000
    18 C18      8.8478  18.5620   0.9366   C.2       1 RES1   0.0000
    19 C19      8.7705  19.9290   1.2289   C.2       1 RES1   0.0000
    20 C20      4.7865  20.3511   1.4142   C.3       1 RES1   0.0000
    21 S21      3.8314  20.0625  -0.0660   S.o2      1 RES1   0.0000
    22 O22      3.5835  18.6477  -0.0883   O.2       1 RES1   0.0000
    23 O23      2.7201  20.9504  -0.1755   O.2       1 RES1   0.0000
    24 C24      4.9526  20.4749  -1.4676   C.3       1 RES1   0.0000
    25 C25      5.3579  21.9521  -1.2440   C.3       1 RES1   0.0000
    26 C26      4.2057  20.3070  -2.8136   C.3       1 RES1   0.0000
    27 C27      6.2549  19.6363  -1.4108   C.3       1 RES1   0.0000
    28 C28      5.5728  14.4627   2.1215   C.2       1 RES1   0.0000
    29 O29      6.2789  14.2546   1.1479   O.2       1 RES1   0.0000
    30 N30      5.6993  13.7345   3.2908   N.am      1 RES1   0.0000
    31 C31      6.6428  12.6134   3.4431   C.3       1 RES1   0.0000
    32 C32      5.8697  11.4723   4.1614   C.3       1 RES1   0.0000
    33 O33      6.8169  10.3430   4.2041   O.3       1 RES1   0.0000
    34 C34      7.8419  13.1141   4.2838   C.3       1 RES1   0.0000
    35 C35      8.7582  14.1860   3.7311   C.2       1 RES1   0.0000
    36 C36      9.8880  13.9078   2.9538   C.2       1 RES1   0.0000
    37 C37     10.6951  14.9092   2.3991   C.2       1 RES1   0.0000
    38 C38     10.3647  16.2482   2.6382   C.2       1 RES1   0.0000
    39 C39      9.2311  16.5534   3.3876   C.2       1 RES1   0.0000
    40 C40      8.4371  15.5394   3.9317   C.2       1 RES1   0.0000
@<TRIPOS>BOND
     1     1     2    1
     2     2     3    1
     3     2     4    1
     4     4     5    1
     5     5     6   am
     6     6     7    2
     7     6     8    1
     8     8     9    1
     9     9    10    1
    10    10    11    2
    11    11    12    1
    12    12    13    2
    13    13    14    1
    14    14    15    2
    15    15    16    1
    16    16    17    2
    17    17    18    1
    18    18    19    2
    19     8    20    1
    20    20    21    1
    21    21    22    2
    22    21    23    2
    23    21    24    1
    24    24    25    1
    25    24    26    1
    26    24    27    1
    27     4    28    1
    28    28    29    2
    29    28    30   am
    30    30    31    1
    31    31    32    1
    32    32    33    1
    33    31    34    1
    34    34    35    1
    35    35    36    2
    36    36    37    1
    37    37    38    2
    38    38    39    1
    39    39    40    2
    40    19    10    1
    41    40    35    1
    42    19    14    1
@<TRIPOS>SUBSTRUCTURE
     1 RES1        1 GROUP             0 ****  ****    0  
@<TRIPOS>MOLECULE
ligand_42
    40    42     1     0     0
SMALL
NO_CHARGES
****
Generated from the CSD

@<TRIPOS>ATOM
     1 C1       2.6132  13.6920   1.8381   C.3       1 RES1   0.0000
     2 C2       3.1517  15.0483   1.3537   C.3       1 RES1   0.0000
     3 C3       2.1065  16.1824   1.4665   C.3       1 RES1   0.0000
     4 C4       4.3820  15.4942   2.1816   C.3       1 RES1   0.0000
     5 N5       5.0061  16.7588   1.7119   N.am      1 RES1   0.0000
     6 C6       5.0808  17.8964   2.4563   C.2       1 RES1   0.0000
     7 O7       4.6541  17.9756   3.6147   O.2       1 RES1   0.0000
     8 C8       5.8263  19.0729   1.7916   C.3       1 RES1   0.0000
     9 C9       7.1069  19.2742   2.6422   C.3       1 RES1   0.0000
    10 C10      8.0073  20.3376   1.9888   C.2       1 RES1   0.0000
    11 C11      8.0768  21.6299   2.3725   C.2       1 RES1   0.0000
    12 C12      8.9425  22.5557   1.6655   C.2       1 RES1   0.0000
    13 C13      9.6868  22.1261   0.6090   C.2       1 RES1   0.0000
    14 C14      9.6323  20.7582   0.1736   C.2       1 RES1   0.0000
    15 C15     10.4386  20.3360  -0.9378   C.2       1 RES1   0.0000
    16 C16     10.3772  19.0348  -1.3630   C.2       1 RES1   0.0000
    17 C17      9.5285  18.0990  -0.7096   C.2       1 RES1   0.0000
    18 C18      8.7532  18.5073   0.3790   C.2       1 RES1   0.0000
    19 C19      8.8034  19.8342   0.8227   C.2       1 RES1   0.0000
    20 C20      4.9667  20.3765   1.7344   C.3       1 RES1   0.0000
    21 S21      3.7525  20.2711   0.4301   S.o2      1 RES1   0.0000
    22 O22      3.4077  18.8792   0.3436   O.2       1 RES1   0.0000
    23 O23      2.7027  21.2241   0.5888   O.2       1 RES1   0.0000
    24 C24      4.6400  20.7436  -1.1128   C.3       1 RES1   0.0000
    25 C25      5.1788  22.1712  -0.8518   C.3       1 RES1   0.0000
    26 C26      3.6618  20.7356  -2.3131   C.3       1 RES1   0.0000
    27 C27      5.8715  19.8338  -1.3536   C.3       1 RES1   0.0000
    28 C28      5.5728  14.4627   2.1215   C.2       1 RES1   0.0000
    29 O29      5.5086  13.2895   2.4522   O.2       1 RES1   0.0000
    30 N30      6.7587  15.0491   1.7175   N.am      1 RES1   0.0000
    31 C31      8.0177  14.2990   1.5675   C.3       1 RES1   0.0000
    32 C32      8.8747  14.6062   2.8272   C.3       1 RES1   0.0000
    33 O33     10.0752  13.7624   2.6824   O.3       1 RES1   0.0000
    34 C34      8.7071  14.7850   0.2699   C.3       1 RES1   0.0000
    35 C35      8.0411  14.5578  -1.0714   C.2       1 RES1   0.0000
    36 C36      8.2470  13.4132  -1.8496   C.2       1 RES1   0.0000
    37 C37      7.5811  13.1869  -3.0608   C.2       1 RES1   0.0000
    38 C38      6.6753  14.1501  -3.5202   C.2       1 RES1   0.0000
    39 C39      6.4327  15.2870  -2.7529   C.2       1 RES1   0.0000
    40 C40      7.1066  15.4941  -1.5456   C.2       1 RES1   0.0000
@<TRIPOS>BOND
     1     1     2    1
     2     2     3    1
     3     2     4    1
     4     4     5    1
     5     5     6   am
     6     6     7    2
     7     6     8    1
     8     8     9    1
     9     9    10    1
    10    10    11    2
    11    11    12    1
    12    12    13    2
    13    13    14    1
    14    14    15    2
    15    15    16    1
    16    16    17    2
    17    17    18    1
    18    18    19    2
    19     8    20    1
    20    20    21    1
    21    21    22    2
    22    21    23    2
    23    21    24    1
    24    24    25    1
    25    24    26    1
    26    24    27    1
    27     4    28    1
    28    28    29    2
    29    28    30   am
    30    30    31    1
    31    31    32    1
    32    32    33    1
    33    31    34    1
    34    34    35    1
    35    35    36    2
    36    36    37    1
    37    37    38    2
    38    38    39    1
    39    39    40    2
    40    19    10    1
    41    40    35    1
    42    19    14    1
@<TRIPOS>SUBSTRUCTURE
     1 RES1        1 GROUP             0 ****  ****    0  
@<TRIPOS>MOLECULE
ligand_43
    40    42     1     0     0
SMALL
NO_CHARGES
****
Generated from the CSD

@<TRIPOS>ATOM
     1 C1       2.6201  13.6866   1.8306   C.3       1 RES1   0.0000
     2 C2       3.1517  15.0483   1.3537   C.3       1 RES1   0.0000
     3 C3       2.1019  16.1772   1.4762   C.3       1 RES1   0.0000
     4 C4       4.3820  15.4942   2.1816   C.3       1 RES1   0.0000
     5 N5       5.0061  16.7588   1.7119   N.am      1 RES1   0.0000
     6 C6       4.9230  17.9444   2.3760   C.2       1 RES1   0.0000
     7 O7       4.3129  18.0801   3.4436   O.2       1 RES1   0.0000
     8 C8       5.7273  19.1065   1.7561   C.3       1 RES1   0.0000
     9 C9       6.8408  19.4248   2.7871   C.3       1 RES1   0.0000
    10 C10      7.8254  20.4485   2.1947   C.2       1 RES1   0.0000
    11 C11      7.8068  21.7736   2.4516   C.2       1 RES1   0.0000
    12 C12      8.7688  22.6541   1.8147   C.2       1 RES1   0.0000
    13 C13      9.6932  22.1485   0.9518   C.2       1 RES1   0.0000
    14 C14      9.7367  20.7437   0.6546   C.2       1 RES1   0.0000
    15 C15     10.7317  20.2421  -0.2521   C.2       1 RES1   0.0000
    16 C16     10.7658  18.9044  -0.5473   C.2       1 RES1   0.0000
    17 C17      9.8301  18.0093   0.0411   C.2       1 RES1   0.0000
    18 C18      8.8698  18.4958   0.9322   C.2       1 RES1   0.0000
    19 C19      8.8211  19.8605   1.2409   C.2       1 RES1   0.0000
    20 C20      4.8444  20.3618   1.4619   C.3       1 RES1   0.0000
    21 S21      3.8696  20.1120  -0.0126   S.o2      1 RES1   0.0000
    22 O22      3.5928  18.7029  -0.0508   O.2       1 RES1   0.0000
    23 O23      2.7755  21.0235  -0.0996   O.2       1 RES1   0.0000
    24 C24      4.9855  20.5201  -1.4195   C.3       1 RES1   0.0000
    25 C25      5.4230  21.9857  -1.1806   C.3       1 RES1   0.0000
    26 C26      4.2225  20.3854  -2.7602   C.3       1 RES1   0.0000
    27 C27      6.2708  19.6546  -1.3866   C.3       1 RES1   0.0000
    28 C28      5.5728  14.4627   2.1215   C.2       1 RES1   0.0000
    29 O29      6.2641  14.2380   1.1410   O.2       1 RES1   0.0000
    30 N30      5.7179  13.7554   3.3014   N.am      1 RES1   0.0000
    31 C31      6.7086  12.6796   3.4786   C.3       1 RES1   0.0000
    32 C32      5.9379  11.3359   3.3510   C.3       1 RES1   0.0000
    33 O33      6.9828  10.2961   3.3876   O.3       1 RES1   0.0000
    34 C34      7.3447  12.8473   4.8795   C.3       1 RES1   0.0000
    35 C35      8.5272  11.9901   5.2809   C.2       1 RES1   0.0000
    36 C36      8.3998  10.7588   5.9334   C.2       1 RES1   0.0000
    37 C37      9.4972   9.9473   6.2476   C.2       1 RES1   0.0000
    38 C38     10.7801  10.3884   5.9029   C.2       1 RES1   0.0000
    39 C39     10.9335  11.5984   5.2304   C.2       1 RES1   0.0000
    40 C40      9.8251  12.3938   4.9243   C.2       1 RES1   0.0000
@<TRIPOS>BOND
     1     1     2    1
     2     2     3    1
     3     2     4    1
     4     4     5    1
     5     5     6   am
     6     6     7    2
     7     6     8    1
     8     8     9    1
     9     9    10    1
    10    10    11    2
    11    11    12    1
    12    12    13    2
    13    13    14    1
    14    14    15    2
    15    15    16    1
    16    16    17    2
    17    17    18    1
    18    18    19    2
    19     8    20    1
    20    20    21    1
    21    21    22    2
    22    21    23    2
    23    21    24    1
    24    24    25    1
    25    24    26    1
    26    24    27    1
    27     4    28    1
    28    28    29    2
    29    28    30   am
    30    30    31    1
    31    31    32    1
    32    32    33    1
    33    31    34    1
    34    34    35    1
    35    35    36    2
    36    36    37    1
    37    37    38    2
    38    38    39    1
    39    39    40    2
    40    19    10    1
    41    40    35    1
    42    19    14    1
@<TRIPOS>SUBSTRUCTURE
     1 RES1        1 GROUP             0 ****  ****    0  
@<TRIPOS>MOLECULE
ligand_44
    40    42     1     0     0
SMALL
NO_CHARGES
****
Generated from the CSD

@<TRIPOS>ATOM
     1 C1      -0.0366  17.5383   3.0787   C.3       1 RES1   0.0000
     2 C2       1.0211  18.6495   2.9745   C.3       1 RES1   0.0000
     3 C3       0.6453  19.9119   3.7847   C.3       1 RES1   0.0000
     4 C4       2.3944  18.1721   3.5075   C.3       1 RES1   0.0000
     5 N5       3.4877  19.1665   3.3502   N.am      1 RES1   0.0000
     6 C6       4.7065  19.0631   3.9483   C.2       1 RES1   0.0000
     7 O7       5.0196  18.1210   4.6864   O.2       1 RES1   0.0000
     8 C8       5.7234  20.1604   3.5696   C.3       1 RES1   0.0000
     9 C9       6.8410  19.4250   2.7860   C.3       1 RES1   0.0000
    10 C10      7.7115  20.4468   2.0332   C.2       1 RES1   0.0000
    11 C11      7.5515  21.7859   2.0903   C.2       1 RES1   0.0000
    12 C12      8.4148  22.6578   1.3151   C.2       1 RES1   0.0000
    13 C13      9.3886  22.1293   0.5232   C.2       1 RES1   0.0000
    14 C14      9.5818  20.7083   0.4377   C.2       1 RES1   0.0000
    15 C15     10.6254  20.1846  -0.3992   C.2       1 RES1   0.0000
    16 C16     10.8021  18.8289  -0.4926   C.2       1 RES1   0.0000
    17 C17      9.9666  17.9382   0.2364   C.2       1 RES1   0.0000
    18 C18      8.9591  18.4484   1.0595   C.2       1 RES1   0.0000
    19 C19      8.7650  19.8311   1.1626   C.2       1 RES1   0.0000
    20 C20      6.2961  20.9083   4.8164   C.3       1 RES1   0.0000
    21 S21      5.0806  22.0294   5.4891   S.o2      1 RES1   0.0000
    22 O22      4.8822  23.0276   4.4752   O.2       1 RES1   0.0000
    23 O23      3.9393  21.3456   6.0042   O.2       1 RES1   0.0000
    24 C24      5.8912  22.8290   6.9364   C.3       1 RES1   0.0000
    25 C25      6.2472  21.6682   7.8967   C.3       1 RES1   0.0000
    26 C26      4.9139  23.8220   7.6123   C.3       1 RES1   0.0000
    27 C27      7.2261  23.5042   6.5307   C.3       1 RES1   0.0000
    28 C28      2.9467  16.9079   2.7444   C.2       1 RES1   0.0000
    29 O29      2.9129  15.7609   3.1604   O.2       1 RES1   0.0000
    30 N30      3.5640  17.2398   1.5518   N.am      1 RES1   0.0000
    31 C31      4.2539  16.2548   0.7009   C.3       1 RES1   0.0000
    32 C32      5.7766  16.4278   0.9603   C.3       1 RES1   0.0000
    33 O33      6.4183  15.3627   0.1678   O.3       1 RES1   0.0000
    34 C34      3.8828  16.5575  -0.7708   C.3       1 RES1   0.0000
    35 C35      2.4464  16.4224  -1.2319   C.2       1 RES1   0.0000
    36 C36      1.9106  15.2361  -1.7454   C.2       1 RES1   0.0000
    37 C37      0.5657  15.1060  -2.1143   C.2       1 RES1   0.0000
    38 C38     -0.2804  16.2119  -1.9723   C.2       1 RES1   0.0000
    39 C39      0.2210  17.3974  -1.4403   C.2       1 RES1   0.0000
    40 C40      1.5666  17.5071  -1.0765   C.2       1 RES1   0.0000
@<TRIPOS>BOND
     1     1     2    1
     2     2     3    1
     3     2     4    1
     4     4     5    1
     5     5     6   am
     6     6     7    2
     7     6     8    1
     8     8     9    1
     9     9    10    1
    10    10    11    2
    11    11    12    1
    12    12    13    2
    13    13    14    1
    14    14    15    2
    15    15    16    1
    16    16    17    2
    17    17    18    1
    18    18    19    2
    19     8    20    1
    20    20    21    1
    21    21    22    2
    22    21    23    2
    23    21    24    1
    24    24    25    1
    25    24    26    1
    26    24    27    1
    27     4    28    1
    28    28    29    2
    29    28    30   am
    30    30    31    1
    31    31    32    1
    32    32    33    1
    33    31    34    1
    34    34    35    1
    35    35    36    2
    36    36    37    1
    37    37    38    2
    38    38    39    1
    39    39    40    2
    40    19    10    1
    41    40    35    1
    42    19    14    1
@<TRIPOS>SUBSTRUCTURE
     1 RES1        1 GROUP             0 ****  ****    0  
@<TRIPOS>MOLECULE
ligand_45
    40    42     1     0     0
SMALL
NO_CHARGES
****
Generated from the CSD

@<TRIPOS>ATOM
     1 C1      11.2959  21.8080   7.9357   C.3       1 RES1   0.0000
     2 C2      10.7811  20.6372   7.0820   C.3       1 RES1   0.0000
     3 C3      10.2862  19.4462   7.9353   C.3       1 RES1   0.0000
     4 C4       9.5910  21.0701   6.1910   C.3       1 RES1   0.0000
     5 N5       9.1033  20.0107   5.2696   N.am      1 RES1   0.0000
     6 C6       7.7880  19.7531   5.0296   C.2       1 RES1   0.0000
     7 O7       6.8672  20.3844   5.5624   O.2       1 RES1   0.0000
     8 C8       7.5105  18.6716   3.9642   C.3       1 RES1   0.0000
     9 C9       6.8410  19.4250   2.7860   C.3       1 RES1   0.0000
    10 C10      7.8250  20.4490   2.1930   C.2       1 RES1   0.0000
    11 C11      7.7863  21.7784   2.4243   C.2       1 RES1   0.0000
    12 C12      8.7502  22.6580   1.7891   C.2       1 RES1   0.0000
    13 C13      9.6967  22.1473   0.9536   C.2       1 RES1   0.0000
    14 C14      9.7619  20.7378   0.6840   C.2       1 RES1   0.0000
    15 C15     10.7797  20.2310  -0.1941   C.2       1 RES1   0.0000
    16 C16     10.8347  18.8885  -0.4632   C.2       1 RES1   0.0000
    17 C17      9.8983  17.9936   0.1243   C.2       1 RES1   0.0000
    18 C18      8.9156  18.4854   0.9877   C.2       1 RES1   0.0000
    19 C19      8.8454  19.8550   1.2695   C.2       1 RES1   0.0000
    20 C20      6.6000  17.5191   4.4975   C.3       1 RES1   0.0000
    21 S21      7.5148  16.4565   5.6024   S.o2      1 RES1   0.0000
    22 O22      8.5187  15.8331   4.7855   O.2       1 RES1   0.0000
    23 O23      7.9263  17.1339   6.7886   O.2       1 RES1   0.0000
    24 C24      6.3233  15.1606   6.1433   C.3       1 RES1   0.0000
    25 C25      5.1774  15.9286   6.8458   C.3       1 RES1   0.0000
    26 C26      7.0120  14.1811   7.1252   C.3       1 RES1   0.0000
    27 C27      5.6978  14.4299   4.9280   C.3       1 RES1   0.0000
    28 C28      9.9496  22.2561   5.2161   C.2       1 RES1   0.0000
    29 O29     10.6943  22.1778   4.2522   O.2       1 RES1   0.0000
    30 N30      9.3831  23.4542   5.6123   N.am      1 RES1   0.0000
    31 C31      9.6248  24.7289   4.9145   C.3       1 RES1   0.0000
    32 C32     10.6639  25.5137   5.7632   C.3       1 RES1   0.0000
    33 O33     10.9483  26.7310   4.9811   O.3       1 RES1   0.0000
    34 C34      8.2751  25.4799   4.8185   C.3       1 RES1   0.0000
    35 C35      7.5395  25.8784   6.0812   C.2       1 RES1   0.0000
    36 C36      6.5980  25.0600   6.7150   C.2       1 RES1   0.0000
    37 C37      5.9669  25.4140   7.9142   C.2       1 RES1   0.0000
    38 C38      6.2835  26.6439   8.5029   C.2       1 RES1   0.0000
    39 C39      7.2359  27.4667   7.9064   C.2       1 RES1   0.0000
    40 C40      7.8560  27.0948   6.7097   C.2       1 RES1   0.0000
@<TRIPOS>BOND
     1     1     2    1
     2     2     3    1
     3     2     4    1
     4     4     5    1
     5     5     6   am
     6     6     7    2
     7     6     8    1
     8     8     9    1
     9     9    10    1
    10    10    11    2
    11    11    12    1
    12    12    13    2
    13    13    14    1
    14    14    15    2
    15    15    16    1
    16    16    17    2
    17    17    18    1
    18    18    19    2
    19     8    20    1
    20    20    21    1
    21    21    22    2
    22    21    23    2
    23    21    24    1
    24    24    25    1
    25    24    26    1
    26    24    27    1
    27     4    28    1
    28    28    29    2
    29    28    30   am
    30    30    31    1
    31    31    32    1
    32    32    33    1
    33    31    34    1
    34    34    35    1
    35    35    36    2
    36    36    37    1
    37    37    38    2
    38    38    39    1
    39    39    40    2
    40    19    10    1
    41    40    35    1
    42    19    14    1
@<TRIPOS>SUBSTRUCTURE
     1 RES1        1 GROUP             0 ****  ****    0  
@<TRIPOS>MOLECULE
ligand_46
    40    42     1     0     0
SMALL
NO_CHARGES
****
Generated from the CSD

@<TRIPOS>ATOM
     1 C1       1.9706  18.4032   7.9027   C.3       1 RES1   0.0000
     2 C2       3.2787  19.0680   7.4433   C.3       1 RES1   0.0000
     3 C3       4.3493  19.1169   8.5581   C.3       1 RES1   0.0000
     4 C4       3.9110  18.3049   6.2535   C.3       1 RES1   0.0000
     5 N5       5.1305  18.9471   5.6972   N.am      1 RES1   0.0000
     6 C6       5.9775  18.3450   4.8174   C.2       1 RES1   0.0000
     7 O7       5.8077  17.1948   4.3948   O.2       1 RES1   0.0000
     8 C8       7.1293  19.2309   4.2977   C.3       1 RES1   0.0000
     9 C9       6.8419  19.4247   2.7865   C.3       1 RES1   0.0000
    10 C10      7.8263  20.4486   2.1937   C.2       1 RES1   0.0000
    11 C11      7.7314  21.7865   2.3462   C.2       1 RES1   0.0000
    12 C12      8.7028  22.6632   1.7184   C.2       1 RES1   0.0000
    13 C13      9.7133  22.1409   0.9695   C.2       1 RES1   0.0000
    14 C14      9.8395  20.7219   0.7850   C.2       1 RES1   0.0000
    15 C15     10.9235  20.2037  -0.0025   C.2       1 RES1   0.0000
    16 C16     11.0373  18.8511  -0.1910   C.2       1 RES1   0.0000
    17 C17     10.0965  17.9576   0.3916   C.2       1 RES1   0.0000
    18 C18      9.0490  18.4612   1.1674   C.2       1 RES1   0.0000
    19 C19      8.9184  19.8409   1.3661   C.2       1 RES1   0.0000
    20 C20      8.5357  18.5927   4.5354   C.3       1 RES1   0.0000
    21 S21      8.9890  18.6964   6.2589   S.o2      1 RES1   0.0000
    22 O22      9.1311  20.0999   6.5305   O.2       1 RES1   0.0000
    23 O23      8.1263  17.9252   7.0934   O.2       1 RES1   0.0000
    24 C24     10.6509  17.9127   6.3823   C.3       1 RES1   0.0000
    25 C25     10.4529  16.4583   5.8905   C.3       1 RES1   0.0000
    26 C26     11.1420  17.9349   7.8507   C.3       1 RES1   0.0000
    27 C27     11.6609  18.5821   5.4158   C.3       1 RES1   0.0000
    28 C28      2.9545  18.2089   5.0039   C.2       1 RES1   0.0000
    29 O29      2.3073  17.2249   4.6834   O.2       1 RES1   0.0000
    30 N30      2.9761  19.3578   4.2337   N.am      1 RES1   0.0000
    31 C31      2.2515  19.4852   2.9574   C.3       1 RES1   0.0000
    32 C32      3.3024  19.3062   1.8263   C.3       1 RES1   0.0000
    33 O33      2.5216  19.3427   0.5759   O.3       1 RES1   0.0000
    34 C34      1.5998  20.8885   2.9205   C.3       1 RES1   0.0000
    35 C35      0.5295  21.2522   3.9287   C.2       1 RES1   0.0000
    36 C36     -0.8363  21.0365   3.7139   C.2       1 RES1   0.0000
    37 C37     -1.8124  21.3228   4.6767   C.2       1 RES1   0.0000
    38 C38     -1.4080  21.8564   5.9059   C.2       1 RES1   0.0000
    39 C39     -0.0525  22.0576   6.1555   C.2       1 RES1   0.0000
    40 C40      0.9069  21.7641   5.1819   C.2       1 RES1   0.0000
@<TRIPOS>BOND
     1     1     2    1
     2     2     3    1
     3     2     4    1
     4     4     5    1
     5     5     6   am
     6     6     7    2
     7     6     8    1
     8     8     9    1
     9     9    10    1
    10    10    11    2
    11    11    12    1
    12    12    13    2
    13    13    14    1
    14    14    15    2
    15    15    16    1
    16    16    17    2
    17    17    18    1
    18    18    19    2
    19     8    20    1
    20    20    21    1
    21    21    22    2
    22    21    23    2
    23    21    24    1
    24    24    25    1
    25    24    26    1
    26    24    27    1
    27     4    28    1
    28    28    29    2
    29    28    30   am
    30    30    31    1
    31    31    32    1
    32    32    33    1
    33    31    34    1
    34    34    35    1
    35    35    36    2
    36    36    37    1
    37    37    38    2
    38    38    39    1
    39    39    40    2
    40    19    10    1
    41    40    35    1
    42    19    14    1
@<TRIPOS>SUBSTRUCTURE
     1 RES1        1 GROUP             0 ****  ****    0  
@<TRIPOS>MOLECULE
ligand_47
    40    42     1     0     0
SMALL
NO_CHARGES
****
Generated from the CSD

@<TRIPOS>ATOM
     1 C1       3.1677  13.3305   1.5998   C.3       1 RES1   0.0000
     2 C2       3.7035  14.6676   1.0618   C.3       1 RES1   0.0000
     3 C3       2.5921  15.5605   0.4626   C.3       1 RES1   0.0000
     4 C4       4.3820  15.4942   2.1816   C.3       1 RES1   0.0000
     5 N5       5.0061  16.7588   1.7119   N.am      1 RES1   0.0000
     6 C6       4.9391  17.9401   2.3856   C.2       1 RES1   0.0000
     7 O7       4.3457  18.0711   3.4632   O.2       1 RES1   0.0000
     8 C8       5.7399  19.1025   1.7618   C.3       1 RES1   0.0000
     9 C9       6.8704  19.4077   2.7781   C.3       1 RES1   0.0000
    10 C10      7.8511  20.4309   2.1783   C.2       1 RES1   0.0000
    11 C11      7.8431  21.7541   2.4451   C.2       1 RES1   0.0000
    12 C12      8.7998  22.6345   1.8001   C.2       1 RES1   0.0000
    13 C13      9.7084  22.1307   0.9195   C.2       1 RES1   0.0000
    14 C14      9.7402  20.7279   0.6114   C.2       1 RES1   0.0000
    15 C15     10.7188  20.2281  -0.3140   C.2       1 RES1   0.0000
    16 C16     10.7415  18.8924  -0.6195   C.2       1 RES1   0.0000
    17 C17      9.8103  17.9977  -0.0234   C.2       1 RES1   0.0000
    18 C18      8.8662  18.4824   0.8857   C.2       1 RES1   0.0000
    19 C19      8.8292  19.8450   1.2052   C.2       1 RES1   0.0000
    20 C20      4.8591  20.3643   1.4899   C.3       1 RES1   0.0000
    21 S21      3.8602  20.1297   0.0291   S.o2      1 RES1   0.0000
    22 O22      3.5754  18.7223  -0.0143   O.2       1 RES1   0.0000
    23 O23      2.7698  21.0475  -0.0348   O.2       1 RES1   0.0000
    24 C24      4.9564  20.5416  -1.3922   C.3       1 RES1   0.0000
    25 C25      5.4054  22.0032  -1.1502   C.3       1 RES1   0.0000
    26 C26      4.1720  20.4200  -2.7218   C.3       1 RES1   0.0000
    27 C27      6.2375  19.6692  -1.3850   C.3       1 RES1   0.0000
    28 C28      5.5816  14.7355   2.8678   C.2       1 RES1   0.0000
    29 O29      5.5407  14.1893   3.9586   O.2       1 RES1   0.0000
    30 N30      6.7479  14.8145   2.1282   N.am      1 RES1   0.0000
    31 C31      8.0391  14.2869   2.6020   C.3       1 RES1   0.0000
    32 C32      8.8639  15.5055   3.1027   C.3       1 RES1   0.0000
    33 O33     10.0792  14.9201   3.6983   O.3       1 RES1   0.0000
    34 C34      8.7266  13.5769   1.4111   C.3       1 RES1   0.0000
    35 C35      9.9956  12.7807   1.6352   C.2       1 RES1   0.0000
    36 C36     11.2784  13.3282   1.5228   C.2       1 RES1   0.0000
    37 C37     12.4433  12.5976   1.7893   C.2       1 RES1   0.0000
    38 C38     12.3228  11.2581   2.1771   C.2       1 RES1   0.0000
    39 C39     11.0569  10.6953   2.3212   C.2       1 RES1   0.0000
    40 C40      9.9058  11.4416   2.0518   C.2       1 RES1   0.0000
@<TRIPOS>BOND
     1     1     2    1
     2     2     3    1
     3     2     4    1
     4     4     5    1
     5     5     6   am
     6     6     7    2
     7     6     8    1
     8     8     9    1
     9     9    10    1
    10    10    11    2
    11    11    12    1
    12    12    13    2
    13    13    14    1
    14    14    15    2
    15    15    16    1
    16    16    17    2
    17    17    18    1
    18    18    19    2
    19     8    20    1
    20    20    21    1
    21    21    22    2
    22    21    23    2
    23    21    24    1
    24    24    25    1
    25    24    26    1
    26    24    27    1
    27     4    28    1
    28    28    29    2
    29    28    30   am
    30    30    31    1
    31    31    32    1
    32    32    33    1
    33    31    34    1
    34    34    35    1
    35    35    36    2
    36    36    37    1
    37    37    38    2
    38    38    39    1
    39    39    40    2
    40    19    10    1
    41    40    35    1
    42    19    14    1
@<TRIPOS>SUBSTRUCTURE
     1 RES1        1 GROUP             0 ****  ****    0  
@<TRIPOS>MOLECULE
ligand_48
    40    42     1     0     0
SMALL
NO_CHARGES
****
Generated from the CSD

@<TRIPOS>ATOM
     1 C1      10.7796  21.6726   8.3634   C.3       1 RES1   0.0000
     2 C2      10.1979  20.5331   7.5105   C.3       1 RES1   0.0000
     3 C3       9.0716  19.7587   8.2339   C.3       1 RES1   0.0000
     4 C4       9.5910  21.0701   6.1910   C.3       1 RES1   0.0000
     5 N5       9.1033  20.0107   5.2696   N.am      1 RES1   0.0000
     6 C6       7.7880  19.7533   5.0293   C.2       1 RES1   0.0000
     7 O7       6.8673  20.3894   5.5566   O.2       1 RES1   0.0000
     8 C8       7.5106  18.6650   3.9708   C.3       1 RES1   0.0000
     9 C9       6.8359  19.4100   2.7902   C.3       1 RES1   0.0000
    10 C10      7.8115  20.4414   2.1962   C.2       1 RES1   0.0000
    11 C11      7.7721  21.7686   2.4393   C.2       1 RES1   0.0000
    12 C12      8.7275  22.6560   1.8021   C.2       1 RES1   0.0000
    13 C13      9.6668  22.1548   0.9528   C.2       1 RES1   0.0000
    14 C14      9.7326  20.7478   0.6704   C.2       1 RES1   0.0000
    15 C15     10.7427  20.2510  -0.2221   C.2       1 RES1   0.0000
    16 C16     10.7981  18.9110  -0.5032   C.2       1 RES1   0.0000
    17 C17      9.8696  18.0089   0.0859   C.2       1 RES1   0.0000
    18 C18      8.8945  18.4909   0.9632   C.2       1 RES1   0.0000
    19 C19      8.8240  19.8578   1.2575   C.2       1 RES1   0.0000
    20 C20      6.6047  17.5131   4.5130   C.3       1 RES1   0.0000
    21 S21      7.5350  16.4378   5.5923   S.o2      1 RES1   0.0000
    22 O22      8.5157  17.2820   6.2163   O.2       1 RES1   0.0000
    23 O23      6.6913  15.6439   6.4249   O.2       1 RES1   0.0000
    24 C24      8.4105  15.2580   4.4820   C.3       1 RES1   0.0000
    25 C25      7.2951  14.5694   3.6586   C.3       1 RES1   0.0000
    26 C26      9.1953  14.2199   5.3213   C.3       1 RES1   0.0000
    27 C27      9.3199  16.0050   3.4734   C.3       1 RES1   0.0000
    28 C28     10.6324  21.8603   5.3097   C.2       1 RES1   0.0000
    29 O29     11.5734  21.3633   4.7121   O.2       1 RES1   0.0000
    30 N30     10.4190  23.2267   5.3393   N.am      1 RES1   0.0000
    31 C31     11.2997  24.1940   4.6619   C.3       1 RES1   0.0000
    32 C32     12.2136  24.8108   5.7573   C.3       1 RES1   0.0000
    33 O33     13.1694  25.6571   5.0194   O.3       1 RES1   0.0000
    34 C34     10.4030  25.2627   3.9917   C.3       1 RES1   0.0000
    35 C35     11.0173  26.2953   3.0694   C.2       1 RES1   0.0000
    36 C36     11.4773  27.5423   3.5069   C.2       1 RES1   0.0000
    37 C37     12.0968  28.4661   2.6556   C.2       1 RES1   0.0000
    38 C38     12.2566  28.1338   1.3054   C.2       1 RES1   0.0000
    39 C39     11.8305  26.8890   0.8485   C.2       1 RES1   0.0000
    40 C40     11.2155  25.9798   1.7144   C.2       1 RES1   0.0000
@<TRIPOS>BOND
     1     1     2    1
     2     2     3    1
     3     2     4    1
     4     4     5    1
     5     5     6   am
     6     6     7    2
     7     6     8    1
     8     8     9    1
     9     9    10    1
    10    10    11    2
    11    11    12    1
    12    12    13    2
    13    13    14    1
    14    14    15    2
    15    15    16    1
    16    16    17    2
    17    17    18    1
    18    18    19    2
    19     8    20    1
    20    20    21    1
    21    21    22    2
    22    21    23    2
    23    21    24    1
    24    24    25    1
    25    24    26    1
    26    24    27    1
    27     4    28    1
    28    28    29    2
    29    28    30   am
    30    30    31    1
    31    31    32    1
    32    32    33    1
    33    31    34    1
    34    34    35    1
    35    35    36    2
    36    36    37    1
    37    37    38    2
    38    38    39    1
    39    39    40    2
    40    19    10    1
    41    40    35    1
    42    19    14    1
@<TRIPOS>SUBSTRUCTURE
     1 RES1        1 GROUP             0 ****  ****    0  
@<TRIPOS>MOLECULE
ligand_49
    40    42     1     0     0
SMALL
NO_CHARGES
****
Generated from the CSD

@<TRIPOS>ATOM
     1 C1      10.7697  21.6739   8.3684   C.3       1 RES1   0.0000
     2 C2      10.1979  20.5331   7.5105   C.3       1 RES1   0.0000
     3 C3       9.0748  19.7490   8.2284   C.3       1 RES1   0.0000
     4 C4       9.5910  21.0701   6.1910   C.3       1 RES1   0.0000
     5 N5       9.1033  20.0107   5.2696   N.am      1 RES1   0.0000
     6 C6       7.7880  19.7523   5.0305   C.2       1 RES1   0.0000
     7 O7       6.8672  20.3861   5.5605   O.2       1 RES1   0.0000
     8 C8       7.5105  18.6662   3.9698   C.3       1 RES1   0.0000
     9 C9       6.8379  19.4140   2.7898   C.3       1 RES1   0.0000
    10 C10      7.8173  20.4415   2.1952   C.2       1 RES1   0.0000
    11 C11      7.7711  21.7713   2.4225   C.2       1 RES1   0.0000
    12 C12      8.7311  22.6542   1.7860   C.2       1 RES1   0.0000
    13 C13      9.6816  22.1461   0.9535   C.2       1 RES1   0.0000
    14 C14      9.7548  20.7362   0.6881   C.2       1 RES1   0.0000
    15 C15     10.7767  20.2324  -0.1869   C.2       1 RES1   0.0000
    16 C16     10.8393  18.8893  -0.4519   C.2       1 RES1   0.0000
    17 C17      9.9068  17.9912   0.1369   C.2       1 RES1   0.0000
    18 C18      8.9202  18.4802   0.9973   C.2       1 RES1   0.0000
    19 C19      8.8422  19.8502   1.2750   C.2       1 RES1   0.0000
    20 C20      6.6026  17.5144   4.5091   C.3       1 RES1   0.0000
    21 S21      6.8146  16.0370   3.5297   S.o2      1 RES1   0.0000
    22 O22      6.2939  16.3640   2.2313   O.2       1 RES1   0.0000
    23 O23      8.1382  15.5123   3.6201   O.2       1 RES1   0.0000
    24 C24      5.7130  14.7740   4.2929   C.3       1 RES1   0.0000
    25 C25      6.2183  14.6186   5.7479   C.3       1 RES1   0.0000
    26 C26      5.8272  13.4343   3.5248   C.3       1 RES1   0.0000
    27 C27      4.2503  15.2802   4.3751   C.3       1 RES1   0.0000
    28 C28     10.6324  21.8603   5.3097   C.2       1 RES1   0.0000
    29 O29     11.5763  21.3639   4.7160   O.2       1 RES1   0.0000
    30 N30     10.4152  23.2262   5.3343   N.am      1 RES1   0.0000
    31 C31     11.2943  24.1936   4.6550   C.3       1 RES1   0.0000
    32 C32     12.2021  24.8195   5.7504   C.3       1 RES1   0.0000
    33 O33     13.1573  25.6656   5.0115   O.3       1 RES1   0.0000
    34 C34     10.3956  25.2555   3.9766   C.3       1 RES1   0.0000
    35 C35     11.0089  26.2860   3.0513   C.2       1 RES1   0.0000
    36 C36     11.4627  27.5369   3.4844   C.2       1 RES1   0.0000
    37 C37     12.0814  28.4589   2.6307   C.2       1 RES1   0.0000
    38 C38     12.2468  28.1209   1.2825   C.2       1 RES1   0.0000
    39 C39     11.8269  26.8722   0.8302   C.2       1 RES1   0.0000
    40 C40     11.2126  25.9648   1.6985   C.2       1 RES1   0.0000
@<TRIPOS>BOND
     1     1     2    1
     2     2     3    1
     3     2     4    1
     4     4     5    1
     5     5     6   am
     6     6     7    2
     7     6     8    1
     8     8     9    1
     9     9    10    1
    10    10    11    2
    11    11    12    1
    12    12    13    2
    13    13    14    1
    14    14    15    2
    15    15    16    1
    16    16    17    2
    17    17    18    1
    18    18    19    2
    19     8    20    1
    20    20    21    1
    21    21    22    2
    22    21    23    2
    23    21    24    1
    24    24    25    1
    25    24    26    1
    26    24    27    1
    27     4    28    1
    28    28    29    2
    29    28    30   am
    30    30    31    1
    31    31    32    1
    32    32    33    1
    33    31    34    1
    34    34    35    1
    35    35    36    2
    36    36    37    1
    37    37    38    2
    38    38    39    1
    39    39    40    2
    40    19    10    1
    41    40    35    1
    42    19    14    1
@<TRIPOS>SUBSTRUCTURE
     1 RES1        1 GROUP             0 ****  ****    0  
@<TRIPOS>MOLECULE
ligand_50
    40    42     1     0     0
SMALL
NO_CHARGES
****
Generated from the CSD

@<TRIPOS>ATOM
     1 C1       2.3056  14.0219   2.3072   C.3       1 RES1   0.0000
     2 C2       2.8583  15.4039   1.9213   C.3       1 RES1   0.0000
     3 C3       2.2030  16.5551   2.7193   C.3       1 RES1   0.0000
     4 C4       4.3820  15.4942   2.1816   C.3       1 RES1   0.0000
     5 N5       5.0061  16.7588   1.7119   N.am      1 RES1   0.0000
     6 C6       4.9891  17.9257   2.4133   C.2       1 RES1   0.0000
     7 O7       4.4791  18.0327   3.5352   O.2       1 RES1   0.0000
     8 C8       5.7391  19.1029   1.7551   C.3       1 RES1   0.0000
     9 C9       6.9431  19.3899   2.6889   C.3       1 RES1   0.0000
    10 C10      7.9065  20.3805   2.0113   C.2       1 RES1   0.0000
    11 C11      7.9201  21.7128   2.2280   C.2       1 RES1   0.0000
    12 C12      8.8564  22.5592   1.5116   C.2       1 RES1   0.0000
    13 C13      9.7240  22.0141   0.6143   C.2       1 RES1   0.0000
    14 C14      9.7319  20.6006   0.3585   C.2       1 RES1   0.0000
    15 C15     10.6674  20.0571  -0.5866   C.2       1 RES1   0.0000
    16 C16     10.6669  18.7108  -0.8420   C.2       1 RES1   0.0000
    17 C17      9.7539  17.8479  -0.1751   C.2       1 RES1   0.0000
    18 C18      8.8519  18.3753   0.7529   C.2       1 RES1   0.0000
    19 C19      8.8390  19.7492   1.0218   C.2       1 RES1   0.0000
    20 C20      4.8390  20.3677   1.5771   C.3       1 RES1   0.0000
    21 S21      3.8873  20.2542   0.0711   S.o2      1 RES1   0.0000
    22 O22      3.6464  18.8510  -0.1211   O.2       1 RES1   0.0000
    23 O23      2.7717  21.1435   0.0667   O.2       1 RES1   0.0000
    24 C24      5.0083  20.8369  -1.2687   C.3       1 RES1   0.0000
    25 C25      5.4224  22.2710  -0.8583   C.3       1 RES1   0.0000
    26 C26      4.2581  20.8474  -2.6233   C.3       1 RES1   0.0000
    27 C27      6.3059  19.9910  -1.3233   C.3       1 RES1   0.0000
    28 C28      5.2045  14.3845   1.4216   C.2       1 RES1   0.0000
    29 O29      5.7574  13.4312   1.9463   O.2       1 RES1   0.0000
    30 N30      5.3102  14.6415   0.0665   N.am      1 RES1   0.0000
    31 C31      6.1397  13.8333  -0.8440   C.3       1 RES1   0.0000
    32 C32      7.4436  14.6407  -1.0968   C.3       1 RES1   0.0000
    33 O33      8.2804  13.7561  -1.9284   O.3       1 RES1   0.0000
    34 C34      5.3362  13.6145  -2.1485   C.3       1 RES1   0.0000
    35 C35      4.0426  12.8272  -2.1171   C.2       1 RES1   0.0000
    36 C36      3.9795  11.4417  -2.3022   C.2       1 RES1   0.0000
    37 C37      2.7848  10.7160  -2.2132   C.2       1 RES1   0.0000
    38 C38      1.5987  11.4052  -1.9354   C.2       1 RES1   0.0000
    39 C39      1.6368  12.7811  -1.7218   C.2       1 RES1   0.0000
    40 C40      2.8398  13.4876  -1.8137   C.2       1 RES1   0.0000
@<TRIPOS>BOND
     1     1     2    1
     2     2     3    1
     3     2     4    1
     4     4     5    1
     5     5     6   am
     6     6     7    2
     7     6     8    1
     8     8     9    1
     9     9    10    1
    10    10    11    2
    11    11    12    1
    12    12    13    2
    13    13    14    1
    14    14    15    2
    15    15    16    1
    16    16    17    2
    17    17    18    1
    18    18    19    2
    19     8    20    1
    20    20    21    1
    21    21    22    2
    22    21    23    2
    23    21    24    1
    24    24    25    1
    25    24    26    1
    26    24    27    1
    27     4    28    1
    28    28    29    2
    29    28    30   am
    30    30    31    1
    31    31    32    1
    32    32    33    1
    33    31    34    1
    34    34    35    1
    35    35    36    2
    36    36    37    1
    37    37    38    2
    38    38    39    1
    39    39    40    2
    40    19    10    1
    41    40    35    1
    42    19    14    1
@<TRIPOS>SUBSTRUCTURE
     1 RES1        1 GROUP             0 ****  ****    0  
@<TRIPOS>MOLECULE
ligand_51
    40    42     1     0     0
SMALL
NO_CHARGES
****
Generated from the CSD

@<TRIPOS>ATOM
     1 C1       3.7979  13.0593   1.7071   C.3       1 RES1   0.0000
     2 C2       4.3657  14.3637   1.1235   C.3       1 RES1   0.0000
     3 C3       3.5441  14.8906  -0.0759   C.3       1 RES1   0.0000
     4 C4       4.3820  15.4942   2.1816   C.3       1 RES1   0.0000
     5 N5       5.0061  16.7588   1.7119   N.am      1 RES1   0.0000
     6 C6       4.8599  17.9604   2.3352   C.2       1 RES1   0.0000
     7 O7       4.2103  18.1067   3.3778   O.2       1 RES1   0.0000
     8 C8       5.6436  19.1310   1.7050   C.3       1 RES1   0.0000
     9 C9       6.7200  19.5104   2.7546   C.3       1 RES1   0.0000
    10 C10      7.6803  20.5580   2.1641   C.2       1 RES1   0.0000
    11 C11      7.6073  21.8863   2.3934   C.2       1 RES1   0.0000
    12 C12      8.5513  22.7891   1.7608   C.2       1 RES1   0.0000
    13 C13      9.5137  22.3012   0.9298   C.2       1 RES1   0.0000
    14 C14      9.6155  20.8934   0.6625   C.2       1 RES1   0.0000
    15 C15     10.6492  20.4113  -0.2108   C.2       1 RES1   0.0000
    16 C16     10.7390  19.0702  -0.4778   C.2       1 RES1   0.0000
    17 C17      9.8230  18.1529   0.1072   C.2       1 RES1   0.0000
    18 C18      8.8248  18.6209   0.9660   C.2       1 RES1   0.0000
    19 C19      8.7191  19.9887   1.2456   C.2       1 RES1   0.0000
    20 C20      4.7302  20.3500   1.3560   C.3       1 RES1   0.0000
    21 S21      3.8012  20.0318  -0.1347   S.o2      1 RES1   0.0000
    22 O22      3.5695  18.6140  -0.1426   O.2       1 RES1   0.0000
    23 O23      2.6817  20.9055  -0.2723   O.2       1 RES1   0.0000
    24 C24      4.9389  20.4392  -1.5243   C.3       1 RES1   0.0000
    25 C25      5.3236  21.9238  -1.3138   C.3       1 RES1   0.0000
    26 C26      4.2148  20.2453  -2.8792   C.3       1 RES1   0.0000
    27 C27      6.2497  19.6168  -1.4368   C.3       1 RES1   0.0000
    28 C28      5.2287  15.1299   3.4607   C.2       1 RES1   0.0000
    29 O29      4.8631  14.3954   4.3643   O.2       1 RES1   0.0000
    30 N30      6.4361  15.8036   3.5034   N.am      1 RES1   0.0000
    31 C31      7.3458  15.7529   4.6610   C.3       1 RES1   0.0000
    32 C32      7.1335  17.0720   5.4552   C.3       1 RES1   0.0000
    33 O33      7.9803  16.9316   6.6541   O.3       1 RES1   0.0000
    34 C34      8.7917  15.6318   4.1225   C.3       1 RES1   0.0000
    35 C35      9.2072  14.4030   3.3402   C.2       1 RES1   0.0000
    36 C36      9.7446  13.2563   3.9355   C.2       1 RES1   0.0000
    37 C37     10.0709  12.1041   3.2092   C.2       1 RES1   0.0000
    38 C38      9.8593  12.0991   1.8255   C.2       1 RES1   0.0000
    39 C39      9.3022  13.2181   1.2112   C.2       1 RES1   0.0000
    40 C40      8.9817  14.3584   1.9539   C.2       1 RES1   0.0000
@<TRIPOS>BOND
     1     1     2    1
     2     2     3    1
     3     2     4    1
     4     4     5    1
     5     5     6   am
     6     6     7    2
     7     6     8    1
     8     8     9    1
     9     9    10    1
    10    10    11    2
    11    11    12    1
    12    12    13    2
    13    13    14    1
    14    14    15    2
    15    15    16    1
    16    16    17    2
    17    17    18    1
    18    18    19    2
    19     8    20    1
    20    20    21    1
    21    21    22    2
    22    21    23    2
    23    21    24    1
    24    24    25    1
    25    24    26    1
    26    24    27    1
    27     4    28    1
    28    28    29    2
    29    28    30   am
    30    30    31    1
    31    31    32    1
    32    32    33    1
    33    31    34    1
    34    34    35    1
    35    35    36    2
    36    36    37    1
    37    37    38    2
    38    38    39    1
    39    39    40    2
    40    19    10    1
    41    40    35    1
    42    19    14    1
@<TRIPOS>SUBSTRUCTURE
     1 RES1        1 GROUP             0 ****  ****    0  
@<TRIPOS>MOLECULE
ligand_52
    40    42     1     0     0
SMALL
NO_CHARGES
****
Generated from the CSD

@<TRIPOS>ATOM
     1 C1       3.7979  13.0593   1.7071   C.3       1 RES1   0.0000
     2 C2       4.3657  14.3637   1.1235   C.3       1 RES1   0.0000
     3 C3       3.5441  14.8906  -0.0759   C.3       1 RES1   0.0000
     4 C4       4.3820  15.4942   2.1816   C.3       1 RES1   0.0000
     5 N5       5.0061  16.7588   1.7119   N.am      1 RES1   0.0000
     6 C6       4.9232  17.9444   2.3762   C.2       1 RES1   0.0000
     7 O7       4.3138  18.0798   3.4442   O.2       1 RES1   0.0000
     8 C8       5.7269  19.1067   1.7558   C.3       1 RES1   0.0000
     9 C9       6.8410  19.4250   2.7860   C.3       1 RES1   0.0000
    10 C10      7.8250  20.4490   2.1930   C.2       1 RES1   0.0000
    11 C11      7.8063  21.7741   2.4501   C.2       1 RES1   0.0000
    12 C12      8.7676  22.6548   1.8126   C.2       1 RES1   0.0000
    13 C13      9.6916  22.1496   0.9490   C.2       1 RES1   0.0000
    14 C14      9.7351  20.7448   0.6516   C.2       1 RES1   0.0000
    15 C15     10.7296  20.2435  -0.2559   C.2       1 RES1   0.0000
    16 C16     10.7637  18.9058  -0.5513   C.2       1 RES1   0.0000
    17 C17      9.8286  18.0105   0.0377   C.2       1 RES1   0.0000
    18 C18      8.8689  18.4967   0.9295   C.2       1 RES1   0.0000
    19 C19      8.8201  19.8613   1.2384   C.2       1 RES1   0.0000
    20 C20      4.8435  20.3618   1.4623   C.3       1 RES1   0.0000
    21 S21      3.8670  20.1117  -0.0110   S.o2      1 RES1   0.0000
    22 O22      3.5903  18.7025  -0.0486   O.2       1 RES1   0.0000
    23 O23      2.7728  21.0231  -0.0970   O.2       1 RES1   0.0000
    24 C24      4.9813  20.5195  -1.4193   C.3       1 RES1   0.0000
    25 C25      5.4191  21.9851  -1.1811   C.3       1 RES1   0.0000
    26 C26      4.2167  20.3847  -2.7591   C.3       1 RES1   0.0000
    27 C27      6.2667  19.6540  -1.3877   C.3       1 RES1   0.0000
    28 C28      5.2287  15.1299   3.4607   C.2       1 RES1   0.0000
    29 O29      6.4441  15.0242   3.4969   O.2       1 RES1   0.0000
    30 N30      4.4336  14.8563   4.5591   N.am      1 RES1   0.0000
    31 C31      4.9762  14.4178   5.8566   C.3       1 RES1   0.0000
    32 C32      4.7532  12.8818   5.9388   C.3       1 RES1   0.0000
    33 O33      5.4371  12.4665   7.1774   O.3       1 RES1   0.0000
    34 C34      4.2093  15.1711   6.9699   C.3       1 RES1   0.0000
    35 C35      4.6638  15.0591   8.4104   C.2       1 RES1   0.0000
    36 C36      4.1818  14.0898   9.2971   C.2       1 RES1   0.0000
    37 C37      4.6521  13.9586  10.6099   C.2       1 RES1   0.0000
    38 C38      5.6416  14.8400  11.0607   C.2       1 RES1   0.0000
    39 C39      6.1569  15.7981  10.1910   C.2       1 RES1   0.0000
    40 C40      5.6754  15.9122   8.8834   C.2       1 RES1   0.0000
@<TRIPOS>BOND
     1     1     2    1
     2     2     3    1
     3     2     4    1
     4     4     5    1
     5     5     6   am
     6     6     7    2
     7     6     8    1
     8     8     9    1
     9     9    10    1
    10    10    11    2
    11    11    12    1
    12    12    13    2
    13    13    14    1
    14    14    15    2
    15    15    16    1
    16    16    17    2
    17    17    18    1
    18    18    19    2
    19     8    20    1
    20    20    21    1
    21    21    22    2
    22    21    23    2
    23    21    24    1
    24    24    25    1
    25    24    26    1
    26    24    27    1
    27     4    28    1
    28    28    29    2
    29    28    30   am
    30    30    31    1
    31    31    32    1
    32    32    33    1
    33    31    34    1
    34    34    35    1
    35    35    36    2
    36    36    37    1
    37    37    38    2
    38    38    39    1
    39    39    40    2
    40    19    10    1
    41    40    35    1
    42    19    14    1
@<TRIPOS>SUBSTRUCTURE
     1 RES1        1 GROUP             0 ****  ****    0  
@<TRIPOS>MOLECULE
ligand_53
    40    42     1     0     0
SMALL
NO_CHARGES
****
Generated from the CSD

@<TRIPOS>ATOM
     1 C1       0.0699  17.6320   4.4020   C.3       1 RES1   0.0000
     2 C2       1.2093  18.6641   4.3744   C.3       1 RES1   0.0000
     3 C3       1.7815  18.9621   5.7798   C.3       1 RES1   0.0000
     4 C4       2.3944  18.1721   3.5075   C.3       1 RES1   0.0000
     5 N5       3.4877  19.1665   3.3502   N.am      1 RES1   0.0000
     6 C6       4.7083  19.0604   3.9441   C.2       1 RES1   0.0000
     7 O7       5.0218  18.1178   4.6814   O.2       1 RES1   0.0000
     8 C8       5.7265  20.1553   3.5616   C.3       1 RES1   0.0000
     9 C9       6.8394  19.4170   2.7739   C.3       1 RES1   0.0000
    10 C10      7.7096  20.4366   2.0178   C.2       1 RES1   0.0000
    11 C11      7.5530  21.7762   2.0752   C.2       1 RES1   0.0000
    12 C12      8.4155  22.6459   1.2968   C.2       1 RES1   0.0000
    13 C13      9.3854  22.1149   0.5017   C.2       1 RES1   0.0000
    14 C14      9.5751  20.6935   0.4158   C.2       1 RES1   0.0000
    15 C15     10.6145  20.1672  -0.4245   C.2       1 RES1   0.0000
    16 C16     10.7877  18.8111  -0.5183   C.2       1 RES1   0.0000
    17 C17      9.9527  17.9225   0.2138   C.2       1 RES1   0.0000
    18 C18      8.9493  18.4352   1.0403   C.2       1 RES1   0.0000
    19 C19      8.7587  19.8183   1.1437   C.2       1 RES1   0.0000
    20 C20      6.3056  20.9019   4.8061   C.3       1 RES1   0.0000
    21 S21      5.0973  22.0304   5.4796   S.o2      1 RES1   0.0000
    22 O22      4.9015  23.0276   4.4642   O.2       1 RES1   0.0000
    23 O23      3.9538  21.3533   5.9986   O.2       1 RES1   0.0000
    24 C24      5.9153  22.8286   6.9235   C.3       1 RES1   0.0000
    25 C25      6.2678  21.6678   7.8851   C.3       1 RES1   0.0000
    26 C26      4.9446  23.8277   7.5997   C.3       1 RES1   0.0000
    27 C27      7.2526  23.4963   6.5134   C.3       1 RES1   0.0000
    28 C28      1.9806  17.8555   2.0195   C.2       1 RES1   0.0000
    29 O29      1.6615  18.6852   1.1832   O.2       1 RES1   0.0000
    30 N30      1.9369  16.4971   1.7618   N.am      1 RES1   0.0000
    31 C31      1.5062  15.9362   0.4695   C.3       1 RES1   0.0000
    32 C32      0.0457  15.4404   0.6613   C.3       1 RES1   0.0000
    33 O33     -0.3755  14.9800  -0.6748   O.3       1 RES1   0.0000
    34 C34      2.4659  14.7755   0.1134   C.3       1 RES1   0.0000
    35 C35      3.9329  15.0567  -0.1376   C.2       1 RES1   0.0000
    36 C36      4.4538  15.3618  -1.4000   C.2       1 RES1   0.0000
    37 C37      5.8020  15.6775  -1.6107   C.2       1 RES1   0.0000
    38 C38      6.6711  15.6804  -0.5135   C.2       1 RES1   0.0000
    39 C39      6.1740  15.4050   0.7581   C.2       1 RES1   0.0000
    40 C40      4.8244  15.0935   0.9481   C.2       1 RES1   0.0000
@<TRIPOS>BOND
     1     1     2    1
     2     2     3    1
     3     2     4    1
     4     4     5    1
     5     5     6   am
     6     6     7    2
     7     6     8    1
     8     8     9    1
     9     9    10    1
    10    10    11    2
    11    11    12    1
    12    12    13    2
    13    13    14    1
    14    14    15    2
    15    15    16    1
    16    16    17    2
    17    17    18    1
    18    18    19    2
    19     8    20    1
    20    20    21    1
    21    21    22    2
    22    21    23    2
    23    21    24    1
    24    24    25    1
    25    24    26    1
    26    24    27    1
    27     4    28    1
    28    28    29    2
    29    28    30   am
    30    30    31    1
    31    31    32    1
    32    32    33    1
    33    31    34    1
    34    34    35    1
    35    35    36    2
    36    36    37    1
    37    37    38    2
    38    38    39    1
    39    39    40    2
    40    19    10    1
    41    40    35    1
    42    19    14    1
@<TRIPOS>SUBSTRUCTURE
     1 RES1        1 GROUP             0 ****  ****    0  
@<TRIPOS>MOLECULE
ligand_54
    40    42     1     0     0
SMALL
NO_CHARGES
****
Generated from the CSD

@<TRIPOS>ATOM
     1 C1       2.3057  14.0218   2.3070   C.3       1 RES1   0.0000
     2 C2       2.8583  15.4039   1.9213   C.3       1 RES1   0.0000
     3 C3       2.2029  16.5549   2.7195   C.3       1 RES1   0.0000
     4 C4       4.3820  15.4942   2.1816   C.3       1 RES1   0.0000
     5 N5       5.0061  16.7588   1.7119   N.am      1 RES1   0.0000
     6 C6       4.9897  17.9255   2.4136   C.2       1 RES1   0.0000
     7 O7       4.4804  18.0324   3.5359   O.2       1 RES1   0.0000
     8 C8       5.7396  19.1028   1.7552   C.3       1 RES1   0.0000
     9 C9       6.9442  19.3893   2.6885   C.3       1 RES1   0.0000
    10 C10      7.8783  20.4229   2.0347   C.2       1 RES1   0.0000
    11 C11      7.8947  21.7406   2.3271   C.2       1 RES1   0.0000
    12 C12      8.8010  22.6323   1.6273   C.2       1 RES1   0.0000
    13 C13      9.6374  22.1449   0.6694   C.2       1 RES1   0.0000
    14 C14      9.6415  20.7484   0.3324   C.2       1 RES1   0.0000
    15 C15     10.5442  20.2657  -0.6755   C.2       1 RES1   0.0000
    16 C16     10.5395  18.9363  -1.0078   C.2       1 RES1   0.0000
    17 C17      9.6548  18.0311  -0.3592   C.2       1 RES1   0.0000
    18 C18      8.7851  18.4990   0.6296   C.2       1 RES1   0.0000
    19 C19      8.7767  19.8551   0.9775   C.2       1 RES1   0.0000
    20 C20      4.8395  20.3678   1.5782   C.3       1 RES1   0.0000
    21 S21      3.9855  20.3163   0.0114   S.o2      1 RES1   0.0000
    22 O22      5.0153  20.4105  -0.9858   O.2       1 RES1   0.0000
    23 O23      3.0597  19.2336  -0.0658   O.2       1 RES1   0.0000
    24 C24      2.9758  21.8551  -0.0535   C.3       1 RES1   0.0000
    25 C25      2.0228  21.7686   1.1634   C.3       1 RES1   0.0000
    26 C26      2.1743  21.9101  -1.3772   C.3       1 RES1   0.0000
    27 C27      3.8564  23.1140   0.1519   C.3       1 RES1   0.0000
    28 C28      5.2045  14.3845   1.4216   C.2       1 RES1   0.0000
    29 O29      5.7573  13.4311   1.9463   O.2       1 RES1   0.0000
    30 N30      5.3103  14.6415   0.0665   N.am      1 RES1   0.0000
    31 C31      6.1399  13.8334  -0.8439   C.3       1 RES1   0.0000
    32 C32      7.5729  14.4333  -0.7947   C.3       1 RES1   0.0000
    33 O33      8.3861  13.5386  -1.6389   O.3       1 RES1   0.0000
    34 C34      5.5232  13.9319  -2.2600   C.3       1 RES1   0.0000
    35 C35      4.1372  13.3797  -2.5215   C.2       1 RES1   0.0000
    36 C36      3.8970  12.0627  -2.9289   C.2       1 RES1   0.0000
    37 C37      2.6080  11.5460  -3.1114   C.2       1 RES1   0.0000
    38 C38      1.5097  12.3838  -2.8855   C.2       1 RES1   0.0000
    39 C39      1.7197  13.6917  -2.4551   C.2       1 RES1   0.0000
    40 C40      3.0144  14.1886  -2.2772   C.2       1 RES1   0.0000
@<TRIPOS>BOND
     1     1     2    1
     2     2     3    1
     3     2     4    1
     4     4     5    1
     5     5     6   am
     6     6     7    2
     7     6     8    1
     8     8     9    1
     9     9    10    1
    10    10    11    2
    11    11    12    1
    12    12    13    2
    13    13    14    1
    14    14    15    2
    15    15    16    1
    16    16    17    2
    17    17    18    1
    18    18    19    2
    19     8    20    1
    20    20    21    1
    21    21    22    2
    22    21    23    2
    23    21    24    1
    24    24    25    1
    25    24    26    1
    26    24    27    1
    27     4    28    1
    28    28    29    2
    29    28    30   am
    30    30    31    1
    31    31    32    1
    32    32    33    1
    33    31    34    1
    34    34    35    1
    35    35    36    2
    36    36    37    1
    37    37    38    2
    38    38    39    1
    39    39    40    2
    40    19    10    1
    41    40    35    1
    42    19    14    1
@<TRIPOS>SUBSTRUCTURE
     1 RES1        1 GROUP             0 ****  ****    0  
@<TRIPOS>MOLECULE
ligand_55
    40    42     1     0     0
SMALL
NO_CHARGES
****
Generated from the CSD

@<TRIPOS>ATOM
     1 C1      10.4318  21.3309   8.8044   C.3       1 RES1   0.0000
     2 C2       9.8216  20.2557   7.8901   C.3       1 RES1   0.0000
     3 C3       8.4648  19.7268   8.4105   C.3       1 RES1   0.0000
     4 C4       9.5668  20.8061   6.4653   C.3       1 RES1   0.0000
     5 N5       9.0645  19.7920   5.5017   N.am      1 RES1   0.0000
     6 C6       7.8000  19.7780   4.9971   C.2       1 RES1   0.0000
     7 O7       6.9429  20.6180   5.2974   O.2       1 RES1   0.0000
     8 C8       7.5231  18.6894   3.9389   C.3       1 RES1   0.0000
     9 C9       6.9032  19.4431   2.7340   C.3       1 RES1   0.0000
    10 C10      7.9274  20.4344   2.1538   C.2       1 RES1   0.0000
    11 C11      7.9159  21.7674   2.3668   C.2       1 RES1   0.0000
    12 C12      8.9175  22.6144   1.7457   C.2       1 RES1   0.0000
    13 C13      9.8722  22.0692   0.9419   C.2       1 RES1   0.0000
    14 C14      9.9092  20.6550   0.6923   C.2       1 RES1   0.0000
    15 C15     10.9364  20.1116  -0.1522   C.2       1 RES1   0.0000
    16 C16     10.9648  18.7645  -0.4024   C.2       1 RES1   0.0000
    17 C17      9.9915  17.9010   0.1719   C.2       1 RES1   0.0000
    18 C18      8.9995  18.4285   1.0028   C.2       1 RES1   0.0000
    19 C19      8.9562  19.8030   1.2651   C.2       1 RES1   0.0000
    20 C20      6.5707  17.5669   4.4630   C.3       1 RES1   0.0000
    21 S21      7.4297  16.4976   5.6055   S.o2      1 RES1   0.0000
    22 O22      8.4388  15.8387   4.8237   O.2       1 RES1   0.0000
    23 O23      7.8267  17.1810   6.7932   O.2       1 RES1   0.0000
    24 C24      6.1927  15.2388   6.1317   C.3       1 RES1   0.0000
    25 C25      5.0483  16.0442   6.7935   C.3       1 RES1   0.0000
    26 C26      6.8310  14.2564   7.1442   C.3       1 RES1   0.0000
    27 C27      5.5813  14.5069   4.9099   C.3       1 RES1   0.0000
    28 C28     10.8745  21.3454   5.7693   C.2       1 RES1   0.0000
    29 O29     11.1335  22.5208   5.5664   O.2       1 RES1   0.0000
    30 N30     11.6952  20.3243   5.3253   N.am      1 RES1   0.0000
    31 C31     12.8986  20.5562   4.5078   C.3       1 RES1   0.0000
    32 C32     12.5162  20.2131   3.0409   C.3       1 RES1   0.0000
    33 O33     13.7130  20.5525   2.2492   O.3       1 RES1   0.0000
    34 C34     14.0194  19.6320   5.0416   C.3       1 RES1   0.0000
    35 C35     13.8355  18.1287   5.0181   C.2       1 RES1   0.0000
    36 C36     13.2680  17.4055   6.0731   C.2       1 RES1   0.0000
    37 C37     13.0493  16.0232   6.0169   C.2       1 RES1   0.0000
    38 C38     13.4217  15.3302   4.8591   C.2       1 RES1   0.0000
    39 C39     13.9656  16.0294   3.7843   C.2       1 RES1   0.0000
    40 C40     14.1748  17.4097   3.8593   C.2       1 RES1   0.0000
@<TRIPOS>BOND
     1     1     2    1
     2     2     3    1
     3     2     4    1
     4     4     5    1
     5     5     6   am
     6     6     7    2
     7     6     8    1
     8     8     9    1
     9     9    10    1
    10    10    11    2
    11    11    12    1
    12    12    13    2
    13    13    14    1
    14    14    15    2
    15    15    16    1
    16    16    17    2
    17    17    18    1
    18    18    19    2
    19     8    20    1
    20    20    21    1
    21    21    22    2
    22    21    23    2
    23    21    24    1
    24    24    25    1
    25    24    26    1
    26    24    27    1
    27     4    28    1
    28    28    29    2
    29    28    30   am
    30    30    31    1
    31    31    32    1
    32    32    33    1
    33    31    34    1
    34    34    35    1
    35    35    36    2
    36    36    37    1
    37    37    38    2
    38    38    39    1
    39    39    40    2
    40    19    10    1
    41    40    35    1
    42    19    14    1
@<TRIPOS>SUBSTRUCTURE
     1 RES1        1 GROUP             0 ****  ****    0  
@<TRIPOS>MOLECULE
ligand_56
    40    42     1     0     0
SMALL
NO_CHARGES
****
Generated from the CSD

@<TRIPOS>ATOM
     1 C1       2.6969  17.3556   8.2831   C.3       1 RES1   0.0000
     2 C2       4.0271  17.9089   7.7459   C.3       1 RES1   0.0000
     3 C3       5.1841  16.8876   7.8451   C.3       1 RES1   0.0000
     4 C4       3.9110  18.3049   6.2535   C.3       1 RES1   0.0000
     5 N5       5.1305  18.9471   5.6972   N.am      1 RES1   0.0000
     6 C6       5.9737  18.3475   4.8121   C.2       1 RES1   0.0000
     7 O7       5.8025  17.1982   4.3876   O.2       1 RES1   0.0000
     8 C8       7.1227  19.2353   4.2892   C.3       1 RES1   0.0000
     9 C9       6.8279  19.4331   2.7799   C.3       1 RES1   0.0000
    10 C10      7.8090  20.4589   2.1852   C.2       1 RES1   0.0000
    11 C11      7.7147  21.7963   2.3422   C.2       1 RES1   0.0000
    12 C12      8.6826  22.6752   1.7121   C.2       1 RES1   0.0000
    13 C13      9.6893  22.1553   0.9563   C.2       1 RES1   0.0000
    14 C14      9.8147  20.7369   0.7668   C.2       1 RES1   0.0000
    15 C15     10.8947  20.2214  -0.0280   C.2       1 RES1   0.0000
    16 C16     11.0077  18.8694  -0.2211   C.2       1 RES1   0.0000
    17 C17     10.0702  17.9739   0.3636   C.2       1 RES1   0.0000
    18 C18      9.0266  18.4749   1.1464   C.2       1 RES1   0.0000
    19 C19      8.8969  19.8540   1.3500   C.2       1 RES1   0.0000
    20 C20      8.5304  18.5970   4.5183   C.3       1 RES1   0.0000
    21 S21      8.9944  18.7009   6.2390   S.o2      1 RES1   0.0000
    22 O22      9.1375  20.1044   6.5097   O.2       1 RES1   0.0000
    23 O23      8.1372  17.9292   7.0788   O.2       1 RES1   0.0000
    24 C24     10.6574  17.9180   6.3521   C.3       1 RES1   0.0000
    25 C25     10.4571  16.4635   5.8615   C.3       1 RES1   0.0000
    26 C26     11.1575  17.9404   7.8174   C.3       1 RES1   0.0000
    27 C27     11.6611  18.5879   5.3793   C.3       1 RES1   0.0000
    28 C28      2.7869  19.3774   5.9855   C.2       1 RES1   0.0000
    29 O29      2.8284  20.5465   6.3336   O.2       1 RES1   0.0000
    30 N30      1.6765  18.8338   5.3648   N.am      1 RES1   0.0000
    31 C31      0.4582  19.6083   5.0716   C.3       1 RES1   0.0000
    32 C32     -0.5850  19.2308   6.1602   C.3       1 RES1   0.0000
    33 O33     -1.7463  20.0975   5.8873   O.3       1 RES1   0.0000
    34 C34     -0.0224  19.2167   3.6536   C.3       1 RES1   0.0000
    35 C35      0.8442  19.5230   2.4496   C.2       1 RES1   0.0000
    36 C36      0.7639  20.7184   1.7269   C.2       1 RES1   0.0000
    37 C37      1.6102  21.0153   0.6511   C.2       1 RES1   0.0000
    38 C38      2.5743  20.0730   0.2743   C.2       1 RES1   0.0000
    39 C39      2.6926  18.8855   0.9925   C.2       1 RES1   0.0000
    40 C40      1.8390  18.6082   2.0646   C.2       1 RES1   0.0000
@<TRIPOS>BOND
     1     1     2    1
     2     2     3    1
     3     2     4    1
     4     4     5    1
     5     5     6   am
     6     6     7    2
     7     6     8    1
     8     8     9    1
     9     9    10    1
    10    10    11    2
    11    11    12    1
    12    12    13    2
    13    13    14    1
    14    14    15    2
    15    15    16    1
    16    16    17    2
    17    17    18    1
    18    18    19    2
    19     8    20    1
    20    20    21    1
    21    21    22    2
    22    21    23    2
    23    21    24    1
    24    24    25    1
    25    24    26    1
    26    24    27    1
    27     4    28    1
    28    28    29    2
    29    28    30   am
    30    30    31    1
    31    31    32    1
    32    32    33    1
    33    31    34    1
    34    34    35    1
    35    35    36    2
    36    36    37    1
    37    37    38    2
    38    38    39    1
    39    39    40    2
    40    19    10    1
    41    40    35    1
    42    19    14    1
@<TRIPOS>SUBSTRUCTURE
     1 RES1        1 GROUP             0 ****  ****    0  
@<TRIPOS>MOLECULE
ligand_57
    40    42     1     0     0
SMALL
NO_CHARGES
****
Generated from the CSD

@<TRIPOS>ATOM
     1 C1       3.2330  15.6676   6.3368   C.3       1 RES1   0.0000
     2 C2       4.2206  16.5553   5.5617   C.3       1 RES1   0.0000
     3 C3       5.4235  15.7629   4.9991   C.3       1 RES1   0.0000
     4 C4       3.5349  17.2392   4.3534   C.3       1 RES1   0.0000
     5 N5       4.4089  18.1866   3.6134   N.am      1 RES1   0.0000
     6 C6       4.9035  17.9548   2.3662   C.2       1 RES1   0.0000
     7 O7       4.6587  16.9274   1.7219   O.2       1 RES1   0.0000
     8 C8       5.7245  19.1103   1.7559   C.3       1 RES1   0.0000
     9 C9       6.8594  19.3846   2.7760   C.3       1 RES1   0.0000
    10 C10      7.8631  20.3901   2.1842   C.2       1 RES1   0.0000
    11 C11      7.8832  21.7115   2.4592   C.2       1 RES1   0.0000
    12 C12      8.8599  22.5749   1.8213   C.2       1 RES1   0.0000
    13 C13      9.7591  22.0571   0.9393   C.2       1 RES1   0.0000
    14 C14      9.7613  20.6559   0.6226   C.2       1 RES1   0.0000
    15 C15     10.7306  20.1407  -0.3041   C.2       1 RES1   0.0000
    16 C16     10.7251  18.8068  -0.6178   C.2       1 RES1   0.0000
    17 C17      9.7736  17.9287  -0.0290   C.2       1 RES1   0.0000
    18 C18      8.8384  18.4281   0.8815   C.2       1 RES1   0.0000
    19 C19      8.8302  19.7892   1.2093   C.2       1 RES1   0.0000
    20 C20      4.8656  20.3899   1.4978   C.3       1 RES1   0.0000
    21 S21      3.8079  20.1603   0.0782   S.o2      1 RES1   0.0000
    22 O22      4.6983  20.0238  -1.0409   O.2       1 RES1   0.0000
    23 O23      2.8244  19.1494   0.2931   O.2       1 RES1   0.0000
    24 C24      2.8811  21.7405  -0.1102   C.3       1 RES1   0.0000
    25 C25      2.0959  21.9123   1.2128   C.3       1 RES1   0.0000
    26 C26      1.9141  21.6497  -1.3161   C.3       1 RES1   0.0000
    27 C27      3.8463  22.9481  -0.2218   C.3       1 RES1   0.0000
    28 C28      2.3050  18.1344   4.7674   C.2       1 RES1   0.0000
    29 O29      1.1334  17.8681   4.5529   O.2       1 RES1   0.0000
    30 N30      2.6935  19.3281   5.3486   N.am      1 RES1   0.0000
    31 C31      1.7455  20.4017   5.6936   C.3       1 RES1   0.0000
    32 C32      1.8642  21.4788   4.5793   C.3       1 RES1   0.0000
    33 O33      0.8354  22.4814   4.9119   O.3       1 RES1   0.0000
    34 C34      2.1469  20.9609   7.0797   C.3       1 RES1   0.0000
    35 C35      2.0762  20.0715   8.3037   C.2       1 RES1   0.0000
    36 C36      0.9373  19.9582   9.1088   C.2       1 RES1   0.0000
    37 C37      0.8635  19.0885  10.2042   C.2       1 RES1   0.0000
    38 C38      1.9795  18.3030  10.5153   C.2       1 RES1   0.0000
    39 C39      3.1173  18.3776   9.7155   C.2       1 RES1   0.0000
    40 C40      3.1709  19.2511   8.6251   C.2       1 RES1   0.0000
@<TRIPOS>BOND
     1     1     2    1
     2     2     3    1
     3     2     4    1
     4     4     5    1
     5     5     6   am
     6     6     7    2
     7     6     8    1
     8     8     9    1
     9     9    10    1
    10    10    11    2
    11    11    12    1
    12    12    13    2
    13    13    14    1
    14    14    15    2
    15    15    16    1
    16    16    17    2
    17    17    18    1
    18    18    19    2
    19     8    20    1
    20    20    21    1
    21    21    22    2
    22    21    23    2
    23    21    24    1
    24    24    25    1
    25    24    26    1
    26    24    27    1
    27     4    28    1
    28    28    29    2
    29    28    30   am
    30    30    31    1
    31    31    32    1
    32    32    33    1
    33    31    34    1
    34    34    35    1
    35    35    36    2
    36    36    37    1
    37    37    38    2
    38    38    39    1
    39    39    40    2
    40    19    10    1
    41    40    35    1
    42    19    14    1
@<TRIPOS>SUBSTRUCTURE
     1 RES1        1 GROUP             0 ****  ****    0  
@<TRIPOS>MOLECULE
ligand_58
    40    42     1     0     0
SMALL
NO_CHARGES
****
Generated from the CSD

@<TRIPOS>ATOM
     1 C1       1.0836  14.9515   2.2110   C.3       1 RES1   0.0000
     2 C2       1.8365  16.2604   1.9209   C.3       1 RES1   0.0000
     3 C3       1.5838  17.3467   2.9922   C.3       1 RES1   0.0000
     4 C4       3.3672  16.0313   1.8732   C.3       1 RES1   0.0000
     5 N5       4.1523  17.2381   1.5040   N.am      1 RES1   0.0000
     6 C6       4.9551  17.9206   2.3663   C.2       1 RES1   0.0000
     7 O7       5.1066  17.5954   3.5502   O.2       1 RES1   0.0000
     8 C8       5.7510  19.0876   1.7446   C.3       1 RES1   0.0000
     9 C9       6.9438  19.3231   2.7067   C.3       1 RES1   0.0000
    10 C10      7.9170  20.3454   2.0931   C.2       1 RES1   0.0000
    11 C11      7.9594  21.6565   2.4118   C.2       1 RES1   0.0000
    12 C12      8.9022  22.5385   1.7489   C.2       1 RES1   0.0000
    13 C13      9.7468  22.0488   0.7993   C.2       1 RES1   0.0000
    14 C14      9.7238  20.6594   0.4351   C.2       1 RES1   0.0000
    15 C15     10.6357  20.1737  -0.5630   C.2       1 RES1   0.0000
    16 C16     10.6055  18.8514  -0.9216   C.2       1 RES1   0.0000
    17 C17      9.6851  17.9564  -0.3096   C.2       1 RES1   0.0000
    18 C18      8.8061  18.4267   0.6698   C.2       1 RES1   0.0000
    19 C19      8.8236  19.7757   1.0441   C.2       1 RES1   0.0000
    20 C20      4.8906  20.3807   1.5728   C.3       1 RES1   0.0000
    21 S21      3.7950  20.2243   0.1722   S.o2      1 RES1   0.0000
    22 O22      4.6556  20.0853  -0.9697   O.2       1 RES1   0.0000
    23 O23      2.7812  19.2431   0.3842   O.2       1 RES1   0.0000
    24 C24      2.9209  21.8401   0.0438   C.3       1 RES1   0.0000
    25 C25      2.1717  22.0058   1.3882   C.3       1 RES1   0.0000
    26 C26      1.9248  21.8135  -1.1415   C.3       1 RES1   0.0000
    27 C27      3.9256  23.0156  -0.0606   C.3       1 RES1   0.0000
    28 C28      3.7993  14.9755   0.7850   C.2       1 RES1   0.0000
    29 O29      4.2066  13.8485   1.0166   O.2       1 RES1   0.0000
    30 N30      3.7451  15.4886  -0.4985   N.am      1 RES1   0.0000
    31 C31      4.2432  14.7607  -1.6783   C.3       1 RES1   0.0000
    32 C32      5.6289  15.3711  -2.0288   C.3       1 RES1   0.0000
    33 O33      6.1308  14.5516  -3.1472   O.3       1 RES1   0.0000
    34 C34      3.2210  14.9583  -2.8235   C.3       1 RES1   0.0000
    35 C35      1.8151  14.4117  -2.6853   C.2       1 RES1   0.0000
    36 C36      1.4446  13.1265  -3.0963   C.2       1 RES1   0.0000
    37 C37      0.1558  12.6104  -2.9104   C.2       1 RES1   0.0000
    38 C38     -0.8087  13.4164  -2.2945   C.2       1 RES1   0.0000
    39 C39     -0.4599  14.6905  -1.8531   C.2       1 RES1   0.0000
    40 C40      0.8326  15.1872  -2.0466   C.2       1 RES1   0.0000
@<TRIPOS>BOND
     1     1     2    1
     2     2     3    1
     3     2     4    1
     4     4     5    1
     5     5     6   am
     6     6     7    2
     7     6     8    1
     8     8     9    1
     9     9    10    1
    10    10    11    2
    11    11    12    1
    12    12    13    2
    13    13    14    1
    14    14    15    2
    15    15    16    1
    16    16    17    2
    17    17    18    1
    18    18    19    2
    19     8    20    1
    20    20    21    1
    21    21    22    2
    22    21    23    2
    23    21    24    1
    24    24    25    1
    25    24    26    1
    26    24    27    1
    27     4    28    1
    28    28    29    2
    29    28    30   am
    30    30    31    1
    31    31    32    1
    32    32    33    1
    33    31    34    1
    34    34    35    1
    35    35    36    2
    36    36    37    1
    37    37    38    2
    38    38    39    1
    39    39    40    2
    40    19    10    1
    41    40    35    1
    42    19    14    1
@<TRIPOS>SUBSTRUCTURE
     1 RES1        1 GROUP             0 ****  ****    0  
@<TRIPOS>MOLECULE
ligand_59
    40    42     1     0     0
SMALL
NO_CHARGES
****
Generated from the CSD

@<TRIPOS>ATOM
     1 C1       9.0632  21.5740   9.2744   C.3       1 RES1   0.0000
     2 C2       8.9795  20.4972   8.1799   C.3       1 RES1   0.0000
     3 C3       8.0323  19.3340   8.5555   C.3       1 RES1   0.0000
     4 C4       8.4528  21.0867   6.8485   C.3       1 RES1   0.0000
     5 N5       8.4350  20.1203   5.7195   N.am      1 RES1   0.0000
     6 C6       7.2996  19.6033   5.1741   C.2       1 RES1   0.0000
     7 O7       6.1652  19.8919   5.5743   O.2       1 RES1   0.0000
     8 C8       7.5118  18.6935   3.9456   C.3       1 RES1   0.0000
     9 C9       6.8682  19.4568   2.7594   C.3       1 RES1   0.0000
    10 C10      7.8751  20.4649   2.1778   C.2       1 RES1   0.0000
    11 C11      7.8548  21.7948   2.4084   C.2       1 RES1   0.0000
    12 C12      8.8398  22.6589   1.7843   C.2       1 RES1   0.0000
    13 C13      9.7878  22.1329   0.9600   C.2       1 RES1   0.0000
    14 C14      9.8338  20.7225   0.6913   C.2       1 RES1   0.0000
    15 C15     10.8536  20.1994  -0.1747   C.2       1 RES1   0.0000
    16 C16     10.8904  18.8560  -0.4430   C.2       1 RES1   0.0000
    17 C17      9.9331  17.9763   0.1337   C.2       1 RES1   0.0000
    18 C18      8.9484  18.4839   0.9855   C.2       1 RES1   0.0000
    19 C19      8.8967  19.8545   1.2663   C.2       1 RES1   0.0000
    20 C20      6.8767  17.2774   4.1268   C.3       1 RES1   0.0000
    21 S21      7.8496  16.2924   5.2537   S.o2      1 RES1   0.0000
    22 O22      9.1080  16.0890   4.5913   O.2       1 RES1   0.0000
    23 O23      7.8548  16.8284   6.5759   O.2       1 RES1   0.0000
    24 C24      6.9864  14.6695   5.3656   C.3       1 RES1   0.0000
    25 C25      5.5730  14.9963   5.9058   C.3       1 RES1   0.0000
    26 C26      7.7430  13.7303   6.3368   C.3       1 RES1   0.0000
    27 C27      6.7980  14.0355   3.9639   C.3       1 RES1   0.0000
    28 C28      9.3459  22.2639   6.2989   C.2       1 RES1   0.0000
    29 O29      9.0317  23.4433   6.2876   O.2       1 RES1   0.0000
    30 N30     10.5285  21.8125   5.7409   N.am      1 RES1   0.0000
    31 C31     11.4667  22.6918   5.0220   C.3       1 RES1   0.0000
    32 C32     11.9231  21.9178   3.7538   C.3       1 RES1   0.0000
    33 O33     12.7769  22.8684   3.0178   O.3       1 RES1   0.0000
    34 C34     12.6526  22.9947   5.9692   C.3       1 RES1   0.0000
    35 C35     12.4183  23.7643   7.2526   C.2       1 RES1   0.0000
    36 C36     12.4949  25.1588   7.3394   C.2       1 RES1   0.0000
    37 C37     12.2190  25.8639   8.5177   C.2       1 RES1   0.0000
    38 C38     11.8589  25.1444   9.6630   C.2       1 RES1   0.0000
    39 C39     11.7507  23.7573   9.5978   C.2       1 RES1   0.0000
    40 C40     12.0289  23.0716   8.4116   C.2       1 RES1   0.0000
@<TRIPOS>BOND
     1     1     2    1
     2     2     3    1
     3     2     4    1
     4     4     5    1
     5     5     6   am
     6     6     7    2
     7     6     8    1
     8     8     9    1
     9     9    10    1
    10    10    11    2
    11    11    12    1
    12    12    13    2
    13    13    14    1
    14    14    15    2
    15    15    16    1
    16    16    17    2
    17    17    18    1
    18    18    19    2
    19     8    20    1
    20    20    21    1
    21    21    22    2
    22    21    23    2
    23    21    24    1
    24    24    25    1
    25    24    26    1
    26    24    27    1
    27     4    28    1
    28    28    29    2
    29    28    30   am
    30    30    31    1
    31    31    32    1
    32    32    33    1
    33    31    34    1
    34    34    35    1
    35    35    36    2
    36    36    37    1
    37    37    38    2
    38    38    39    1
    39    39    40    2
    40    19    10    1
    41    40    35    1
    42    19    14    1
@<TRIPOS>SUBSTRUCTURE
     1 RES1        1 GROUP             0 ****  ****    0  
@<TRIPOS>MOLECULE
ligand_60
    40    42     1     0     0
SMALL
NO_CHARGES
****
Generated from the CSD

@<TRIPOS>ATOM
     1 C1      -0.0366  17.5383   3.0787   C.3       1 RES1   0.0000
     2 C2       1.0211  18.6495   2.9745   C.3       1 RES1   0.0000
     3 C3       0.6453  19.9119   3.7847   C.3       1 RES1   0.0000
     4 C4       2.3944  18.1721   3.5075   C.3       1 RES1   0.0000
     5 N5       3.4877  19.1665   3.3502   N.am      1 RES1   0.0000
     6 C6       4.7065  19.0631   3.9483   C.2       1 RES1   0.0000
     7 O7       5.0196  18.1210   4.6864   O.2       1 RES1   0.0000
     8 C8       5.7234  20.1604   3.5697   C.3       1 RES1   0.0000
     9 C9       6.8410  19.4250   2.7860   C.3       1 RES1   0.0000
    10 C10      7.7116  20.4468   2.0333   C.2       1 RES1   0.0000
    11 C11      7.5516  21.7859   2.0904   C.2       1 RES1   0.0000
    12 C12      8.4149  22.6578   1.3154   C.2       1 RES1   0.0000
    13 C13      9.3890  22.1293   0.5237   C.2       1 RES1   0.0000
    14 C14      9.5823  20.7084   0.4382   C.2       1 RES1   0.0000
    15 C15     10.6260  20.1847  -0.3984   C.2       1 RES1   0.0000
    16 C16     10.8027  18.8290  -0.4918   C.2       1 RES1   0.0000
    17 C17      9.9671  17.9383   0.2371   C.2       1 RES1   0.0000
    18 C18      8.9595  18.4485   1.0600   C.2       1 RES1   0.0000
    19 C19      8.7653  19.8312   1.1629   C.2       1 RES1   0.0000
    20 C20      6.2961  20.9083   4.8164   C.3       1 RES1   0.0000
    21 S21      5.0806  22.0295   5.4891   S.o2      1 RES1   0.0000
    22 O22      4.8823  23.0276   4.4751   O.2       1 RES1   0.0000
    23 O23      3.9393  21.3458   6.0041   O.2       1 RES1   0.0000
    24 C24      5.8912  22.8291   6.9364   C.3       1 RES1   0.0000
    25 C25      6.2472  21.6682   7.8967   C.3       1 RES1   0.0000
    26 C26      4.9139  23.8221   7.6122   C.3       1 RES1   0.0000
    27 C27      7.2261  23.5042   6.5307   C.3       1 RES1   0.0000
    28 C28      2.9467  16.9079   2.7444   C.2       1 RES1   0.0000
    29 O29      3.3461  16.8975   1.5911   O.2       1 RES1   0.0000
    30 N30      2.8627  15.7549   3.5040   N.am      1 RES1   0.0000
    31 C31      3.2433  14.4259   2.9951   C.3       1 RES1   0.0000
    32 C32      1.9227  13.6890   2.6361   C.3       1 RES1   0.0000
    33 O33      2.3533  12.4099   2.0422   O.3       1 RES1   0.0000
    34 C34      4.0239  13.6956   4.1143   C.3       1 RES1   0.0000
    35 C35      5.3529  14.2438   4.5912   C.2       1 RES1   0.0000
    36 C36      6.5820  13.8810   4.0293   C.2       1 RES1   0.0000
    37 C37      7.7999  14.4382   4.4392   C.2       1 RES1   0.0000
    38 C38      7.7915  15.3940   5.4617   C.2       1 RES1   0.0000
    39 C39      6.5796  15.7918   6.0212   C.2       1 RES1   0.0000
    40 C40      5.3741  15.2247   5.5973   C.2       1 RES1   0.0000
@<TRIPOS>BOND
     1     1     2    1
     2     2     3    1
     3     2     4    1
     4     4     5    1
     5     5     6   am
     6     6     7    2
     7     6     8    1
     8     8     9    1
     9     9    10    1
    10    10    11    2
    11    11    12    1
    12    12    13    2
    13    13    14    1
    14    14    15    2
    15    15    16    1
    16    16    17    2
    17    17    18    1
    18    18    19    2
    19     8    20    1
    20    20    21    1
    21    21    22    2
    22    21    23    2
    23    21    24    1
    24    24    25    1
    25    24    26    1
    26    24    27    1
    27     4    28    1
    28    28    29    2
    29    28    30   am
    30    30    31    1
    31    31    32    1
    32    32    33    1
    33    31    34    1
    34    34    35    1
    35    35    36    2
    36    36    37    1
    37    37    38    2
    38    38    39    1
    39    39    40    2
    40    19    10    1
    41    40    35    1
    42    19    14    1
@<TRIPOS>SUBSTRUCTURE
     1 RES1        1 GROUP             0 ****  ****    0  
@<TRIPOS>MOLECULE
ligand_61
    40    42     1     0     0
SMALL
NO_CHARGES
****
Generated from the CSD

@<TRIPOS>ATOM
     1 C1       2.6216  13.6855   1.8291   C.3       1 RES1   0.0000
     2 C2       3.1517  15.0483   1.3537   C.3       1 RES1   0.0000
     3 C3       2.1010  16.1761   1.4781   C.3       1 RES1   0.0000
     4 C4       4.3820  15.4942   2.1816   C.3       1 RES1   0.0000
     5 N5       5.0061  16.7588   1.7119   N.am      1 RES1   0.0000
     6 C6       4.9529  17.9362   2.3935   C.2       1 RES1   0.0000
     7 O7       4.3777  18.0622   3.4815   O.2       1 RES1   0.0000
     8 C8       5.7459  19.1006   1.7635   C.3       1 RES1   0.0000
     9 C9       6.8893  19.4023   2.7664   C.3       1 RES1   0.0000
    10 C10      7.8486  20.4462   2.1677   C.2       1 RES1   0.0000
    11 C11      7.8289  21.7651   2.4547   C.2       1 RES1   0.0000
    12 C12      8.7652  22.6665   1.8089   C.2       1 RES1   0.0000
    13 C13      9.6665  22.1871   0.9074   C.2       1 RES1   0.0000
    14 C14      9.7104  20.7896   0.5777   C.2       1 RES1   0.0000
    15 C15     10.6807  20.3156  -0.3696   C.2       1 RES1   0.0000
    16 C16     10.7148  18.9850  -0.6957   C.2       1 RES1   0.0000
    17 C17      9.8034  18.0702  -0.0995   C.2       1 RES1   0.0000
    18 C18      8.8673  18.5297   0.8308   C.2       1 RES1   0.0000
    19 C19      8.8189  19.8868   1.1714   C.2       1 RES1   0.0000
    20 C20      4.8620  20.3633   1.5069   C.3       1 RES1   0.0000
    21 S21      3.8459  20.1343   0.0571   S.o2      1 RES1   0.0000
    22 O22      3.5606  18.7271   0.0116   O.2       1 RES1   0.0000
    23 O23      2.7547  21.0522   0.0097   O.2       1 RES1   0.0000
    24 C24      4.9251  20.5518  -1.3755   C.3       1 RES1   0.0000
    25 C25      5.3773  22.0123  -1.1328   C.3       1 RES1   0.0000
    26 C26      4.1248  20.4359  -2.6961   C.3       1 RES1   0.0000
    27 C27      6.2059  19.6791  -1.3873   C.3       1 RES1   0.0000
    28 C28      5.5728  14.4627   2.1215   C.2       1 RES1   0.0000
    29 O29      5.9295  13.7412   3.0391   O.2       1 RES1   0.0000
    30 N30      6.2486  14.5069   0.9153   N.am      1 RES1   0.0000
    31 C31      7.4879  13.7531   0.6587   C.3       1 RES1   0.0000
    32 C32      8.6610  14.7655   0.7807   C.3       1 RES1   0.0000
    33 O33      9.8802  13.9528   0.6149   O.3       1 RES1   0.0000
    34 C34      7.3915  13.1530  -0.7647   C.3       1 RES1   0.0000
    35 C35      7.2554  14.0682  -1.9639   C.2       1 RES1   0.0000
    36 C36      6.0230  14.4888  -2.4760   C.2       1 RES1   0.0000
    37 C37      5.9099  15.3817  -3.5491   C.2       1 RES1   0.0000
    38 C38      7.0793  15.8701  -4.1433   C.2       1 RES1   0.0000
    39 C39      8.3192  15.4874  -3.6373   C.2       1 RES1   0.0000
    40 C40      8.4112  14.5960  -2.5642   C.2       1 RES1   0.0000
@<TRIPOS>BOND
     1     1     2    1
     2     2     3    1
     3     2     4    1
     4     4     5    1
     5     5     6   am
     6     6     7    2
     7     6     8    1
     8     8     9    1
     9     9    10    1
    10    10    11    2
    11    11    12    1
    12    12    13    2
    13    13    14    1
    14    14    15    2
    15    15    16    1
    16    16    17    2
    17    17    18    1
    18    18    19    2
    19     8    20    1
    20    20    21    1
    21    21    22    2
    22    21    23    2
    23    21    24    1
    24    24    25    1
    25    24    26    1
    26    24    27    1
    27     4    28    1
    28    28    29    2
    29    28    30   am
    30    30    31    1
    31    31    32    1
    32    32    33    1
    33    31    34    1
    34    34    35    1
    35    35    36    2
    36    36    37    1
    37    37    38    2
    38    38    39    1
    39    39    40    2
    40    19    10    1
    41    40    35    1
    42    19    14    1
@<TRIPOS>SUBSTRUCTURE
     1 RES1        1 GROUP             0 ****  ****    0  
@<TRIPOS>MOLECULE
ligand_62
    40    42     1     0     0
SMALL
NO_CHARGES
****
Generated from the CSD

@<TRIPOS>ATOM
     1 C1       6.4702  23.9337   7.1760   C.3       1 RES1   0.0000
     2 C2       6.5843  22.9416   6.0067   C.3       1 RES1   0.0000
     3 C3       7.8088  23.2185   5.1038   C.3       1 RES1   0.0000
     4 C4       6.7272  21.4859   6.5149   C.3       1 RES1   0.0000
     5 N5       6.6991  20.4602   5.4396   N.am      1 RES1   0.0000
     6 C6       7.7909  19.7632   5.0198   C.2       1 RES1   0.0000
     7 O7       8.9266  19.9479   5.4741   O.2       1 RES1   0.0000
     8 C8       7.5068  18.6457   3.9941   C.3       1 RES1   0.0000
     9 C9       6.8387  19.3596   2.7908   C.3       1 RES1   0.0000
    10 C10      7.8274  20.3550   2.1581   C.2       1 RES1   0.0000
    11 C11      7.7792  21.6947   2.3160   C.2       1 RES1   0.0000
    12 C12      8.7490  22.5436   1.6488   C.2       1 RES1   0.0000
    13 C13      9.7108  21.9931   0.8571   C.2       1 RES1   0.0000
    14 C14      9.7865  20.5714   0.6658   C.2       1 RES1   0.0000
    15 C15     10.8202  20.0230  -0.1675   C.2       1 RES1   0.0000
    16 C16     10.8854  18.6681  -0.3622   C.2       1 RES1   0.0000
    17 C17      9.9438  17.8016   0.2587   C.2       1 RES1   0.0000
    18 C18      8.9455  18.3345   1.0787   C.2       1 RES1   0.0000
    19 C19      8.8648  19.7170   1.2843   C.2       1 RES1   0.0000
    20 C20      6.5921  17.5170   4.5695   C.3       1 RES1   0.0000
    21 S21      7.5088  16.4794   5.6964   S.o2      1 RES1   0.0000
    22 O22      8.5141  15.8412   4.8927   O.2       1 RES1   0.0000
    23 O23      7.9187  17.1821   6.8683   O.2       1 RES1   0.0000
    24 C24      6.3199  15.1927   6.2639   C.3       1 RES1   0.0000
    25 C25      5.1736  15.9726   6.9526   C.3       1 RES1   0.0000
    26 C26      7.0111  14.2335   7.2639   C.3       1 RES1   0.0000
    27 C27      5.6941  14.4374   5.0638   C.3       1 RES1   0.0000
    28 C28      5.5470  21.0446   7.4625   C.2       1 RES1   0.0000
    29 O29      5.6381  20.8605   8.6656   O.2       1 RES1   0.0000
    30 N30      4.3755  20.8023   6.7680   N.am      1 RES1   0.0000
    31 C31      3.1651  20.2486   7.3993   C.3       1 RES1   0.0000
    32 C32      3.1142  18.7411   7.0242   C.3       1 RES1   0.0000
    33 O33      1.9473  18.2097   7.7524   O.3       1 RES1   0.0000
    34 C34      1.9449  21.0215   6.8435   C.3       1 RES1   0.0000
    35 C35      1.7968  22.5029   7.1220   C.2       1 RES1   0.0000
    36 C36      1.1240  23.0135   8.2377   C.2       1 RES1   0.0000
    37 C37      1.0435  24.3838   8.5162   C.2       1 RES1   0.0000
    38 C38      1.6546  25.2854   7.6371   C.2       1 RES1   0.0000
    39 C39      2.3523  24.8029   6.5324   C.2       1 RES1   0.0000
    40 C40      2.4225  23.4310   6.2723   C.2       1 RES1   0.0000
@<TRIPOS>BOND
     1     1     2    1
     2     2     3    1
     3     2     4    1
     4     4     5    1
     5     5     6   am
     6     6     7    2
     7     6     8    1
     8     8     9    1
     9     9    10    1
    10    10    11    2
    11    11    12    1
    12    12    13    2
    13    13    14    1
    14    14    15    2
    15    15    16    1
    16    16    17    2
    17    17    18    1
    18    18    19    2
    19     8    20    1
    20    20    21    1
    21    21    22    2
    22    21    23    2
    23    21    24    1
    24    24    25    1
    25    24    26    1
    26    24    27    1
    27     4    28    1
    28    28    29    2
    29    28    30   am
    30    30    31    1
    31    31    32    1
    32    32    33    1
    33    31    34    1
    34    34    35    1
    35    35    36    2
    36    36    37    1
    37    37    38    2
    38    38    39    1
    39    39    40    2
    40    19    10    1
    41    40    35    1
    42    19    14    1
@<TRIPOS>SUBSTRUCTURE
     1 RES1        1 GROUP             0 ****  ****    0  
@<TRIPOS>MOLECULE
ligand_63
    40    42     1     0     0
SMALL
NO_CHARGES
****
Generated from the CSD

@<TRIPOS>ATOM
     1 C1       1.9706  18.4032   7.9027   C.3       1 RES1   0.0000
     2 C2       3.2787  19.0680   7.4433   C.3       1 RES1   0.0000
     3 C3       4.3493  19.1169   8.5581   C.3       1 RES1   0.0000
     4 C4       3.9110  18.3049   6.2535   C.3       1 RES1   0.0000
     5 N5       5.1305  18.9471   5.6972   N.am      1 RES1   0.0000
     6 C6       5.9773  18.3451   4.8172   C.2       1 RES1   0.0000
     7 O7       5.8076  17.1948   4.3947   O.2       1 RES1   0.0000
     8 C8       7.1289  19.2312   4.2972   C.3       1 RES1   0.0000
     9 C9       6.8410  19.4250   2.7860   C.3       1 RES1   0.0000
    10 C10      7.8250  20.4490   2.1930   C.2       1 RES1   0.0000
    11 C11      7.7300  21.7869   2.3455   C.2       1 RES1   0.0000
    12 C12      8.7010  22.6638   1.7175   C.2       1 RES1   0.0000
    13 C13      9.7113  22.1417   0.9682   C.2       1 RES1   0.0000
    14 C14      9.8377  20.7227   0.7836   C.2       1 RES1   0.0000
    15 C15     10.9215  20.2047  -0.0043   C.2       1 RES1   0.0000
    16 C16     11.0354  18.8522  -0.1929   C.2       1 RES1   0.0000
    17 C17     10.0950  17.9584   0.3900   C.2       1 RES1   0.0000
    18 C18      9.0476  18.4619   1.1661   C.2       1 RES1   0.0000
    19 C19      8.9169  19.8416   1.3649   C.2       1 RES1   0.0000
    20 C20      8.5354  18.5932   4.5344   C.3       1 RES1   0.0000
    21 S21      8.9893  18.6969   6.2577   S.o2      1 RES1   0.0000
    22 O22      9.1313  20.1004   6.5293   O.2       1 RES1   0.0000
    23 O23      8.1269  17.9256   7.0925   O.2       1 RES1   0.0000
    24 C24     10.6513  17.9134   6.3806   C.3       1 RES1   0.0000
    25 C25     10.4533  16.4589   5.8888   C.3       1 RES1   0.0000
    26 C26     11.1429  17.9356   7.8488   C.3       1 RES1   0.0000
    27 C27     11.6610  18.5829   5.4138   C.3       1 RES1   0.0000
    28 C28      2.9545  18.2089   5.0039   C.2       1 RES1   0.0000
    29 O29      2.6339  19.1426   4.2862   O.2       1 RES1   0.0000
    30 N30      2.4328  16.9389   4.8353   N.am      1 RES1   0.0000
    31 C31      1.4546  16.6030   3.7863   C.3       1 RES1   0.0000
    32 C32      0.0627  16.5415   4.4755   C.3       1 RES1   0.0000
    33 O33     -0.8921  16.3018   3.3777   O.3       1 RES1   0.0000
    34 C34      1.8583  15.2366   3.1819   C.3       1 RES1   0.0000
    35 C35      3.1736  15.0947   2.4443   C.2       1 RES1   0.0000
    36 C36      3.3121  15.3085   1.0684   C.2       1 RES1   0.0000
    37 C37      4.5442  15.2315   0.4068   C.2       1 RES1   0.0000
    38 C38      5.6881  14.9186   1.1504   C.2       1 RES1   0.0000
    39 C39      5.5826  14.7257   2.5257   C.2       1 RES1   0.0000
    40 C40      4.3436  14.8083   3.1681   C.2       1 RES1   0.0000
@<TRIPOS>BOND
     1     1     2    1
     2     2     3    1
     3     2     4    1
     4     4     5    1
     5     5     6   am
     6     6     7    2
     7     6     8    1
     8     8     9    1
     9     9    10    1
    10    10    11    2
    11    11    12    1
    12    12    13    2
    13    13    14    1
    14    14    15    2
    15    15    16    1
    16    16    17    2
    17    17    18    1
    18    18    19    2
    19     8    20    1
    20    20    21    1
    21    21    22    2
    22    21    23    2
    23    21    24    1
    24    24    25    1
    25    24    26    1
    26    24    27    1
    27     4    28    1
    28    28    29    2
    29    28    30   am
    30    30    31    1
    31    31    32    1
    32    32    33    1
    33    31    34    1
    34    34    35    1
    35    35    36    2
    36    36    37    1
    37    37    38    2
    38    38    39    1
    39    39    40    2
    40    19    10    1
    41    40    35    1
    42    19    14    1
@<TRIPOS>SUBSTRUCTURE
     1 RES1        1 GROUP             0 ****  ****    0  
@<TRIPOS>MOLECULE
ligand_64
    40    42     1     0     0
SMALL
NO_CHARGES
****
Generated from the CSD

@<TRIPOS>ATOM
     1 C1       2.6274  13.6810   1.8228   C.3       1 RES1   0.0000
     2 C2       3.1517  15.0483   1.3537   C.3       1 RES1   0.0000
     3 C3       2.0972  16.1716   1.4862   C.3       1 RES1   0.0000
     4 C4       4.3820  15.4942   2.1816   C.3       1 RES1   0.0000
     5 N5       5.0061  16.7588   1.7119   N.am      1 RES1   0.0000
     6 C6       4.9286  17.9429   2.3794   C.2       1 RES1   0.0000
     7 O7       4.3212  18.0778   3.4487   O.2       1 RES1   0.0000
     8 C8       5.7358  19.1038   1.7610   C.3       1 RES1   0.0000
     9 C9       6.8530  19.4147   2.7902   C.3       1 RES1   0.0000
    10 C10      7.8400  20.4365   2.1984   C.2       1 RES1   0.0000
    11 C11      7.8269  21.7610   2.4591   C.2       1 RES1   0.0000
    12 C12      8.7906  22.6397   1.8225   C.2       1 RES1   0.0000
    13 C13      9.7113  22.1332   0.9561   C.2       1 RES1   0.0000
    14 C14      9.7489  20.7291   0.6548   C.2       1 RES1   0.0000
    15 C15     10.7399  20.2264  -0.2556   C.2       1 RES1   0.0000
    16 C16     10.7684  18.8894  -0.5547   C.2       1 RES1   0.0000
    17 C17      9.8308  17.9961   0.0333   C.2       1 RES1   0.0000
    18 C18      8.8743  18.4836   0.9280   C.2       1 RES1   0.0000
    19 C19      8.8314  19.8476   1.2407   C.2       1 RES1   0.0000
    20 C20      4.8570  20.3633   1.4727   C.3       1 RES1   0.0000
    21 S21      3.8173  20.0904   0.0474   S.o2      1 RES1   0.0000
    22 O22      4.7203  19.9641  -1.0628   O.2       1 RES1   0.0000
    23 O23      2.8582  19.0571   0.2661   O.2       1 RES1   0.0000
    24 C24      2.8521  21.6441  -0.1667   C.3       1 RES1   0.0000
    25 C25      2.0523  21.8112   1.1481   C.3       1 RES1   0.0000
    26 C26      1.8972  21.5145  -1.3788   C.3       1 RES1   0.0000
    27 C27      3.7870  22.8746  -0.2855   C.3       1 RES1   0.0000
    28 C28      5.5728  14.4627   2.1215   C.2       1 RES1   0.0000
    29 O29      6.2641  14.2380   1.1410   O.2       1 RES1   0.0000
    30 N30      5.7179  13.7554   3.3014   N.am      1 RES1   0.0000
    31 C31      6.7086  12.6796   3.4786   C.3       1 RES1   0.0000
    32 C32      5.9855  11.5237   4.2249   C.3       1 RES1   0.0000
    33 O33      6.9799  10.4370   4.2920   O.3       1 RES1   0.0000
    34 C34      7.8856  13.2509   4.3053   C.3       1 RES1   0.0000
    35 C35      7.6432  13.7716   5.7069   C.2       1 RES1   0.0000
    36 C36      7.3066  15.1005   5.9873   C.2       1 RES1   0.0000
    37 C37      7.0275  15.5577   7.2815   C.2       1 RES1   0.0000
    38 C38      7.0958  14.6497   8.3445   C.2       1 RES1   0.0000
    39 C39      7.4040  13.3154   8.0903   C.2       1 RES1   0.0000
    40 C40      7.6781  12.8781   6.7909   C.2       1 RES1   0.0000
@<TRIPOS>BOND
     1     1     2    1
     2     2     3    1
     3     2     4    1
     4     4     5    1
     5     5     6   am
     6     6     7    2
     7     6     8    1
     8     8     9    1
     9     9    10    1
    10    10    11    2
    11    11    12    1
    12    12    13    2
    13    13    14    1
    14    14    15    2
    15    15    16    1
    16    16    17    2
    17    17    18    1
    18    18    19    2
    19     8    20    1
    20    20    21    1
    21    21    22    2
    22    21    23    2
    23    21    24    1
    24    24    25    1
    25    24    26    1
    26    24    27    1
    27     4    28    1
    28    28    29    2
    29    28    30   am
    30    30    31    1
    31    31    32    1
    32    32    33    1
    33    31    34    1
    34    34    35    1
    35    35    36    2
    36    36    37    1
    37    37    38    2
    38    38    39    1
    39    39    40    2
    40    19    10    1
    41    40    35    1
    42    19    14    1
@<TRIPOS>SUBSTRUCTURE
     1 RES1        1 GROUP             0 ****  ****    0  
@<TRIPOS>MOLECULE
ligand_65
    40    42     1     0     0
SMALL
NO_CHARGES
****
Generated from the CSD

@<TRIPOS>ATOM
     1 C1       2.3074  14.0187   2.2982   C.3       1 RES1   0.0000
     2 C2       2.8583  15.4039   1.9213   C.3       1 RES1   0.0000
     3 C3       2.2020  16.5490   2.7272   C.3       1 RES1   0.0000
     4 C4       4.3820  15.4942   2.1816   C.3       1 RES1   0.0000
     5 N5       5.0061  16.7588   1.7119   N.am      1 RES1   0.0000
     6 C6       4.9873  17.9262   2.4123   C.2       1 RES1   0.0000
     7 O7       4.4688  18.0357   3.5302   O.2       1 RES1   0.0000
     8 C8       5.7463  19.1006   1.7593   C.3       1 RES1   0.0000
     9 C9       6.9423  19.3861   2.7038   C.3       1 RES1   0.0000
    10 C10      7.8822  20.4206   2.0599   C.2       1 RES1   0.0000
    11 C11      7.8938  21.7384   2.3521   C.2       1 RES1   0.0000
    12 C12      8.8066  22.6310   1.6619   C.2       1 RES1   0.0000
    13 C13      9.6540  22.1443   0.7132   C.2       1 RES1   0.0000
    14 C14      9.6633  20.7478   0.3767   C.2       1 RES1   0.0000
    15 C15     10.5774  20.2659  -0.6212   C.2       1 RES1   0.0000
    16 C16     10.5780  18.9363  -0.9532   C.2       1 RES1   0.0000
    17 C17      9.6874  18.0303  -0.3139   C.2       1 RES1   0.0000
    18 C18      8.8065  18.4974   0.6653   C.2       1 RES1   0.0000
    19 C19      8.7926  19.8536   1.0127   C.2       1 RES1   0.0000
    20 C20      4.8509  20.3673   1.5710   C.3       1 RES1   0.0000
    21 S21      3.7053  20.1315   0.2225   S.o2      1 RES1   0.0000
    22 O22      4.5208  20.0342  -0.9562   O.2       1 RES1   0.0000
    23 O23      2.7637  19.0928   0.4867   O.2       1 RES1   0.0000
    24 C24      2.7295  21.6901   0.1229   C.3       1 RES1   0.0000
    25 C25      2.0324  21.8229   1.4987   C.3       1 RES1   0.0000
    26 C26      1.6848  21.5920  -1.0159   C.3       1 RES1   0.0000
    27 C27      3.6549  22.9234  -0.0347   C.3       1 RES1   0.0000
    28 C28      5.2045  14.3845   1.4216   C.2       1 RES1   0.0000
    29 O29      5.7572  13.4311   1.9463   O.2       1 RES1   0.0000
    30 N30      5.3104  14.6416   0.0666   N.am      1 RES1   0.0000
    31 C31      6.1399  13.8334  -0.8439   C.3       1 RES1   0.0000
    32 C32      7.1625  14.8040  -1.4981   C.3       1 RES1   0.0000
    33 O33      8.0297  13.9407  -2.3210   O.3       1 RES1   0.0000
    34 C34      5.2024  13.1914  -1.8947   C.3       1 RES1   0.0000
    35 C35      4.3840  14.0715  -2.8166   C.2       1 RES1   0.0000
    36 C36      3.0954  14.5216  -2.5085   C.2       1 RES1   0.0000
    37 C37      2.3709  15.3828  -3.3423   C.2       1 RES1   0.0000
    38 C38      2.9552  15.8069  -4.5414   C.2       1 RES1   0.0000
    39 C39      4.2466  15.3941  -4.8606   C.2       1 RES1   0.0000
    40 C40      4.9543  14.5352  -4.0143   C.2       1 RES1   0.0000
@<TRIPOS>BOND
     1     1     2    1
     2     2     3    1
     3     2     4    1
     4     4     5    1
     5     5     6   am
     6     6     7    2
     7     6     8    1
     8     8     9    1
     9     9    10    1
    10    10    11    2
    11    11    12    1
    12    12    13    2
    13    13    14    1
    14    14    15    2
    15    15    16    1
    16    16    17    2
    17    17    18    1
    18    18    19    2
    19     8    20    1
    20    20    21    1
    21    21    22    2
    22    21    23    2
    23    21    24    1
    24    24    25    1
    25    24    26    1
    26    24    27    1
    27     4    28    1
    28    28    29    2
    29    28    30   am
    30    30    31    1
    31    31    32    1
    32    32    33    1
    33    31    34    1
    34    34    35    1
    35    35    36    2
    36    36    37    1
    37    37    38    2
    38    38    39    1
    39    39    40    2
    40    19    10    1
    41    40    35    1
    42    19    14    1
@<TRIPOS>SUBSTRUCTURE
     1 RES1        1 GROUP             0 ****  ****    0  
@<TRIPOS>MOLECULE
ligand_66
    40    42     1     0     0
SMALL
NO_CHARGES
****
Generated from the CSD

@<TRIPOS>ATOM
     1 C1      11.2959  21.8080   7.9356   C.3       1 RES1   0.0000
     2 C2      10.7811  20.6372   7.0820   C.3       1 RES1   0.0000
     3 C3      10.2862  19.4462   7.9353   C.3       1 RES1   0.0000
     4 C4       9.5910  21.0701   6.1910   C.3       1 RES1   0.0000
     5 N5       9.1033  20.0107   5.2696   N.am      1 RES1   0.0000
     6 C6       7.7880  19.7531   5.0295   C.2       1 RES1   0.0000
     7 O7       6.8672  20.3845   5.5623   O.2       1 RES1   0.0000
     8 C8       7.5105  18.6716   3.9642   C.3       1 RES1   0.0000
     9 C9       6.8411  19.4249   2.7860   C.3       1 RES1   0.0000
    10 C10      7.8195  20.4601   2.2033   C.2       1 RES1   0.0000
    11 C11      7.7803  21.7855   2.4564   C.2       1 RES1   0.0000
    12 C12      8.7385  22.6769   1.8293   C.2       1 RES1   0.0000
    13 C13      9.6804  22.1815   0.9795   C.2       1 RES1   0.0000
    14 C14      9.7461  20.7766   0.6865   C.2       1 RES1   0.0000
    15 C15     10.7589  20.2860  -0.2063   C.2       1 RES1   0.0000
    16 C16     10.8142  18.9481  -0.4976   C.2       1 RES1   0.0000
    17 C17      9.8830  18.0422   0.0814   C.2       1 RES1   0.0000
    18 C18      8.9053  18.5182   0.9591   C.2       1 RES1   0.0000
    19 C19      8.8348  19.8829   1.2636   C.2       1 RES1   0.0000
    20 C20      6.6000  17.5191   4.4975   C.3       1 RES1   0.0000
    21 S21      7.5242  16.4358   5.5741   S.o2      1 RES1   0.0000
    22 O22      8.5036  17.2746   6.2072   O.2       1 RES1   0.0000
    23 O23      6.6758  15.6381   6.3983   O.2       1 RES1   0.0000
    24 C24      8.4025  15.2614   4.4602   C.3       1 RES1   0.0000
    25 C25      7.2892  14.5780   3.6296   C.3       1 RES1   0.0000
    26 C26      9.1839  14.2183   5.2963   C.3       1 RES1   0.0000
    27 C27      9.3155  16.0132   3.4584   C.3       1 RES1   0.0000
    28 C28      9.9496  22.2561   5.2161   C.2       1 RES1   0.0000
    29 O29     10.6943  22.1778   4.2522   O.2       1 RES1   0.0000
    30 N30      9.3831  23.4542   5.6123   N.am      1 RES1   0.0000
    31 C31      9.6248  24.7289   4.9145   C.3       1 RES1   0.0000
    32 C32     10.6639  25.5137   5.7632   C.3       1 RES1   0.0000
    33 O33     10.9843  26.7074   4.9589   O.3       1 RES1   0.0000
    34 C34      8.2751  25.4800   4.8185   C.3       1 RES1   0.0000
    35 C35      8.1715  26.7476   3.9960   C.2       1 RES1   0.0000
    36 C36      8.3817  28.0269   4.5226   C.2       1 RES1   0.0000
    37 C37      8.3409  29.1878   3.7401   C.2       1 RES1   0.0000
    38 C38      8.0696  29.0673   2.3722   C.2       1 RES1   0.0000
    39 C39      7.8813  27.8037   1.8173   C.2       1 RES1   0.0000
    40 C40      7.9274  26.6565   2.6151   C.2       1 RES1   0.0000
@<TRIPOS>BOND
     1     1     2    1
     2     2     3    1
     3     2     4    1
     4     4     5    1
     5     5     6   am
     6     6     7    2
     7     6     8    1
     8     8     9    1
     9     9    10    1
    10    10    11    2
    11    11    12    1
    12    12    13    2
    13    13    14    1
    14    14    15    2
    15    15    16    1
    16    16    17    2
    17    17    18    1
    18    18    19    2
    19     8    20    1
    20    20    21    1
    21    21    22    2
    22    21    23    2
    23    21    24    1
    24    24    25    1
    25    24    26    1
    26    24    27    1
    27     4    28    1
    28    28    29    2
    29    28    30   am
    30    30    31    1
    31    31    32    1
    32    32    33    1
    33    31    34    1
    34    34    35    1
    35    35    36    2
    36    36    37    1
    37    37    38    2
    38    38    39    1
    39    39    40    2
    40    19    10    1
    41    40    35    1
    42    19    14    1
@<TRIPOS>SUBSTRUCTURE
     1 RES1        1 GROUP             0 ****  ****    0  
@<TRIPOS>MOLECULE
ligand_67
    40    42     1     0     0
SMALL
NO_CHARGES
****
Generated from the CSD

@<TRIPOS>ATOM
     1 C1      11.2959  21.8080   7.9357   C.3       1 RES1   0.0000
     2 C2      10.7811  20.6372   7.0820   C.3       1 RES1   0.0000
     3 C3      10.2862  19.4462   7.9353   C.3       1 RES1   0.0000
     4 C4       9.5910  21.0701   6.1910   C.3       1 RES1   0.0000
     5 N5       9.1033  20.0107   5.2696   N.am      1 RES1   0.0000
     6 C6       7.7880  19.7531   5.0296   C.2       1 RES1   0.0000
     7 O7       6.8672  20.3844   5.5624   O.2       1 RES1   0.0000
     8 C8       7.5105  18.6716   3.9642   C.3       1 RES1   0.0000
     9 C9       6.8410  19.4250   2.7860   C.3       1 RES1   0.0000
    10 C10      7.8218  20.4554   2.1989   C.2       1 RES1   0.0000
    11 C11      7.7759  21.7839   2.4336   C.2       1 RES1   0.0000
    12 C12      8.7375  22.6700   1.8038   C.2       1 RES1   0.0000
    13 C13      9.6891  22.1661   0.9700   C.2       1 RES1   0.0000
    14 C14      9.7621  20.7577   0.6968   C.2       1 RES1   0.0000
    15 C15     10.7851  20.2583  -0.1794   C.2       1 RES1   0.0000
    16 C16     10.8475  18.9168  -0.4519   C.2       1 RES1   0.0000
    17 C17      9.9136  18.0158   0.1302   C.2       1 RES1   0.0000
    18 C18      8.9258  18.5004   0.9918   C.2       1 RES1   0.0000
    19 C19      8.8481  19.8689   1.2771   C.2       1 RES1   0.0000
    20 C20      6.6000  17.5191   4.4975   C.3       1 RES1   0.0000
    21 S21      6.8111  16.0453   3.5124   S.o2      1 RES1   0.0000
    22 O22      6.2927  16.3784   2.2147   O.2       1 RES1   0.0000
    23 O23      8.1337  15.5182   3.6026   O.2       1 RES1   0.0000
    24 C24      5.7063  14.7811   4.2689   C.3       1 RES1   0.0000
    25 C25      6.2093  14.6189   5.7240   C.3       1 RES1   0.0000
    26 C26      5.8195  13.4443   3.4956   C.3       1 RES1   0.0000
    27 C27      4.2444  15.2893   4.3511   C.3       1 RES1   0.0000
    28 C28      9.9496  22.2561   5.2161   C.2       1 RES1   0.0000
    29 O29     10.6943  22.1778   4.2522   O.2       1 RES1   0.0000
    30 N30      9.3831  23.4542   5.6123   N.am      1 RES1   0.0000
    31 C31      9.6248  24.7289   4.9145   C.3       1 RES1   0.0000
    32 C32     10.6639  25.5137   5.7632   C.3       1 RES1   0.0000
    33 O33     10.9842  26.7074   4.9590   O.3       1 RES1   0.0000
    34 C34      8.2751  25.4799   4.8185   C.3       1 RES1   0.0000
    35 C35      8.1715  26.7476   3.9959   C.2       1 RES1   0.0000
    36 C36      8.3817  28.0268   4.5225   C.2       1 RES1   0.0000
    37 C37      8.3408  29.1877   3.7399   C.2       1 RES1   0.0000
    38 C38      8.0695  29.0672   2.3720   C.2       1 RES1   0.0000
    39 C39      7.8813  27.8036   1.8172   C.2       1 RES1   0.0000
    40 C40      7.9274  26.6563   2.6150   C.2       1 RES1   0.0000
@<TRIPOS>BOND
     1     1     2    1
     2     2     3    1
     3     2     4    1
     4     4     5    1
     5     5     6   am
     6     6     7    2
     7     6     8    1
     8     8     9    1
     9     9    10    1
    10    10    11    2
    11    11    12    1
    12    12    13    2
    13    13    14    1
    14    14    15    2
    15    15    16    1
    16    16    17    2
    17    17    18    1
    18    18    19    2
    19     8    20    1
    20    20    21    1
    21    21    22    2
    22    21    23    2
    23    21    24    1
    24    24    25    1
    25    24    26    1
    26    24    27    1
    27     4    28    1
    28    28    29    2
    29    28    30   am
    30    30    31    1
    31    31    32    1
    32    32    33    1
    33    31    34    1
    34    34    35    1
    35    35    36    2
    36    36    37    1
    37    37    38    2
    38    38    39    1
    39    39    40    2
    40    19    10    1
    41    40    35    1
    42    19    14    1
@<TRIPOS>SUBSTRUCTURE
     1 RES1        1 GROUP             0 ****  ****    0  
@<TRIPOS>MOLECULE
ligand_68
    40    42     1     0     0
SMALL
NO_CHARGES
****
Generated from the CSD

@<TRIPOS>ATOM
     1 C1       3.7979  13.0593   1.7071   C.3       1 RES1   0.0000
     2 C2       4.3657  14.3637   1.1235   C.3       1 RES1   0.0000
     3 C3       3.5441  14.8906  -0.0759   C.3       1 RES1   0.0000
     4 C4       4.3820  15.4942   2.1816   C.3       1 RES1   0.0000
     5 N5       5.0061  16.7588   1.7119   N.am      1 RES1   0.0000
     6 C6       4.9184  17.9457   2.3733   C.2       1 RES1   0.0000
     7 O7       4.3021  18.0830   3.4371   O.2       1 RES1   0.0000
     8 C8       5.7255  19.1071   1.7557   C.3       1 RES1   0.0000
     9 C9       6.8329  19.4280   2.7923   C.3       1 RES1   0.0000
    10 C10      7.8202  20.4513   2.2036   C.2       1 RES1   0.0000
    11 C11      7.7993  21.7768   2.4580   C.2       1 RES1   0.0000
    12 C12      8.7643  22.6567   1.8248   C.2       1 RES1   0.0000
    13 C13      9.6938  22.1502   0.9680   C.2       1 RES1   0.0000
    14 C14      9.7398  20.7449   0.6736   C.2       1 RES1   0.0000
    15 C15     10.7401  20.2423  -0.2267   C.2       1 RES1   0.0000
    16 C16     10.7766  18.9040  -0.5194   C.2       1 RES1   0.0000
    17 C17      9.8382  18.0095   0.0654   C.2       1 RES1   0.0000
    18 C18      8.8727  18.4970   0.9503   C.2       1 RES1   0.0000
    19 C19      8.8215  19.8622   1.2564   C.2       1 RES1   0.0000
    20 C20      4.8434  20.3612   1.4541   C.3       1 RES1   0.0000
    21 S21      3.8127  20.0749   0.0249   S.o2      1 RES1   0.0000
    22 O22      4.7222  19.9456  -1.0795   O.2       1 RES1   0.0000
    23 O23      2.8570  19.0387   0.2450   O.2       1 RES1   0.0000
    24 C24      2.8418  21.6228  -0.2041   C.3       1 RES1   0.0000
    25 C25      2.0342  21.7946   1.1054   C.3       1 RES1   0.0000
    26 C26      1.8941  21.4815  -1.4205   C.3       1 RES1   0.0000
    27 C27      3.7720  22.8567  -0.3255   C.3       1 RES1   0.0000
    28 C28      5.2287  15.1299   3.4607   C.2       1 RES1   0.0000
    29 O29      6.4455  15.0433   3.5014   O.2       1 RES1   0.0000
    30 N30      4.4332  14.8319   4.5524   N.am      1 RES1   0.0000
    31 C31      4.9763  14.3787   5.8446   C.3       1 RES1   0.0000
    32 C32      4.0861  13.1940   6.3136   C.3       1 RES1   0.0000
    33 O33      4.7218  12.7114   7.5534   O.3       1 RES1   0.0000
    34 C34      4.9134  15.5709   6.8294   C.3       1 RES1   0.0000
    35 C35      3.5754  16.1775   7.1984   C.2       1 RES1   0.0000
    36 C36      2.9889  17.2353   6.4947   C.2       1 RES1   0.0000
    37 C37      1.7247  17.7497   6.8090   C.2       1 RES1   0.0000
    38 C38      1.0177  17.1889   7.8790   C.2       1 RES1   0.0000
    39 C39      1.5673  16.1185   8.5805   C.2       1 RES1   0.0000
    40 C40      2.8304  15.6181   8.2505   C.2       1 RES1   0.0000
@<TRIPOS>BOND
     1     1     2    1
     2     2     3    1
     3     2     4    1
     4     4     5    1
     5     5     6   am
     6     6     7    2
     7     6     8    1
     8     8     9    1
     9     9    10    1
    10    10    11    2
    11    11    12    1
    12    12    13    2
    13    13    14    1
    14    14    15    2
    15    15    16    1
    16    16    17    2
    17    17    18    1
    18    18    19    2
    19     8    20    1
    20    20    21    1
    21    21    22    2
    22    21    23    2
    23    21    24    1
    24    24    25    1
    25    24    26    1
    26    24    27    1
    27     4    28    1
    28    28    29    2
    29    28    30   am
    30    30    31    1
    31    31    32    1
    32    32    33    1
    33    31    34    1
    34    34    35    1
    35    35    36    2
    36    36    37    1
    37    37    38    2
    38    38    39    1
    39    39    40    2
    40    19    10    1
    41    40    35    1
    42    19    14    1
@<TRIPOS>SUBSTRUCTURE
     1 RES1        1 GROUP             0 ****  ****    0  
@<TRIPOS>MOLECULE
ligand_69
    40    42     1     0     0
SMALL
NO_CHARGES
****
Generated from the CSD

@<TRIPOS>ATOM
     1 C1      -0.1014  17.7154   3.7470   C.3       1 RES1   0.0000
     2 C2       0.9896  18.7974   3.6898   C.3       1 RES1   0.0000
     3 C3       1.0495  19.6558   4.9748   C.3       1 RES1   0.0000
     4 C4       2.3944  18.1721   3.5075   C.3       1 RES1   0.0000
     5 N5       3.4877  19.1665   3.3502   N.am      1 RES1   0.0000
     6 C6       4.7065  19.0631   3.9483   C.2       1 RES1   0.0000
     7 O7       5.0196  18.1210   4.6864   O.2       1 RES1   0.0000
     8 C8       5.7234  20.1604   3.5697   C.3       1 RES1   0.0000
     9 C9       6.8410  19.4250   2.7860   C.3       1 RES1   0.0000
    10 C10      7.7116  20.4468   2.0333   C.2       1 RES1   0.0000
    11 C11      7.5516  21.7859   2.0904   C.2       1 RES1   0.0000
    12 C12      8.4149  22.6578   1.3154   C.2       1 RES1   0.0000
    13 C13      9.3890  22.1293   0.5237   C.2       1 RES1   0.0000
    14 C14      9.5823  20.7084   0.4382   C.2       1 RES1   0.0000
    15 C15     10.6260  20.1847  -0.3984   C.2       1 RES1   0.0000
    16 C16     10.8027  18.8290  -0.4918   C.2       1 RES1   0.0000
    17 C17      9.9671  17.9383   0.2371   C.2       1 RES1   0.0000
    18 C18      8.9595  18.4485   1.0600   C.2       1 RES1   0.0000
    19 C19      8.7653  19.8312   1.1629   C.2       1 RES1   0.0000
    20 C20      6.2961  20.9083   4.8164   C.3       1 RES1   0.0000
    21 S21      5.0806  22.0295   5.4891   S.o2      1 RES1   0.0000
    22 O22      4.8823  23.0276   4.4751   O.2       1 RES1   0.0000
    23 O23      3.9393  21.3458   6.0041   O.2       1 RES1   0.0000
    24 C24      5.8912  22.8291   6.9364   C.3       1 RES1   0.0000
    25 C25      6.2472  21.6682   7.8967   C.3       1 RES1   0.0000
    26 C26      4.9139  23.8221   7.6122   C.3       1 RES1   0.0000
    27 C27      7.2261  23.5042   6.5307   C.3       1 RES1   0.0000
    28 C28      2.5152  17.2966   2.2020   C.2       1 RES1   0.0000
    29 O29      2.5150  17.7273   1.0599   O.2       1 RES1   0.0000
    30 N30      2.5454  15.9412   2.4768   N.am      1 RES1   0.0000
    31 C31      2.5797  14.9075   1.4278   C.3       1 RES1   0.0000
    32 C32      1.1364  14.3434   1.3078   C.3       1 RES1   0.0000
    33 O33      1.1959  13.3886   0.1858   O.3       1 RES1   0.0000
    34 C34      3.5882  13.8191   1.8678   C.3       1 RES1   0.0000
    35 C35      5.0553  14.1641   2.0194   C.2       1 RES1   0.0000
    36 C36      5.9836  14.0561   0.9780   C.2       1 RES1   0.0000
    37 C37      7.3257  14.4333   1.1131   C.2       1 RES1   0.0000
    38 C38      7.7629  14.9324   2.3456   C.2       1 RES1   0.0000
    39 C39      6.8541  15.0739   3.3915   C.2       1 RES1   0.0000
    40 C40      5.5178  14.6931   3.2364   C.2       1 RES1   0.0000
@<TRIPOS>BOND
     1     1     2    1
     2     2     3    1
     3     2     4    1
     4     4     5    1
     5     5     6   am
     6     6     7    2
     7     6     8    1
     8     8     9    1
     9     9    10    1
    10    10    11    2
    11    11    12    1
    12    12    13    2
    13    13    14    1
    14    14    15    2
    15    15    16    1
    16    16    17    2
    17    17    18    1
    18    18    19    2
    19     8    20    1
    20    20    21    1
    21    21    22    2
    22    21    23    2
    23    21    24    1
    24    24    25    1
    25    24    26    1
    26    24    27    1
    27     4    28    1
    28    28    29    2
    29    28    30   am
    30    30    31    1
    31    31    32    1
    32    32    33    1
    33    31    34    1
    34    34    35    1
    35    35    36    2
    36    36    37    1
    37    37    38    2
    38    38    39    1
    39    39    40    2
    40    19    10    1
    41    40    35    1
    42    19    14    1
@<TRIPOS>SUBSTRUCTURE
     1 RES1        1 GROUP             0 ****  ****    0  
@<TRIPOS>MOLECULE
ligand_70
    40    42     1     0     0
SMALL
NO_CHARGES
****
Generated from the CSD

@<TRIPOS>ATOM
     1 C1       6.5109  20.3025   9.9122   C.3       1 RES1   0.0000
     2 C2       7.1293  19.6288   8.6761   C.3       1 RES1   0.0000
     3 C3       6.7225  18.1433   8.5374   C.3       1 RES1   0.0000
     4 C4       6.6879  20.3339   7.3700   C.3       1 RES1   0.0000
     5 N5       7.3268  19.7947   6.1411   N.am      1 RES1   0.0000
     6 C6       6.6671  19.0819   5.1869   C.2       1 RES1   0.0000
     7 O7       5.4612  18.8144   5.2557   O.2       1 RES1   0.0000
     8 C8       7.5058  18.7019   3.9484   C.3       1 RES1   0.0000
     9 C9       6.8778  19.4956   2.7739   C.3       1 RES1   0.0000
    10 C10      7.8354  20.6144   2.3271   C.2       1 RES1   0.0000
    11 C11      7.7491  21.9040   2.7165   C.2       1 RES1   0.0000
    12 C12      8.6920  22.8840   2.2100   C.2       1 RES1   0.0000
    13 C13      9.6670  22.5084   1.3364   C.2       1 RES1   0.0000
    14 C14      9.7832  21.1448   0.8997   C.2       1 RES1   0.0000
    15 C15     10.8299  20.7805  -0.0143   C.2       1 RES1   0.0000
    16 C16     10.9335  19.4829  -0.4425   C.2       1 RES1   0.0000
    17 C17     10.0191  18.4944   0.0153   C.2       1 RES1   0.0000
    18 C18      9.0082  18.8467   0.9136   C.2       1 RES1   0.0000
    19 C19      8.8883  20.1691   1.3575   C.2       1 RES1   0.0000
    20 C20      7.5031  17.1649   3.6664   C.3       1 RES1   0.0000
    21 S21      8.5116  16.3054   4.8626   S.o2      1 RES1   0.0000
    22 O22      9.8538  16.7576   4.6229   O.2       1 RES1   0.0000
    23 O23      7.9858  16.4039   6.1852   O.2       1 RES1   0.0000
    24 C24      8.4118  14.5240   4.4064   C.3       1 RES1   0.0000
    25 C25      6.9097  14.1623   4.5031   C.3       1 RES1   0.0000
    26 C26      9.2471  13.6739   5.3950   C.3       1 RES1   0.0000
    27 C27      8.8365  14.2967   2.9332   C.3       1 RES1   0.0000
    28 C28      7.0732  21.8623   7.3336   C.2       1 RES1   0.0000
    29 O29      6.2882  22.7914   7.4346   O.2       1 RES1   0.0000
    30 N30      8.4206  22.0609   7.0913   N.am      1 RES1   0.0000
    31 C31      9.0088  23.3908   6.8557   C.3       1 RES1   0.0000
    32 C32      9.2245  23.5195   5.3219   C.3       1 RES1   0.0000
    33 O33      9.7193  24.8944   5.1240   O.3       1 RES1   0.0000
    34 C34     10.3453  23.4621   7.6329   C.3       1 RES1   0.0000
    35 C35     10.3463  23.3794   9.1453   C.2       1 RES1   0.0000
    36 C36     10.2478  24.4996   9.9780   C.2       1 RES1   0.0000
    37 C37     10.1909  24.4068  11.3744   C.2       1 RES1   0.0000
    38 C38     10.2434  23.1396  11.9666   C.2       1 RES1   0.0000
    39 C39     10.3162  22.0063  11.1602   C.2       1 RES1   0.0000
    40 C40     10.3705  22.1198   9.7677   C.2       1 RES1   0.0000
@<TRIPOS>BOND
     1     1     2    1
     2     2     3    1
     3     2     4    1
     4     4     5    1
     5     5     6   am
     6     6     7    2
     7     6     8    1
     8     8     9    1
     9     9    10    1
    10    10    11    2
    11    11    12    1
    12    12    13    2
    13    13    14    1
    14    14    15    2
    15    15    16    1
    16    16    17    2
    17    17    18    1
    18    18    19    2
    19     8    20    1
    20    20    21    1
    21    21    22    2
    22    21    23    2
    23    21    24    1
    24    24    25    1
    25    24    26    1
    26    24    27    1
    27     4    28    1
    28    28    29    2
    29    28    30   am
    30    30    31    1
    31    31    32    1
    32    32    33    1
    33    31    34    1
    34    34    35    1
    35    35    36    2
    36    36    37    1
    37    37    38    2
    38    38    39    1
    39    39    40    2
    40    19    10    1
    41    40    35    1
    42    19    14    1
@<TRIPOS>SUBSTRUCTURE
     1 RES1        1 GROUP             0 ****  ****    0  
@<TRIPOS>MOLECULE
ligand_71
    40    42     1     0     0
SMALL
NO_CHARGES
****
Generated from the CSD

@<TRIPOS>ATOM
     1 C1       1.0836  14.9515   2.2110   C.3       1 RES1   0.0000
     2 C2       1.8365  16.2604   1.9209   C.3       1 RES1   0.0000
     3 C3       1.5838  17.3467   2.9922   C.3       1 RES1   0.0000
     4 C4       3.3672  16.0313   1.8732   C.3       1 RES1   0.0000
     5 N5       4.1523  17.2381   1.5040   N.am      1 RES1   0.0000
     6 C6       4.9232  17.9444   2.3762   C.2       1 RES1   0.0000
     7 O7       5.0422  17.6434   3.5702   O.2       1 RES1   0.0000
     8 C8       5.7273  19.1063   1.7557   C.3       1 RES1   0.0000
     9 C9       6.8887  19.3714   2.7481   C.3       1 RES1   0.0000
    10 C10      7.8710  20.3905   2.1438   C.2       1 RES1   0.0000
    11 C11      7.8928  21.7078   2.4379   C.2       1 RES1   0.0000
    12 C12      8.8474  22.5854   1.7861   C.2       1 RES1   0.0000
    13 C13      9.7241  22.0851   0.8718   C.2       1 RES1   0.0000
    14 C14      9.7237  20.6888   0.5342   C.2       1 RES1   0.0000
    15 C15     10.6692  20.1923  -0.4267   C.2       1 RES1   0.0000
    16 C16     10.6610  18.8631  -0.7600   C.2       1 RES1   0.0000
    17 C17      9.7303  17.9718  -0.1582   C.2       1 RES1   0.0000
    18 C18      8.8186  18.4529   0.7852   C.2       1 RES1   0.0000
    19 C19      8.8133  19.8089   1.1334   C.2       1 RES1   0.0000
    20 C20      4.8615  20.3878   1.5328   C.3       1 RES1   0.0000
    21 S21      3.8097  20.1942   0.1034   S.o2      1 RES1   0.0000
    22 O22      4.7054  20.0401  -1.0091   O.2       1 RES1   0.0000
    23 O23      2.7980  19.2086   0.3047   O.2       1 RES1   0.0000
    24 C24      2.9269  21.7994  -0.0834   C.3       1 RES1   0.0000
    25 C25      2.1362  21.9853   1.2344   C.3       1 RES1   0.0000
    26 C26      1.9671  21.7407  -1.2972   C.3       1 RES1   0.0000
    27 C27      3.9247  22.9814  -0.1813   C.3       1 RES1   0.0000
    28 C28      3.7993  14.9755   0.7850   C.2       1 RES1   0.0000
    29 O29      3.7468  15.1439  -0.4228   O.2       1 RES1   0.0000
    30 N30      4.1850  13.7702   1.3435   N.am      1 RES1   0.0000
    31 C31      4.5627  12.5947   0.5399   C.3       1 RES1   0.0000
    32 C32      3.3395  11.6358   0.5470   C.3       1 RES1   0.0000
    33 O33      3.7241  10.5262  -0.3447   O.3       1 RES1   0.0000
    34 C34      5.8043  11.9485   1.2002   C.3       1 RES1   0.0000
    35 C35      7.1088  12.7151   1.2708   C.2       1 RES1   0.0000
    36 C36      8.0895  12.6599   0.2742   C.2       1 RES1   0.0000
    37 C37      9.2662  13.4182   0.3222   C.2       1 RES1   0.0000
    38 C38      9.4773  14.2630   1.4181   C.2       1 RES1   0.0000
    39 C39      8.5058  14.3560   2.4118   C.2       1 RES1   0.0000
    40 C40      7.3370  13.5917   2.3451   C.2       1 RES1   0.0000
@<TRIPOS>BOND
     1     1     2    1
     2     2     3    1
     3     2     4    1
     4     4     5    1
     5     5     6   am
     6     6     7    2
     7     6     8    1
     8     8     9    1
     9     9    10    1
    10    10    11    2
    11    11    12    1
    12    12    13    2
    13    13    14    1
    14    14    15    2
    15    15    16    1
    16    16    17    2
    17    17    18    1
    18    18    19    2
    19     8    20    1
    20    20    21    1
    21    21    22    2
    22    21    23    2
    23    21    24    1
    24    24    25    1
    25    24    26    1
    26    24    27    1
    27     4    28    1
    28    28    29    2
    29    28    30   am
    30    30    31    1
    31    31    32    1
    32    32    33    1
    33    31    34    1
    34    34    35    1
    35    35    36    2
    36    36    37    1
    37    37    38    2
    38    38    39    1
    39    39    40    2
    40    19    10    1
    41    40    35    1
    42    19    14    1
@<TRIPOS>SUBSTRUCTURE
     1 RES1        1 GROUP             0 ****  ****    0  
@<TRIPOS>MOLECULE
ligand_72
    40    42     1     0     0
SMALL
NO_CHARGES
****
Generated from the CSD

@<TRIPOS>ATOM
     1 C1       3.7979  13.0593   1.7071   C.3       1 RES1   0.0000
     2 C2       4.3657  14.3637   1.1235   C.3       1 RES1   0.0000
     3 C3       3.5441  14.8906  -0.0759   C.3       1 RES1   0.0000
     4 C4       4.3820  15.4942   2.1816   C.3       1 RES1   0.0000
     5 N5       5.0061  16.7588   1.7119   N.am      1 RES1   0.0000
     6 C6       4.9232  17.9444   2.3761   C.2       1 RES1   0.0000
     7 O7       4.3136  18.0799   3.4441   O.2       1 RES1   0.0000
     8 C8       5.7270  19.1066   1.7559   C.3       1 RES1   0.0000
     9 C9       6.8410  19.4249   2.7863   C.3       1 RES1   0.0000
    10 C10      7.8253  20.4487   2.1934   C.2       1 RES1   0.0000
    11 C11      7.8068  21.7738   2.4504   C.2       1 RES1   0.0000
    12 C12      8.7684  22.6542   1.8129   C.2       1 RES1   0.0000
    13 C13      9.6924  22.1487   0.9495   C.2       1 RES1   0.0000
    14 C14      9.7358  20.7439   0.6522   C.2       1 RES1   0.0000
    15 C15     10.7302  20.2423  -0.2550   C.2       1 RES1   0.0000
    16 C16     10.7641  18.9046  -0.5503   C.2       1 RES1   0.0000
    17 C17      9.8287  18.0095   0.0386   C.2       1 RES1   0.0000
    18 C18      8.8690  18.4960   0.9302   C.2       1 RES1   0.0000
    19 C19      8.8205  19.8607   1.2390   C.2       1 RES1   0.0000
    20 C20      4.8438  20.3618   1.4622   C.3       1 RES1   0.0000
    21 S21      3.8675  20.1117  -0.0112   S.o2      1 RES1   0.0000
    22 O22      3.5905  18.7025  -0.0487   O.2       1 RES1   0.0000
    23 O23      2.7734  21.0233  -0.0975   O.2       1 RES1   0.0000
    24 C24      4.9821  20.5192  -1.4194   C.3       1 RES1   0.0000
    25 C25      5.4201  21.9847  -1.1813   C.3       1 RES1   0.0000
    26 C26      4.2177  20.3842  -2.7593   C.3       1 RES1   0.0000
    27 C27      6.2673  19.6535  -1.3875   C.3       1 RES1   0.0000
    28 C28      5.2287  15.1299   3.4607   C.2       1 RES1   0.0000
    29 O29      4.7696  14.7720   4.5334   O.2       1 RES1   0.0000
    30 N30      6.5838  15.3341   3.2719   N.am      1 RES1   0.0000
    31 C31      7.5800  15.1686   4.3445   C.3       1 RES1   0.0000
    32 C32      8.3127  16.5317   4.4889   C.3       1 RES1   0.0000
    33 O33      9.2259  16.3505   5.6324   O.3       1 RES1   0.0000
    34 C34      8.5475  14.0370   3.9221   C.3       1 RES1   0.0000
    35 C35      9.3754  14.1806   2.6618   C.2       1 RES1   0.0000
    36 C36      8.9410  13.7534   1.4021   C.2       1 RES1   0.0000
    37 C37      9.6902  13.9440   0.2341   C.2       1 RES1   0.0000
    38 C38     10.9324  14.5821   0.3289   C.2       1 RES1   0.0000
    39 C39     11.3776  15.0399   1.5668   C.2       1 RES1   0.0000
    40 C40     10.6143  14.8412   2.7212   C.2       1 RES1   0.0000
@<TRIPOS>BOND
     1     1     2    1
     2     2     3    1
     3     2     4    1
     4     4     5    1
     5     5     6   am
     6     6     7    2
     7     6     8    1
     8     8     9    1
     9     9    10    1
    10    10    11    2
    11    11    12    1
    12    12    13    2
    13    13    14    1
    14    14    15    2
    15    15    16    1
    16    16    17    2
    17    17    18    1
    18    18    19    2
    19     8    20    1
    20    20    21    1
    21    21    22    2
    22    21    23    2
    23    21    24    1
    24    24    25    1
    25    24    26    1
    26    24    27    1
    27     4    28    1
    28    28    29    2
    29    28    30   am
    30    30    31    1
    31    31    32    1
    32    32    33    1
    33    31    34    1
    34    34    35    1
    35    35    36    2
    36    36    37    1
    37    37    38    2
    38    38    39    1
    39    39    40    2
    40    19    10    1
    41    40    35    1
    42    19    14    1
@<TRIPOS>SUBSTRUCTURE
     1 RES1        1 GROUP             0 ****  ****    0  
@<TRIPOS>MOLECULE
ligand_73
    40    42     1     0     0
SMALL
NO_CHARGES
****
Generated from the CSD

@<TRIPOS>ATOM
     1 C1       2.6202  13.6866   1.8306   C.3       1 RES1   0.0000
     2 C2       3.1517  15.0483   1.3537   C.3       1 RES1   0.0000
     3 C3       2.1019  16.1772   1.4762   C.3       1 RES1   0.0000
     4 C4       4.3820  15.4942   2.1816   C.3       1 RES1   0.0000
     5 N5       5.0061  16.7588   1.7119   N.am      1 RES1   0.0000
     6 C6       4.9230  17.9444   2.3760   C.2       1 RES1   0.0000
     7 O7       4.3129  18.0801   3.4437   O.2       1 RES1   0.0000
     8 C8       5.7272  19.1066   1.7561   C.3       1 RES1   0.0000
     9 C9       6.8407  19.4248   2.7870   C.3       1 RES1   0.0000
    10 C10      7.8252  20.4487   2.1946   C.2       1 RES1   0.0000
    11 C11      7.8065  21.7738   2.4515   C.2       1 RES1   0.0000
    12 C12      8.7683  22.6544   1.8146   C.2       1 RES1   0.0000
    13 C13      9.6928  22.1489   0.9517   C.2       1 RES1   0.0000
    14 C14      9.7365  20.7441   0.6545   C.2       1 RES1   0.0000
    15 C15     10.7315  20.2426  -0.2522   C.2       1 RES1   0.0000
    16 C16     10.7657  18.9049  -0.5475   C.2       1 RES1   0.0000
    17 C17      9.8301  18.0097   0.0409   C.2       1 RES1   0.0000
    18 C18      8.8698  18.4961   0.9320   C.2       1 RES1   0.0000
    19 C19      8.8210  19.8608   1.2408   C.2       1 RES1   0.0000
    20 C20      4.8443  20.3618   1.4619   C.3       1 RES1   0.0000
    21 S21      3.8693  20.1119  -0.0125   S.o2      1 RES1   0.0000
    22 O22      3.5926  18.7028  -0.0507   O.2       1 RES1   0.0000
    23 O23      2.7752  21.0234  -0.0995   O.2       1 RES1   0.0000
    24 C24      4.9851  20.5200  -1.4196   C.3       1 RES1   0.0000
    25 C25      5.4228  21.9855  -1.1806   C.3       1 RES1   0.0000
    26 C26      4.2219  20.3854  -2.7602   C.3       1 RES1   0.0000
    27 C27      6.2704  19.6544  -1.3868   C.3       1 RES1   0.0000
    28 C28      5.5728  14.4627   2.1215   C.2       1 RES1   0.0000
    29 O29      6.2641  14.2380   1.1410   O.2       1 RES1   0.0000
    30 N30      5.7179  13.7554   3.3014   N.am      1 RES1   0.0000
    31 C31      6.7086  12.6796   3.4786   C.3       1 RES1   0.0000
    32 C32      5.9379  11.3359   3.3510   C.3       1 RES1   0.0000
    33 O33      6.9781  10.2942   3.4358   O.3       1 RES1   0.0000
    34 C34      7.3447  12.8473   4.8795   C.3       1 RES1   0.0000
    35 C35      6.4777  12.7651   6.1188   C.2       1 RES1   0.0000
    36 C36      5.8511  13.8755   6.6954   C.2       1 RES1   0.0000
    37 C37      5.0045  13.7790   7.8070   C.2       1 RES1   0.0000
    38 C38      4.7800  12.5190   8.3738   C.2       1 RES1   0.0000
    39 C39      5.3713  11.3938   7.8044   C.2       1 RES1   0.0000
    40 C40      6.2124  11.5106   6.6937   C.2       1 RES1   0.0000
@<TRIPOS>BOND
     1     1     2    1
     2     2     3    1
     3     2     4    1
     4     4     5    1
     5     5     6   am
     6     6     7    2
     7     6     8    1
     8     8     9    1
     9     9    10    1
    10    10    11    2
    11    11    12    1
    12    12    13    2
    13    13    14    1
    14    14    15    2
    15    15    16    1
    16    16    17    2
    17    17    18    1
    18    18    19    2
    19     8    20    1
    20    20    21    1
    21    21    22    2
    22    21    23    2
    23    21    24    1
    24    24    25    1
    25    24    26    1
    26    24    27    1
    27     4    28    1
    28    28    29    2
    29    28    30   am
    30    30    31    1
    31    31    32    1
    32    32    33    1
    33    31    34    1
    34    34    35    1
    35    35    36    2
    36    36    37    1
    37    37    38    2
    38    38    39    1
    39    39    40    2
    40    19    10    1
    41    40    35    1
    42    19    14    1
@<TRIPOS>SUBSTRUCTURE
     1 RES1        1 GROUP             0 ****  ****    0  
@<TRIPOS>MOLECULE
ligand_74
    40    42     1     0     0
SMALL
NO_CHARGES
****
Generated from the CSD

@<TRIPOS>ATOM
     1 C1      10.7743  21.6733   8.3661   C.3       1 RES1   0.0000
     2 C2      10.1979  20.5331   7.5105   C.3       1 RES1   0.0000
     3 C3       9.0733  19.7535   8.2310   C.3       1 RES1   0.0000
     4 C4       9.5910  21.0701   6.1910   C.3       1 RES1   0.0000
     5 N5       9.1033  20.0107   5.2696   N.am      1 RES1   0.0000
     6 C6       7.7892  19.7806   4.9973   C.2       1 RES1   0.0000
     7 O7       6.8696  20.4402   5.4970   O.2       1 RES1   0.0000
     8 C8       7.5149  18.6918   3.9385   C.3       1 RES1   0.0000
     9 C9       6.8950  19.4450   2.7333   C.3       1 RES1   0.0000
    10 C10      7.9184  20.4379   2.1542   C.2       1 RES1   0.0000
    11 C11      7.9048  21.7708   2.3676   C.2       1 RES1   0.0000
    12 C12      8.9057  22.6193   1.7476   C.2       1 RES1   0.0000
    13 C13      9.8620  22.0757   0.9446   C.2       1 RES1   0.0000
    14 C14      9.9013  20.6616   0.6947   C.2       1 RES1   0.0000
    15 C15     10.9300  20.1198  -0.1490   C.2       1 RES1   0.0000
    16 C16     10.9606  18.7729  -0.3995   C.2       1 RES1   0.0000
    17 C17      9.9879  17.9079   0.1737   C.2       1 RES1   0.0000
    18 C18      8.9943  18.4337   1.0038   C.2       1 RES1   0.0000
    19 C19      8.9489  19.8082   1.2663   C.2       1 RES1   0.0000
    20 C20      6.5635  17.5679   4.4615   C.3       1 RES1   0.0000
    21 S21      7.4229  16.4995   5.6046   S.o2      1 RES1   0.0000
    22 O22      8.4336  15.8421   4.8236   O.2       1 RES1   0.0000
    23 O23      7.8180  17.1833   6.7928   O.2       1 RES1   0.0000
    24 C24      6.1873  15.2390   6.1295   C.3       1 RES1   0.0000
    25 C25      5.0411  16.0427   6.7903   C.3       1 RES1   0.0000
    26 C26      6.8260  14.2573   7.1424   C.3       1 RES1   0.0000
    27 C27      5.5779  14.5065   4.9070   C.3       1 RES1   0.0000
    28 C28     10.6324  21.8603   5.3097   C.2       1 RES1   0.0000
    29 O29     10.6401  23.0688   5.1385   O.2       1 RES1   0.0000
    30 N30     11.5218  21.0203   4.6640   N.am      1 RES1   0.0000
    31 C31     12.4935  21.4930   3.6627   C.3       1 RES1   0.0000
    32 C32     13.0472  20.2302   2.9454   C.3       1 RES1   0.0000
    33 O33     13.8983  20.7543   1.8612   O.3       1 RES1   0.0000
    34 C34     13.6071  22.2648   4.4107   C.3       1 RES1   0.0000
    35 C35     14.6599  23.0217   3.6276   C.2       1 RES1   0.0000
    36 C36     15.8783  22.4589   3.2318   C.2       1 RES1   0.0000
    37 C37     16.8194  23.1495   2.4578   C.2       1 RES1   0.0000
    38 C38     16.5355  24.4638   2.0688   C.2       1 RES1   0.0000
    39 C39     15.3192  25.0396   2.4279   C.2       1 RES1   0.0000
    40 C40     14.3919  24.3331   3.1998   C.2       1 RES1   0.0000
@<TRIPOS>BOND
     1     1     2    1
     2     2     3    1
     3     2     4    1
     4     4     5    1
     5     5     6   am
     6     6     7    2
     7     6     8    1
     8     8     9    1
     9     9    10    1
    10    10    11    2
    11    11    12    1
    12    12    13    2
    13    13    14    1
    14    14    15    2
    15    15    16    1
    16    16    17    2
    17    17    18    1
    18    18    19    2
    19     8    20    1
    20    20    21    1
    21    21    22    2
    22    21    23    2
    23    21    24    1
    24    24    25    1
    25    24    26    1
    26    24    27    1
    27     4    28    1
    28    28    29    2
    29    28    30   am
    30    30    31    1
    31    31    32    1
    32    32    33    1
    33    31    34    1
    34    34    35    1
    35    35    36    2
    36    36    37    1
    37    37    38    2
    38    38    39    1
    39    39    40    2
    40    19    10    1
    41    40    35    1
    42    19    14    1
@<TRIPOS>SUBSTRUCTURE
     1 RES1        1 GROUP             0 ****  ****    0  
@<TRIPOS>MOLECULE
ligand_75
    40    42     1     0     0
SMALL
NO_CHARGES
****
Generated from the CSD

@<TRIPOS>ATOM
     1 C1      11.2959  21.8080   7.9357   C.3       1 RES1   0.0000
     2 C2      10.7811  20.6372   7.0820   C.3       1 RES1   0.0000
     3 C3      10.2862  19.4462   7.9353   C.3       1 RES1   0.0000
     4 C4       9.5910  21.0701   6.1910   C.3       1 RES1   0.0000
     5 N5       9.1033  20.0107   5.2696   N.am      1 RES1   0.0000
     6 C6       7.7894  19.7825   4.9951   C.2       1 RES1   0.0000
     7 O7       6.8724  20.4731   5.4563   O.2       1 RES1   0.0000
     8 C8       7.5130  18.6508   3.9829   C.3       1 RES1   0.0000
     9 C9       6.9590  19.3613   2.7211   C.3       1 RES1   0.0000
    10 C10      7.9634  20.4206   2.2336   C.2       1 RES1   0.0000
    11 C11      7.8405  21.7497   2.4354   C.2       1 RES1   0.0000
    12 C12      8.8361  22.6633   1.9061   C.2       1 RES1   0.0000
    13 C13      9.8980  22.1849   1.2002   C.2       1 RES1   0.0000
    14 C14     10.0553  20.7765   0.9650   C.2       1 RES1   0.0000
    15 C15     11.1929  20.3047   0.2254   C.2       1 RES1   0.0000
    16 C16     11.3371  18.9627  -0.0117   C.2       1 RES1   0.0000
    17 C17     10.3750  18.0345   0.4737   C.2       1 RES1   0.0000
    18 C18      9.2747  18.4927   1.2033   C.2       1 RES1   0.0000
    19 C19      9.1128  19.8612   1.4507   C.2       1 RES1   0.0000
    20 C20      6.5072  17.5863   4.5279   C.3       1 RES1   0.0000
    21 S21      6.6730  16.0502   3.6337   S.o2      1 RES1   0.0000
    22 O22      5.4624  15.3237   3.8989   O.2       1 RES1   0.0000
    23 O23      7.0621  16.2528   2.2761   O.2       1 RES1   0.0000
    24 C24      8.0700  15.1579   4.4359   C.3       1 RES1   0.0000
    25 C25      9.3130  16.0495   4.1981   C.3       1 RES1   0.0000
    26 C26      8.2578  13.7665   3.7828   C.3       1 RES1   0.0000
    27 C27      7.8695  15.0635   5.9700   C.3       1 RES1   0.0000
    28 C28      9.9496  22.2561   5.2161   C.2       1 RES1   0.0000
    29 O29     10.6726  22.1713   4.2364   O.2       1 RES1   0.0000
    30 N30      9.4122  23.4611   5.6315   N.am      1 RES1   0.0000
    31 C31      9.6428  24.7322   4.9235   C.3       1 RES1   0.0000
    32 C32     10.7606  25.4814   5.7013   C.3       1 RES1   0.0000
    33 O33     11.0262  26.6945   4.9061   O.3       1 RES1   0.0000
    34 C34      8.3124  25.5229   4.9238   C.3       1 RES1   0.0000
    35 C35      7.1023  24.9678   4.2015   C.2       1 RES1   0.0000
    36 C36      6.8114  25.2442   2.8610   C.2       1 RES1   0.0000
    37 C37      5.7217  24.6787   2.1868   C.2       1 RES1   0.0000
    38 C38      4.8796  23.8049   2.8842   C.2       1 RES1   0.0000
    39 C39      5.1604  23.4929   4.2123   C.2       1 RES1   0.0000
    40 C40      6.2541  24.0667   4.8675   C.2       1 RES1   0.0000
@<TRIPOS>BOND
     1     1     2    1
     2     2     3    1
     3     2     4    1
     4     4     5    1
     5     5     6   am
     6     6     7    2
     7     6     8    1
     8     8     9    1
     9     9    10    1
    10    10    11    2
    11    11    12    1
    12    12    13    2
    13    13    14    1
    14    14    15    2
    15    15    16    1
    16    16    17    2
    17    17    18    1
    18    18    19    2
    19     8    20    1
    20    20    21    1
    21    21    22    2
    22    21    23    2
    23    21    24    1
    24    24    25    1
    25    24    26    1
    26    24    27    1
    27     4    28    1
    28    28    29    2
    29    28    30   am
    30    30    31    1
    31    31    32    1
    32    32    33    1
    33    31    34    1
    34    34    35    1
    35    35    36    2
    36    36    37    1
    37    37    38    2
    38    38    39    1
    39    39    40    2
    40    19    10    1
    41    40    35    1
    42    19    14    1
@<TRIPOS>SUBSTRUCTURE
     1 RES1        1 GROUP             0 ****  ****    0  
@<TRIPOS>MOLECULE
ligand_76
    40    42     1     0     0
SMALL
NO_CHARGES
****
Generated from the CSD

@<TRIPOS>ATOM
     1 C1       3.7866  13.0958   1.9617   C.3       1 RES1   0.0000
     2 C2       4.2965  14.4091   1.3457   C.3       1 RES1   0.0000
     3 C3       3.2528  15.0838   0.4255   C.3       1 RES1   0.0000
     4 C4       4.6570  15.4426   2.4410   C.3       1 RES1   0.0000
     5 N5       5.2458  16.7033   1.9185   N.am      1 RES1   0.0000
     6 C6       4.9232  17.9444   2.3762   C.2       1 RES1   0.0000
     7 O7       4.1008  18.1392   3.2796   O.2       1 RES1   0.0000
     8 C8       5.7269  19.1067   1.7558   C.3       1 RES1   0.0000
     9 C9       6.8410  19.4250   2.7860   C.3       1 RES1   0.0000
    10 C10      7.8251  20.4489   2.1929   C.2       1 RES1   0.0000
    11 C11      7.8065  21.7740   2.4499   C.2       1 RES1   0.0000
    12 C12      8.7680  22.6546   1.8124   C.2       1 RES1   0.0000
    13 C13      9.6918  22.1491   0.9488   C.2       1 RES1   0.0000
    14 C14      9.7353  20.7444   0.6514   C.2       1 RES1   0.0000
    15 C15     10.7296  20.2429  -0.2560   C.2       1 RES1   0.0000
    16 C16     10.7635  18.9052  -0.5514   C.2       1 RES1   0.0000
    17 C17      9.8284  18.0100   0.0377   C.2       1 RES1   0.0000
    18 C18      8.8687  18.4964   0.9295   C.2       1 RES1   0.0000
    19 C19      8.8202  19.8610   1.2384   C.2       1 RES1   0.0000
    20 C20      4.8435  20.3618   1.4623   C.3       1 RES1   0.0000
    21 S21      3.8668  20.1116  -0.0109   S.o2      1 RES1   0.0000
    22 O22      3.5902  18.7024  -0.0484   O.2       1 RES1   0.0000
    23 O23      2.7724  21.0229  -0.0967   O.2       1 RES1   0.0000
    24 C24      4.9808  20.5196  -1.4193   C.3       1 RES1   0.0000
    25 C25      5.4184  21.9853  -1.1812   C.3       1 RES1   0.0000
    26 C26      4.2160  20.3845  -2.7590   C.3       1 RES1   0.0000
    27 C27      6.2663  19.6543  -1.3879   C.3       1 RES1   0.0000
    28 C28      5.7569  14.9213   3.4430   C.2       1 RES1   0.0000
    29 O29      6.9328  14.7411   3.1701   O.2       1 RES1   0.0000
    30 N30      5.2325  14.6029   4.6828   N.am      1 RES1   0.0000
    31 C31      6.0371  14.0243   5.7728   C.3       1 RES1   0.0000
    32 C32      5.3739  12.6696   6.1481   C.3       1 RES1   0.0000
    33 O33      6.2631  12.0834   7.1679   O.3       1 RES1   0.0000
    34 C34      6.0185  15.0214   6.9563   C.3       1 RES1   0.0000
    35 C35      6.6401  16.3937   6.7991   C.2       1 RES1   0.0000
    36 C36      7.9806  16.6701   7.0903   C.2       1 RES1   0.0000
    37 C37      8.5596  17.9289   6.8858   C.2       1 RES1   0.0000
    38 C38      7.7627  18.9605   6.3758   C.2       1 RES1   0.0000
    39 C39      6.4318  18.7061   6.0537   C.2       1 RES1   0.0000
    40 C40      5.8725  17.4421   6.2638   C.2       1 RES1   0.0000
@<TRIPOS>BOND
     1     1     2    1
     2     2     3    1
     3     2     4    1
     4     4     5    1
     5     5     6   am
     6     6     7    2
     7     6     8    1
     8     8     9    1
     9     9    10    1
    10    10    11    2
    11    11    12    1
    12    12    13    2
    13    13    14    1
    14    14    15    2
    15    15    16    1
    16    16    17    2
    17    17    18    1
    18    18    19    2
    19     8    20    1
    20    20    21    1
    21    21    22    2
    22    21    23    2
    23    21    24    1
    24    24    25    1
    25    24    26    1
    26    24    27    1
    27     4    28    1
    28    28    29    2
    29    28    30   am
    30    30    31    1
    31    31    32    1
    32    32    33    1
    33    31    34    1
    34    34    35    1
    35    35    36    2
    36    36    37    1
    37    37    38    2
    38    38    39    1
    39    39    40    2
    40    19    10    1
    41    40    35    1
    42    19    14    1
@<TRIPOS>SUBSTRUCTURE
     1 RES1        1 GROUP             0 ****  ****    0  
@<TRIPOS>MOLECULE
ligand_77
    40    42     1     0     0
SMALL
NO_CHARGES
****
Generated from the CSD

@<TRIPOS>ATOM
     1 C1      10.4313  21.3310   8.8045   C.3       1 RES1   0.0000
     2 C2       9.8216  20.2557   7.8901   C.3       1 RES1   0.0000
     3 C3       8.4650  19.7263   8.4103   C.3       1 RES1   0.0000
     4 C4       9.5668  20.8061   6.4653   C.3       1 RES1   0.0000
     5 N5       9.0645  19.7920   5.5017   N.am      1 RES1   0.0000
     6 C6       7.7995  19.7770   4.9985   C.2       1 RES1   0.0000
     7 O7       6.9417  20.6157   5.3004   O.2       1 RES1   0.0000
     8 C8       7.5227  18.6890   3.9395   C.3       1 RES1   0.0000
     9 C9       6.9003  19.4430   2.7361   C.3       1 RES1   0.0000
    10 C10      7.9194  20.4428   2.1613   C.2       1 RES1   0.0000
    11 C11      7.8991  21.7749   2.3789   C.2       1 RES1   0.0000
    12 C12      8.8965  22.6303   1.7627   C.2       1 RES1   0.0000
    13 C13      9.8562  22.0939   0.9589   C.2       1 RES1   0.0000
    14 C14      9.9026  20.6809   0.7045   C.2       1 RES1   0.0000
    15 C15     10.9348  20.1468  -0.1399   C.2       1 RES1   0.0000
    16 C16     10.9722  18.8009  -0.3947   C.2       1 RES1   0.0000
    17 C17     10.0032  17.9293   0.1747   C.2       1 RES1   0.0000
    18 C18      9.0063  18.4476   1.0056   C.2       1 RES1   0.0000
    19 C19      8.9539  19.8209   1.2724   C.2       1 RES1   0.0000
    20 C20      6.5724  17.5648   4.4637   C.3       1 RES1   0.0000
    21 S21      6.7730  16.0742   3.5022   S.o2      1 RES1   0.0000
    22 O22      6.2948  16.4027   2.1880   O.2       1 RES1   0.0000
    23 O23      8.0803  15.5176   3.6318   O.2       1 RES1   0.0000
    24 C24      5.6205  14.8456   4.2461   C.3       1 RES1   0.0000
    25 C25      6.0834  14.6903   5.7151   C.3       1 RES1   0.0000
    26 C26      5.7212  13.4969   3.4921   C.3       1 RES1   0.0000
    27 C27      4.1693  15.3886   4.2856   C.3       1 RES1   0.0000
    28 C28     10.8745  21.3454   5.7693   C.2       1 RES1   0.0000
    29 O29     11.1335  22.5208   5.5664   O.2       1 RES1   0.0000
    30 N30     11.6952  20.3243   5.3252   N.am      1 RES1   0.0000
    31 C31     12.8988  20.5562   4.5081   C.3       1 RES1   0.0000
    32 C32     12.5166  20.2135   3.0410   C.3       1 RES1   0.0000
    33 O33     13.6963  20.5972   2.2438   O.3       1 RES1   0.0000
    34 C34     14.0193  19.6317   5.0419   C.3       1 RES1   0.0000
    35 C35     15.4316  19.7715   4.5126   C.2       1 RES1   0.0000
    36 C36     15.9183  19.0504   3.4166   C.2       1 RES1   0.0000
    37 C37     17.2075  19.2303   2.8995   C.2       1 RES1   0.0000
    38 C38     18.0517  20.1658   3.5089   C.2       1 RES1   0.0000
    39 C39     17.5840  20.9152   4.5858   C.2       1 RES1   0.0000
    40 C40     16.2930  20.7219   5.0866   C.2       1 RES1   0.0000
@<TRIPOS>BOND
     1     1     2    1
     2     2     3    1
     3     2     4    1
     4     4     5    1
     5     5     6   am
     6     6     7    2
     7     6     8    1
     8     8     9    1
     9     9    10    1
    10    10    11    2
    11    11    12    1
    12    12    13    2
    13    13    14    1
    14    14    15    2
    15    15    16    1
    16    16    17    2
    17    17    18    1
    18    18    19    2
    19     8    20    1
    20    20    21    1
    21    21    22    2
    22    21    23    2
    23    21    24    1
    24    24    25    1
    25    24    26    1
    26    24    27    1
    27     4    28    1
    28    28    29    2
    29    28    30   am
    30    30    31    1
    31    31    32    1
    32    32    33    1
    33    31    34    1
    34    34    35    1
    35    35    36    2
    36    36    37    1
    37    37    38    2
    38    38    39    1
    39    39    40    2
    40    19    10    1
    41    40    35    1
    42    19    14    1
@<TRIPOS>SUBSTRUCTURE
     1 RES1        1 GROUP             0 ****  ****    0  
@<TRIPOS>MOLECULE
ligand_78
    40    42     1     0     0
SMALL
NO_CHARGES
****
Generated from the CSD

@<TRIPOS>ATOM
     1 C1       3.7979  13.0593   1.7071   C.3       1 RES1   0.0000
     2 C2       4.3657  14.3637   1.1235   C.3       1 RES1   0.0000
     3 C3       3.5441  14.8906  -0.0759   C.3       1 RES1   0.0000
     4 C4       4.3820  15.4942   2.1816   C.3       1 RES1   0.0000
     5 N5       5.0061  16.7588   1.7119   N.am      1 RES1   0.0000
     6 C6       4.9232  17.9444   2.3762   C.2       1 RES1   0.0000
     7 O7       4.3138  18.0798   3.4442   O.2       1 RES1   0.0000
     8 C8       5.7269  19.1067   1.7558   C.3       1 RES1   0.0000
     9 C9       6.8410  19.4250   2.7860   C.3       1 RES1   0.0000
    10 C10      7.8250  20.4490   2.1930   C.2       1 RES1   0.0000
    11 C11      7.8064  21.7740   2.4501   C.2       1 RES1   0.0000
    12 C12      8.7677  22.6548   1.8126   C.2       1 RES1   0.0000
    13 C13      9.6916  22.1495   0.9489   C.2       1 RES1   0.0000
    14 C14      9.7351  20.7447   0.6514   C.2       1 RES1   0.0000
    15 C15     10.7294  20.2435  -0.2562   C.2       1 RES1   0.0000
    16 C16     10.7634  18.9058  -0.5517   C.2       1 RES1   0.0000
    17 C17      9.8283  18.0105   0.0373   C.2       1 RES1   0.0000
    18 C18      8.8687  18.4967   0.9293   C.2       1 RES1   0.0000
    19 C19      8.8200  19.8613   1.2383   C.2       1 RES1   0.0000
    20 C20      4.8435  20.3618   1.4623   C.3       1 RES1   0.0000
    21 S21      3.8036  20.0788   0.0392   S.o2      1 RES1   0.0000
    22 O22      4.7060  19.9513  -1.0713   O.2       1 RES1   0.0000
    23 O23      2.8488  19.0426   0.2633   O.2       1 RES1   0.0000
    24 C24      2.8320  21.6277  -0.1806   C.3       1 RES1   0.0000
    25 C25      2.0328  21.7972   1.1343   C.3       1 RES1   0.0000
    26 C26      1.8765  21.4891  -1.3912   C.3       1 RES1   0.0000
    27 C27      3.7619  22.8613  -0.3054   C.3       1 RES1   0.0000
    28 C28      5.2287  15.1299   3.4607   C.2       1 RES1   0.0000
    29 O29      4.7696  14.7720   4.5335   O.2       1 RES1   0.0000
    30 N30      6.5838  15.3340   3.2719   N.am      1 RES1   0.0000
    31 C31      7.5800  15.1686   4.3445   C.3       1 RES1   0.0000
    32 C32      8.9001  15.8091   3.8319   C.3       1 RES1   0.0000
    33 O33      9.8194  15.7527   4.9834   O.3       1 RES1   0.0000
    34 C34      7.7416  13.6527   4.6113   C.3       1 RES1   0.0000
    35 C35      8.5717  13.1754   5.7849   C.2       1 RES1   0.0000
    36 C36      9.9393  12.8924   5.6966   C.2       1 RES1   0.0000
    37 C37     10.7094  12.5079   6.8015   C.2       1 RES1   0.0000
    38 C38     10.0849  12.3923   8.0488   C.2       1 RES1   0.0000
    39 C39      8.7302  12.6924   8.1698   C.2       1 RES1   0.0000
    40 C40      7.9786  13.0761   7.0550   C.2       1 RES1   0.0000
@<TRIPOS>BOND
     1     1     2    1
     2     2     3    1
     3     2     4    1
     4     4     5    1
     5     5     6   am
     6     6     7    2
     7     6     8    1
     8     8     9    1
     9     9    10    1
    10    10    11    2
    11    11    12    1
    12    12    13    2
    13    13    14    1
    14    14    15    2
    15    15    16    1
    16    16    17    2
    17    17    18    1
    18    18    19    2
    19     8    20    1
    20    20    21    1
    21    21    22    2
    22    21    23    2
    23    21    24    1
    24    24    25    1
    25    24    26    1
    26    24    27    1
    27     4    28    1
    28    28    29    2
    29    28    30   am
    30    30    31    1
    31    31    32    1
    32    32    33    1
    33    31    34    1
    34    34    35    1
    35    35    36    2
    36    36    37    1
    37    37    38    2
    38    38    39    1
    39    39    40    2
    40    19    10    1
    41    40    35    1
    42    19    14    1
@<TRIPOS>SUBSTRUCTURE
     1 RES1        1 GROUP             0 ****  ****    0  
@<TRIPOS>MOLECULE
ligand_79
    40    42     1     0     0
SMALL
NO_CHARGES
****
Generated from the CSD

@<TRIPOS>ATOM
     1 C1       1.6477  14.2750   1.1995   C.3       1 RES1   0.0000
     2 C2       2.3515  15.5809   0.7947   C.3       1 RES1   0.0000
     3 C3       1.3656  16.7556   0.5957   C.3       1 RES1   0.0000
     4 C4       3.3672  16.0313   1.8732   C.3       1 RES1   0.0000
     5 N5       4.1523  17.2381   1.5040   N.am      1 RES1   0.0000
     6 C6       4.9211  17.9460   2.3768   C.2       1 RES1   0.0000
     7 O7       5.0421  17.6435   3.5702   O.2       1 RES1   0.0000
     8 C8       5.7202  19.1120   1.7576   C.3       1 RES1   0.0000
     9 C9       6.8393  19.4268   2.7835   C.3       1 RES1   0.0000
    10 C10      7.8208  20.4524   2.1891   C.2       1 RES1   0.0000
    11 C11      7.8061  21.7761   2.4534   C.2       1 RES1   0.0000
    12 C12      8.7643  22.6587   1.8138   C.2       1 RES1   0.0000
    13 C13      9.6813  22.1567   0.9410   C.2       1 RES1   0.0000
    14 C14      9.7204  20.7535   0.6357   C.2       1 RES1   0.0000
    15 C15     10.7075  20.2555  -0.2815   C.2       1 RES1   0.0000
    16 C16     10.7374  18.9194  -0.5844   C.2       1 RES1   0.0000
    17 C17      9.8050  18.0224   0.0064   C.2       1 RES1   0.0000
    18 C18      8.8524  18.5053   0.9076   C.2       1 RES1   0.0000
    19 C19      8.8082  19.8683   1.2243   C.2       1 RES1   0.0000
    20 C20      4.8340  20.3675   1.4745   C.3       1 RES1   0.0000
    21 S21      4.1368  20.2866  -0.1669   S.o2      1 RES1   0.0000
    22 O22      5.2590  20.3636  -1.0605   O.2       1 RES1   0.0000
    23 O23      3.2222  19.2016  -0.3142   O.2       1 RES1   0.0000
    24 C24      3.1395  21.8228  -0.3580   C.3       1 RES1   0.0000
    25 C25      2.0723  21.7575   0.7614   C.3       1 RES1   0.0000
    26 C26      2.4709  21.8528  -1.7544   C.3       1 RES1   0.0000
    27 C27      3.9967  23.0861  -0.0908   C.3       1 RES1   0.0000
    28 C28      4.4808  14.9530   2.1605   C.2       1 RES1   0.0000
    29 O29      4.5068  14.2033   3.1233   O.2       1 RES1   0.0000
    30 N30      5.5022  14.9883   1.2282   N.am      1 RES1   0.0000
    31 C31      6.7111  14.1522   1.3263   C.3       1 RES1   0.0000
    32 C32      7.8460  15.0677   1.8647   C.3       1 RES1   0.0000
    33 O33      9.0031  14.1709   2.0411   O.3       1 RES1   0.0000
    34 C34      7.0299  13.6122  -0.0886   C.3       1 RES1   0.0000
    35 C35      6.0563  12.6800  -0.7796   C.2       1 RES1   0.0000
    36 C36      6.1053  11.2869  -0.6577   C.2       1 RES1   0.0000
    37 C37      5.1646  10.4376  -1.2540   C.2       1 RES1   0.0000
    38 C38      4.1338  11.0036  -2.0131   C.2       1 RES1   0.0000
    39 C39      4.0469  12.3888  -2.1301   C.2       1 RES1   0.0000
    40 C40      4.9951  13.2199  -1.5260   C.2       1 RES1   0.0000
@<TRIPOS>BOND
     1     1     2    1
     2     2     3    1
     3     2     4    1
     4     4     5    1
     5     5     6   am
     6     6     7    2
     7     6     8    1
     8     8     9    1
     9     9    10    1
    10    10    11    2
    11    11    12    1
    12    12    13    2
    13    13    14    1
    14    14    15    2
    15    15    16    1
    16    16    17    2
    17    17    18    1
    18    18    19    2
    19     8    20    1
    20    20    21    1
    21    21    22    2
    22    21    23    2
    23    21    24    1
    24    24    25    1
    25    24    26    1
    26    24    27    1
    27     4    28    1
    28    28    29    2
    29    28    30   am
    30    30    31    1
    31    31    32    1
    32    32    33    1
    33    31    34    1
    34    34    35    1
    35    35    36    2
    36    36    37    1
    37    37    38    2
    38    38    39    1
    39    39    40    2
    40    19    10    1
    41    40    35    1
    42    19    14    1
@<TRIPOS>SUBSTRUCTURE
     1 RES1        1 GROUP             0 ****  ****    0  
@<TRIPOS>MOLECULE
ligand_80
    40    42     1     0     0
SMALL
NO_CHARGES
****
Generated from the CSD

@<TRIPOS>ATOM
     1 C1       6.9550  21.5269   9.6062   C.3       1 RES1   0.0000
     2 C2       7.6875  20.8986   8.4091   C.3       1 RES1   0.0000
     3 C3       8.6100  19.7272   8.8193   C.3       1 RES1   0.0000
     4 C4       6.6879  20.3339   7.3700   C.3       1 RES1   0.0000
     5 N5       7.3268  19.7947   6.1411   N.am      1 RES1   0.0000
     6 C6       6.6608  19.1084   5.1720   C.2       1 RES1   0.0000
     7 O7       5.4367  18.9300   5.1896   O.2       1 RES1   0.0000
     8 C8       7.5248  18.6395   3.9823   C.3       1 RES1   0.0000
     9 C9       7.0931  19.5324   2.7905   C.3       1 RES1   0.0000
    10 C10      8.2605  20.4420   2.3683   C.2       1 RES1   0.0000
    11 C11      8.4448  21.7085   2.7972   C.2       1 RES1   0.0000
    12 C12      9.5688  22.4874   2.3113   C.2       1 RES1   0.0000
    13 C13     10.4418  21.9456   1.4174   C.2       1 RES1   0.0000
    14 C14     10.2712  20.6020   0.9387   C.2       1 RES1   0.0000
    15 C15     11.2166  20.0577   0.0039   C.2       1 RES1   0.0000
    16 C16     11.0474  18.7810  -0.4642   C.2       1 RES1   0.0000
    17 C17      9.9494  17.9895  -0.0275   C.2       1 RES1   0.0000
    18 C18      9.0365  18.5151   0.8908   C.2       1 RES1   0.0000
    19 C19      9.1950  19.8190   1.3755   C.2       1 RES1   0.0000
    20 C20      7.3341  17.1226   3.6592   C.3       1 RES1   0.0000
    21 S21      8.1096  16.1120   4.9098   S.o2      1 RES1   0.0000
    22 O22      9.5168  16.3762   4.7929   O.2       1 RES1   0.0000
    23 O23      7.4924  16.2622   6.1873   O.2       1 RES1   0.0000
    24 C24      7.8043  14.3694   4.3984   C.3       1 RES1   0.0000
    25 C25      6.2640  14.2194   4.3623   C.3       1 RES1   0.0000
    26 C26      8.4279  13.3956   5.4284   C.3       1 RES1   0.0000
    27 C27      8.3168  14.1082   2.9592   C.3       1 RES1   0.0000
    28 C28      5.6976  21.4255   6.8101   C.2       1 RES1   0.0000
    29 O29      4.5474  21.5933   7.1823   O.2       1 RES1   0.0000
    30 N30      6.2468  22.1509   5.7681   N.am      1 RES1   0.0000
    31 C31      5.5023  23.1823   5.0250   C.3       1 RES1   0.0000
    32 C32      5.0111  22.5185   3.7083   C.3       1 RES1   0.0000
    33 O33      4.1873  23.5492   3.0500   O.3       1 RES1   0.0000
    34 C34      6.4693  24.3591   4.7503   C.3       1 RES1   0.0000
    35 C35      7.0419  25.1534   5.9060   C.2       1 RES1   0.0000
    36 C36      6.4252  26.2906   6.4394   C.2       1 RES1   0.0000
    37 C37      6.9334  26.9832   7.5457   C.2       1 RES1   0.0000
    38 C38      8.1146  26.5253   8.1409   C.2       1 RES1   0.0000
    39 C39      8.7353  25.3811   7.6457   C.2       1 RES1   0.0000
    40 C40      8.2116  24.7026   6.5411   C.2       1 RES1   0.0000
@<TRIPOS>BOND
     1     1     2    1
     2     2     3    1
     3     2     4    1
     4     4     5    1
     5     5     6   am
     6     6     7    2
     7     6     8    1
     8     8     9    1
     9     9    10    1
    10    10    11    2
    11    11    12    1
    12    12    13    2
    13    13    14    1
    14    14    15    2
    15    15    16    1
    16    16    17    2
    17    17    18    1
    18    18    19    2
    19     8    20    1
    20    20    21    1
    21    21    22    2
    22    21    23    2
    23    21    24    1
    24    24    25    1
    25    24    26    1
    26    24    27    1
    27     4    28    1
    28    28    29    2
    29    28    30   am
    30    30    31    1
    31    31    32    1
    32    32    33    1
    33    31    34    1
    34    34    35    1
    35    35    36    2
    36    36    37    1
    37    37    38    2
    38    38    39    1
    39    39    40    2
    40    19    10    1
    41    40    35    1
    42    19    14    1
@<TRIPOS>SUBSTRUCTURE
     1 RES1        1 GROUP             0 ****  ****    0  
@<TRIPOS>MOLECULE
ligand_81
    40    42     1     0     0
SMALL
NO_CHARGES
****
Generated from the CSD

@<TRIPOS>ATOM
     1 C1       2.3296  16.6425   6.5181   C.3       1 RES1   0.0000
     2 C2       3.3191  17.6060   5.8422   C.3       1 RES1   0.0000
     3 C3       4.7147  17.5958   6.5084   C.3       1 RES1   0.0000
     4 C4       3.5349  17.2392   4.3534   C.3       1 RES1   0.0000
     5 N5       4.4089  18.1866   3.6134   N.am      1 RES1   0.0000
     6 C6       4.9232  17.9444   2.3762   C.2       1 RES1   0.0000
     7 O7       4.7040  16.9034   1.7448   O.2       1 RES1   0.0000
     8 C8       5.7324  19.1043   1.7585   C.3       1 RES1   0.0000
     9 C9       6.8576  19.4043   2.7822   C.3       1 RES1   0.0000
    10 C10      7.8495  20.4194   2.1870   C.2       1 RES1   0.0000
    11 C11      7.8485  21.7433   2.4506   C.2       1 RES1   0.0000
    12 C12      8.8157  22.6157   1.8104   C.2       1 RES1   0.0000
    13 C13      9.7272  22.1037   0.9376   C.2       1 RES1   0.0000
    14 C14      9.7518  20.7000   0.6330   C.2       1 RES1   0.0000
    15 C15     10.7335  20.1914  -0.2841   C.2       1 RES1   0.0000
    16 C16     10.7495  18.8549  -0.5863   C.2       1 RES1   0.0000
    17 C17      9.8080  17.9678   0.0051   C.2       1 RES1   0.0000
    18 C18      8.8607  18.4610   0.9063   C.2       1 RES1   0.0000
    19 C19      8.8306  19.8246   1.2223   C.2       1 RES1   0.0000
    20 C20      4.8581  20.3697   1.4822   C.3       1 RES1   0.0000
    21 S21      3.8043  20.1075   0.0654   S.o2      1 RES1   0.0000
    22 O22      4.6965  19.9808  -1.0534   O.2       1 RES1   0.0000
    23 O23      2.8419  19.0783   0.2890   O.2       1 RES1   0.0000
    24 C24      2.8451  21.6668  -0.1341   C.3       1 RES1   0.0000
    25 C25      2.0581  21.8330   1.1886   C.3       1 RES1   0.0000
    26 C26      1.8785  21.5466  -1.3379   C.3       1 RES1   0.0000
    27 C27      3.7851  22.8930  -0.2567   C.3       1 RES1   0.0000
    28 C28      2.1999  17.2530   3.5148   C.2       1 RES1   0.0000
    29 O29      1.5625  18.2505   3.2178   O.2       1 RES1   0.0000
    30 N30      1.7611  15.9792   3.2010   N.am      1 RES1   0.0000
    31 C31      0.4992  15.7153   2.4881   C.3       1 RES1   0.0000
    32 C32     -0.5346  15.2675   3.5589   C.3       1 RES1   0.0000
    33 O33     -1.8006  15.1105   2.8193   O.3       1 RES1   0.0000
    34 C34      0.7674  14.6026   1.4463   C.3       1 RES1   0.0000
    35 C35      1.7296  14.8522   0.3035   C.2       1 RES1   0.0000
    36 C36      1.3379  15.3796  -0.9321   C.2       1 RES1   0.0000
    37 C37      2.2453  15.6609  -1.9612   C.2       1 RES1   0.0000
    38 C38      3.6035  15.3959  -1.7510   C.2       1 RES1   0.0000
    39 C39      4.0239  14.8945  -0.5214   C.2       1 RES1   0.0000
    40 C40      3.1026  14.6215   0.4942   C.2       1 RES1   0.0000
@<TRIPOS>BOND
     1     1     2    1
     2     2     3    1
     3     2     4    1
     4     4     5    1
     5     5     6   am
     6     6     7    2
     7     6     8    1
     8     8     9    1
     9     9    10    1
    10    10    11    2
    11    11    12    1
    12    12    13    2
    13    13    14    1
    14    14    15    2
    15    15    16    1
    16    16    17    2
    17    17    18    1
    18    18    19    2
    19     8    20    1
    20    20    21    1
    21    21    22    2
    22    21    23    2
    23    21    24    1
    24    24    25    1
    25    24    26    1
    26    24    27    1
    27     4    28    1
    28    28    29    2
    29    28    30   am
    30    30    31    1
    31    31    32    1
    32    32    33    1
    33    31    34    1
    34    34    35    1
    35    35    36    2
    36    36    37    1
    37    37    38    2
    38    38    39    1
    39    39    40    2
    40    19    10    1
    41    40    35    1
    42    19    14    1
@<TRIPOS>SUBSTRUCTURE
     1 RES1        1 GROUP             0 ****  ****    0  
@<TRIPOS>MOLECULE
ligand_82
    40    42     1     0     0
SMALL
NO_CHARGES
****
Generated from the CSD

@<TRIPOS>ATOM
     1 C1      10.7797  21.6726   8.3633   C.3       1 RES1   0.0000
     2 C2      10.1979  20.5331   7.5105   C.3       1 RES1   0.0000
     3 C3       9.0715  19.7589   8.2340   C.3       1 RES1   0.0000
     4 C4       9.5910  21.0701   6.1910   C.3       1 RES1   0.0000
     5 N5       9.1033  20.0107   5.2696   N.am      1 RES1   0.0000
     6 C6       7.7880  19.7514   5.0315   C.2       1 RES1   0.0000
     7 O7       6.8673  20.3867   5.5598   O.2       1 RES1   0.0000
     8 C8       7.5104  18.6622   3.9740   C.3       1 RES1   0.0000
     9 C9       6.8289  19.4049   2.7958   C.3       1 RES1   0.0000
    10 C10      7.7991  20.4391   2.1979   C.2       1 RES1   0.0000
    11 C11      7.7563  21.7663   2.4403   C.2       1 RES1   0.0000
    12 C12      8.7066  22.6564   1.7992   C.2       1 RES1   0.0000
    13 C13      9.6445  22.1576   0.9470   C.2       1 RES1   0.0000
    14 C14      9.7139  20.7507   0.6653   C.2       1 RES1   0.0000
    15 C15     10.7225  20.2566  -0.2304   C.2       1 RES1   0.0000
    16 C16     10.7813  18.9166  -0.5110   C.2       1 RES1   0.0000
    17 C17      9.8578  18.0119   0.0819   C.2       1 RES1   0.0000
    18 C18      8.8842  18.4913   0.9623   C.2       1 RES1   0.0000
    19 C19      8.8103  19.8581   1.2560   C.2       1 RES1   0.0000
    20 C20      6.6103  17.5073   4.5195   C.3       1 RES1   0.0000
    21 S21      7.5481  16.4354   5.5957   S.o2      1 RES1   0.0000
    22 O22      8.5279  17.2831   6.2163   O.2       1 RES1   0.0000
    23 O23      6.7099  15.6385   6.4312   O.2       1 RES1   0.0000
    24 C24      8.4240  15.2586   4.4825   C.3       1 RES1   0.0000
    25 C25      7.3084  14.5668   3.6621   C.3       1 RES1   0.0000
    26 C26      9.2143  14.2226   5.3192   C.3       1 RES1   0.0000
    27 C27      9.3282  16.0086   3.4715   C.3       1 RES1   0.0000
    28 C28     10.6324  21.8603   5.3097   C.2       1 RES1   0.0000
    29 O29     11.5724  21.3630   4.7107   O.2       1 RES1   0.0000
    30 N30     10.4204  23.2269   5.3411   N.am      1 RES1   0.0000
    31 C31     11.3029  24.1943   4.6661   C.3       1 RES1   0.0000
    32 C32     12.2167  24.8080   5.7634   C.3       1 RES1   0.0000
    33 O33     13.1441  25.6910   5.0324   O.3       1 RES1   0.0000
    34 C34     10.4081  25.2653   3.9971   C.3       1 RES1   0.0000
    35 C35      9.4923  26.1232   4.8453   C.2       1 RES1   0.0000
    36 C36      8.1738  25.7704   5.1540   C.2       1 RES1   0.0000
    37 C37      7.3549  26.5429   5.9874   C.2       1 RES1   0.0000
    38 C38      7.8723  27.7248   6.5301   C.2       1 RES1   0.0000
    39 C39      9.1898  28.0866   6.2594   C.2       1 RES1   0.0000
    40 C40      9.9920  27.3013   5.4260   C.2       1 RES1   0.0000
@<TRIPOS>BOND
     1     1     2    1
     2     2     3    1
     3     2     4    1
     4     4     5    1
     5     5     6   am
     6     6     7    2
     7     6     8    1
     8     8     9    1
     9     9    10    1
    10    10    11    2
    11    11    12    1
    12    12    13    2
    13    13    14    1
    14    14    15    2
    15    15    16    1
    16    16    17    2
    17    17    18    1
    18    18    19    2
    19     8    20    1
    20    20    21    1
    21    21    22    2
    22    21    23    2
    23    21    24    1
    24    24    25    1
    25    24    26    1
    26    24    27    1
    27     4    28    1
    28    28    29    2
    29    28    30   am
    30    30    31    1
    31    31    32    1
    32    32    33    1
    33    31    34    1
    34    34    35    1
    35    35    36    2
    36    36    37    1
    37    37    38    2
    38    38    39    1
    39    39    40    2
    40    19    10    1
    41    40    35    1
    42    19    14    1
@<TRIPOS>SUBSTRUCTURE
     1 RES1        1 GROUP             0 ****  ****    0  
@<TRIPOS>MOLECULE
ligand_83
    40    42     1     0     0
SMALL
NO_CHARGES
****
Generated from the CSD

@<TRIPOS>ATOM
     1 C1      10.4421  21.3276   8.8013   C.3       1 RES1   0.0000
     2 C2       9.8216  20.2557   7.8901   C.3       1 RES1   0.0000
     3 C3       8.4625  19.7373   8.4150   C.3       1 RES1   0.0000
     4 C4       9.5668  20.8061   6.4653   C.3       1 RES1   0.0000
     5 N5       9.0645  19.7920   5.5017   N.am      1 RES1   0.0000
     6 C6       7.7891  19.7555   5.0265   C.2       1 RES1   0.0000
     7 O7       6.9199  20.5703   5.3596   O.2       1 RES1   0.0000
     8 C8       7.5129  18.6766   3.9581   C.3       1 RES1   0.0000
     9 C9       6.8466  19.4331   2.7802   C.3       1 RES1   0.0000
    10 C10      7.8328  20.4575   2.1915   C.2       1 RES1   0.0000
    11 C11      7.7948  21.7864   2.4256   C.2       1 RES1   0.0000
    12 C12      8.7608  22.6666   1.7944   C.2       1 RES1   0.0000
    13 C13      9.7087  22.1568   0.9598   C.2       1 RES1   0.0000
    14 C14      9.7733  20.7479   0.6873   C.2       1 RES1   0.0000
    15 C15     10.7925  20.2421  -0.1896   C.2       1 RES1   0.0000
    16 C16     10.8469  18.9001  -0.4615   C.2       1 RES1   0.0000
    17 C17      9.9084  18.0048   0.1220   C.2       1 RES1   0.0000
    18 C18      8.9243  18.4956   0.9843   C.2       1 RES1   0.0000
    19 C19      8.8547  19.8646   1.2690   C.2       1 RES1   0.0000
    20 C20      6.6003  17.5237   4.4869   C.3       1 RES1   0.0000
    21 S21      7.5131  16.4550   5.5875   S.o2      1 RES1   0.0000
    22 O22      8.5160  15.8333   4.7681   O.2       1 RES1   0.0000
    23 O23      7.9256  17.1268   6.7766   O.2       1 RES1   0.0000
    24 C24      6.3194  15.1589   6.1229   C.3       1 RES1   0.0000
    25 C25      5.1746  15.9259   6.8285   C.3       1 RES1   0.0000
    26 C26      7.0062  14.1742   7.1009   C.3       1 RES1   0.0000
    27 C27      5.6928  14.4343   4.9045   C.3       1 RES1   0.0000
    28 C28     10.8745  21.3454   5.7693   C.2       1 RES1   0.0000
    29 O29     11.8034  20.6560   5.3799   O.2       1 RES1   0.0000
    30 N30     10.9077  22.7270   5.7075   N.am      1 RES1   0.0000
    31 C31     12.0540  23.4817   5.1723   C.3       1 RES1   0.0000
    32 C32     12.2976  24.6724   6.1412   C.3       1 RES1   0.0000
    33 O33     13.5344  25.3098   5.6529   O.3       1 RES1   0.0000
    34 C34     11.6810  23.9643   3.7499   C.3       1 RES1   0.0000
    35 C35     12.7288  24.6204   2.8746   C.2       1 RES1   0.0000
    36 C36     12.9526  26.0013   2.8448   C.2       1 RES1   0.0000
    37 C37     13.9632  26.5917   2.0755   C.2       1 RES1   0.0000
    38 C38     14.7817  25.7676   1.2943   C.2       1 RES1   0.0000
    39 C39     14.5969  24.3874   1.3248   C.2       1 RES1   0.0000
    40 C40     13.5832  23.8169   2.1005   C.2       1 RES1   0.0000
@<TRIPOS>BOND
     1     1     2    1
     2     2     3    1
     3     2     4    1
     4     4     5    1
     5     5     6   am
     6     6     7    2
     7     6     8    1
     8     8     9    1
     9     9    10    1
    10    10    11    2
    11    11    12    1
    12    12    13    2
    13    13    14    1
    14    14    15    2
    15    15    16    1
    16    16    17    2
    17    17    18    1
    18    18    19    2
    19     8    20    1
    20    20    21    1
    21    21    22    2
    22    21    23    2
    23    21    24    1
    24    24    25    1
    25    24    26    1
    26    24    27    1
    27     4    28    1
    28    28    29    2
    29    28    30   am
    30    30    31    1
    31    31    32    1
    32    32    33    1
    33    31    34    1
    34    34    35    1
    35    35    36    2
    36    36    37    1
    37    37    38    2
    38    38    39    1
    39    39    40    2
    40    19    10    1
    41    40    35    1
    42    19    14    1
@<TRIPOS>SUBSTRUCTURE
     1 RES1        1 GROUP             0 ****  ****    0  
@<TRIPOS>MOLECULE
ligand_84
    40    42     1     0     0
SMALL
NO_CHARGES
****
Generated from the CSD

@<TRIPOS>ATOM
     1 C1      10.7697  21.6739   8.3684   C.3       1 RES1   0.0000
     2 C2      10.1979  20.5331   7.5105   C.3       1 RES1   0.0000
     3 C3       9.0748  19.7490   8.2284   C.3       1 RES1   0.0000
     4 C4       9.5910  21.0701   6.1910   C.3       1 RES1   0.0000
     5 N5       9.1033  20.0107   5.2696   N.am      1 RES1   0.0000
     6 C6       7.7880  19.7512   5.0318   C.2       1 RES1   0.0000
     7 O7       6.8672  20.3856   5.5610   O.2       1 RES1   0.0000
     8 C8       7.5104  18.6629   3.9733   C.3       1 RES1   0.0000
     9 C9       6.8339  19.4076   2.7935   C.3       1 RES1   0.0000
    10 C10      7.8103  20.4355   2.1948   C.2       1 RES1   0.0000
    11 C11      7.7626  21.7657   2.4197   C.2       1 RES1   0.0000
    12 C12      8.7198  22.6489   1.7794   C.2       1 RES1   0.0000
    13 C13      9.6692  22.1407   0.9457   C.2       1 RES1   0.0000
    14 C14      9.7441  20.7304   0.6829   C.2       1 RES1   0.0000
    15 C15     10.7647  20.2265  -0.1935   C.2       1 RES1   0.0000
    16 C16     10.8288  18.8831  -0.4561   C.2       1 RES1   0.0000
    17 C17      9.8990  17.9846   0.1364   C.2       1 RES1   0.0000
    18 C18      8.9136  18.4737   0.9982   C.2       1 RES1   0.0000
    19 C19      8.8342  19.8441   1.2734   C.2       1 RES1   0.0000
    20 C20      6.6058  17.5102   4.5162   C.3       1 RES1   0.0000
    21 S21      6.8187  16.0317   3.5387   S.o2      1 RES1   0.0000
    22 O22      6.2947  16.3557   2.2409   O.2       1 RES1   0.0000
    23 O23      8.1435  15.5097   3.6272   O.2       1 RES1   0.0000
    24 C24      5.7211  14.7678   4.3061   C.3       1 RES1   0.0000
    25 C25      6.2297  14.6156   5.7603   C.3       1 RES1   0.0000
    26 C26      5.8363  13.4272   3.5398   C.3       1 RES1   0.0000
    27 C27      4.2576  15.2713   4.3906   C.3       1 RES1   0.0000
    28 C28     10.6324  21.8603   5.3097   C.2       1 RES1   0.0000
    29 O29     11.5750  21.3636   4.7143   O.2       1 RES1   0.0000
    30 N30     10.4169  23.2265   5.3365   N.am      1 RES1   0.0000
    31 C31     11.2973  24.1939   4.6590   C.3       1 RES1   0.0000
    32 C32     12.2067  24.8158   5.7554   C.3       1 RES1   0.0000
    33 O33     13.1321  25.6992   5.0223   O.3       1 RES1   0.0000
    34 C34     10.4002  25.2587   3.9833   C.3       1 RES1   0.0000
    35 C35      9.4795  26.1171   4.8258   C.2       1 RES1   0.0000
    36 C36      8.1616  25.7610   5.1332   C.2       1 RES1   0.0000
    37 C37      7.3382  26.5342   5.9614   C.2       1 RES1   0.0000
    38 C38      7.8502  27.7205   6.4999   C.2       1 RES1   0.0000
    39 C39      9.1670  28.0858   6.2303   C.2       1 RES1   0.0000
    40 C40      9.9737  27.2996   5.4022   C.2       1 RES1   0.0000
@<TRIPOS>BOND
     1     1     2    1
     2     2     3    1
     3     2     4    1
     4     4     5    1
     5     5     6   am
     6     6     7    2
     7     6     8    1
     8     8     9    1
     9     9    10    1
    10    10    11    2
    11    11    12    1
    12    12    13    2
    13    13    14    1
    14    14    15    2
    15    15    16    1
    16    16    17    2
    17    17    18    1
    18    18    19    2
    19     8    20    1
    20    20    21    1
    21    21    22    2
    22    21    23    2
    23    21    24    1
    24    24    25    1
    25    24    26    1
    26    24    27    1
    27     4    28    1
    28    28    29    2
    29    28    30   am
    30    30    31    1
    31    31    32    1
    32    32    33    1
    33    31    34    1
    34    34    35    1
    35    35    36    2
    36    36    37    1
    37    37    38    2
    38    38    39    1
    39    39    40    2
    40    19    10    1
    41    40    35    1
    42    19    14    1
@<TRIPOS>SUBSTRUCTURE
     1 RES1        1 GROUP             0 ****  ****    0  
@<TRIPOS>MOLECULE
ligand_85
    40    42     1     0     0
SMALL
NO_CHARGES
****
Generated from the CSD

@<TRIPOS>ATOM
     1 C1       3.7979  13.0593   1.7071   C.3       1 RES1   0.0000
     2 C2       4.3657  14.3637   1.1235   C.3       1 RES1   0.0000
     3 C3       3.5441  14.8906  -0.0759   C.3       1 RES1   0.0000
     4 C4       4.3820  15.4942   2.1816   C.3       1 RES1   0.0000
     5 N5       5.0061  16.7588   1.7119   N.am      1 RES1   0.0000
     6 C6       4.9232  17.9444   2.3762   C.2       1 RES1   0.0000
     7 O7       4.3138  18.0798   3.4442   O.2       1 RES1   0.0000
     8 C8       5.7269  19.1067   1.7558   C.3       1 RES1   0.0000
     9 C9       6.8410  19.4250   2.7860   C.3       1 RES1   0.0000
    10 C10      7.8250  20.4490   2.1930   C.2       1 RES1   0.0000
    11 C11      7.8064  21.7740   2.4500   C.2       1 RES1   0.0000
    12 C12      8.7677  22.6547   1.8125   C.2       1 RES1   0.0000
    13 C13      9.6917  22.1494   0.9489   C.2       1 RES1   0.0000
    14 C14      9.7352  20.7446   0.6515   C.2       1 RES1   0.0000
    15 C15     10.7296  20.2433  -0.2559   C.2       1 RES1   0.0000
    16 C16     10.7637  18.9056  -0.5513   C.2       1 RES1   0.0000
    17 C17      9.8286  18.0103   0.0377   C.2       1 RES1   0.0000
    18 C18      8.8688  18.4966   0.9295   C.2       1 RES1   0.0000
    19 C19      8.8202  19.8612   1.2384   C.2       1 RES1   0.0000
    20 C20      4.8435  20.3618   1.4623   C.3       1 RES1   0.0000
    21 S21      3.8669  20.1116  -0.0109   S.o2      1 RES1   0.0000
    22 O22      3.5904  18.7024  -0.0486   O.2       1 RES1   0.0000
    23 O23      2.7725  21.0229  -0.0968   O.2       1 RES1   0.0000
    24 C24      4.9810  20.5198  -1.4193   C.3       1 RES1   0.0000
    25 C25      5.4186  21.9854  -1.1810   C.3       1 RES1   0.0000
    26 C26      4.2163  20.3848  -2.7591   C.3       1 RES1   0.0000
    27 C27      6.2665  19.6545  -1.3879   C.3       1 RES1   0.0000
    28 C28      5.2287  15.1299   3.4607   C.2       1 RES1   0.0000
    29 O29      6.4441  15.0242   3.4969   O.2       1 RES1   0.0000
    30 N30      4.4336  14.8563   4.5591   N.am      1 RES1   0.0000
    31 C31      4.9762  14.4178   5.8566   C.3       1 RES1   0.0000
    32 C32      4.7532  12.8818   5.9388   C.3       1 RES1   0.0000
    33 O33      5.3958  12.4738   7.2017   O.3       1 RES1   0.0000
    34 C34      4.2093  15.1711   6.9699   C.3       1 RES1   0.0000
    35 C35      2.7118  14.9923   7.1110   C.2       1 RES1   0.0000
    36 C36      1.7747  15.7981   6.4550   C.2       1 RES1   0.0000
    37 C37      0.3931  15.5869   6.5467   C.2       1 RES1   0.0000
    38 C38     -0.0744  14.5292   7.3354   C.2       1 RES1   0.0000
    39 C39      0.8376  13.6962   7.9791   C.2       1 RES1   0.0000
    40 C40      2.2132  13.9227   7.8740   C.2       1 RES1   0.0000
@<TRIPOS>BOND
     1     1     2    1
     2     2     3    1
     3     2     4    1
     4     4     5    1
     5     5     6   am
     6     6     7    2
     7     6     8    1
     8     8     9    1
     9     9    10    1
    10    10    11    2
    11    11    12    1
    12    12    13    2
    13    13    14    1
    14    14    15    2
    15    15    16    1
    16    16    17    2
    17    17    18    1
    18    18    19    2
    19     8    20    1
    20    20    21    1
    21    21    22    2
    22    21    23    2
    23    21    24    1
    24    24    25    1
    25    24    26    1
    26    24    27    1
    27     4    28    1
    28    28    29    2
    29    28    30   am
    30    30    31    1
    31    31    32    1
    32    32    33    1
    33    31    34    1
    34    34    35    1
    35    35    36    2
    36    36    37    1
    37    37    38    2
    38    38    39    1
    39    39    40    2
    40    19    10    1
    41    40    35    1
    42    19    14    1
@<TRIPOS>SUBSTRUCTURE
     1 RES1        1 GROUP             0 ****  ****    0  
@<TRIPOS>MOLECULE
ligand_86
    40    42     1     0     0
SMALL
NO_CHARGES
****
Generated from the CSD

@<TRIPOS>ATOM
     1 C1       2.1919  13.9175   2.4726   C.3       1 RES1   0.0000
     2 C2       2.9767  15.0179   1.7395   C.3       1 RES1   0.0000
     3 C3       2.0650  15.9533   0.9116   C.3       1 RES1   0.0000
     4 C4       3.7491  15.9178   2.7352   C.3       1 RES1   0.0000
     5 N5       4.6040  16.9474   2.0885   N.am      1 RES1   0.0000
     6 C6       4.7224  18.2297   2.5305   C.2       1 RES1   0.0000
     7 O7       4.1224  18.6609   3.5227   O.2       1 RES1   0.0000
     8 C8       5.7389  19.1016   1.7635   C.3       1 RES1   0.0000
     9 C9       6.8673  19.4017   2.7836   C.3       1 RES1   0.0000
    10 C10      7.9036  20.3493   2.1539   C.2       1 RES1   0.0000
    11 C11      7.9698  21.6785   2.3797   C.2       1 RES1   0.0000
    12 C12      8.9741  22.4836   1.7091   C.2       1 RES1   0.0000
    13 C13      9.8529  21.9027   0.8459   C.2       1 RES1   0.0000
    14 C14      9.8060  20.4915   0.5813   C.2       1 RES1   0.0000
    15 C15     10.7547  19.9093  -0.3268   C.2       1 RES1   0.0000
    16 C16     10.7025  18.5656  -0.5909   C.2       1 RES1   0.0000
    17 C17      9.7228  17.7433   0.0312   C.2       1 RES1   0.0000
    18 C18      8.8076  18.3080   0.9236   C.2       1 RES1   0.0000
    19 C19      8.8470  19.6797   1.2007   C.2       1 RES1   0.0000
    20 C20      5.1061  20.4174   1.2069   C.3       1 RES1   0.0000
    21 S21      4.3994  20.1397  -0.4087   S.o2      1 RES1   0.0000
    22 O22      5.5131  19.8342  -1.2631   O.2       1 RES1   0.0000
    23 O23      3.3008  19.2302  -0.3705   O.2       1 RES1   0.0000
    24 C24      3.6997  21.7617  -0.9291   C.3       1 RES1   0.0000
    25 C25      2.6430  22.1134   0.1462   C.3       1 RES1   0.0000
    26 C26      3.0424  21.6343  -2.3254   C.3       1 RES1   0.0000
    27 C27      4.7750  22.8772  -0.8865   C.3       1 RES1   0.0000
    28 C28      4.7693  15.1144   3.6292   C.2       1 RES1   0.0000
    29 O29      4.5919  14.8001   4.7952   O.2       1 RES1   0.0000
    30 N30      5.9580  14.8560   2.9706   N.am      1 RES1   0.0000
    31 C31      7.1177  14.2221   3.6213   C.3       1 RES1   0.0000
    32 C32      8.3752  15.0129   3.1638   C.3       1 RES1   0.0000
    33 O33      9.4936  14.4098   3.9121   O.3       1 RES1   0.0000
    34 C34      7.1690  12.7446   3.1634   C.3       1 RES1   0.0000
    35 C35      6.0449  11.7988   3.5325   C.2       1 RES1   0.0000
    36 C36      6.0357  11.0334   4.7039   C.2       1 RES1   0.0000
    37 C37      4.9642  10.2062   5.0636   C.2       1 RES1   0.0000
    38 C38      3.8559  10.1331   4.2118   C.2       1 RES1   0.0000
    39 C39      3.8282  10.9036   3.0519   C.2       1 RES1   0.0000
    40 C40      4.9073  11.7246   2.7108   C.2       1 RES1   0.0000
@<TRIPOS>BOND
     1     1     2    1
     2     2     3    1
     3     2     4    1
     4     4     5    1
     5     5     6   am
     6     6     7    2
     7     6     8    1
     8     8     9    1
     9     9    10    1
    10    10    11    2
    11    11    12    1
    12    12    13    2
    13    13    14    1
    14    14    15    2
    15    15    16    1
    16    16    17    2
    17    17    18    1
    18    18    19    2
    19     8    20    1
    20    20    21    1
    21    21    22    2
    22    21    23    2
    23    21    24    1
    24    24    25    1
    25    24    26    1
    26    24    27    1
    27     4    28    1
    28    28    29    2
    29    28    30   am
    30    30    31    1
    31    31    32    1
    32    32    33    1
    33    31    34    1
    34    34    35    1
    35    35    36    2
    36    36    37    1
    37    37    38    2
    38    38    39    1
    39    39    40    2
    40    19    10    1
    41    40    35    1
    42    19    14    1
@<TRIPOS>SUBSTRUCTURE
     1 RES1        1 GROUP             0 ****  ****    0  
@<TRIPOS>MOLECULE
ligand_87
    40    42     1     0     0
SMALL
NO_CHARGES
****
Generated from the CSD

@<TRIPOS>ATOM
     1 C1       5.5033  23.3207   7.7918   C.3       1 RES1   0.0000
     2 C2       5.4460  22.3514   6.5995   C.3       1 RES1   0.0000
     3 C3       5.3120  23.0794   5.2418   C.3       1 RES1   0.0000
     4 C4       6.7272  21.4859   6.5149   C.3       1 RES1   0.0000
     5 N5       6.6991  20.4602   5.4396   N.am      1 RES1   0.0000
     6 C6       7.7880  19.7531   5.0296   C.2       1 RES1   0.0000
     7 O7       8.9106  19.8889   5.5315   O.2       1 RES1   0.0000
     8 C8       7.5144  18.6872   3.9476   C.3       1 RES1   0.0000
     9 C9       6.9133  19.4686   2.7509   C.3       1 RES1   0.0000
    10 C10      7.9469  20.4718   2.2089   C.2       1 RES1   0.0000
    11 C11      7.9332  21.7996   2.4519   C.2       1 RES1   0.0000
    12 C12      8.9447  22.6593   1.8654   C.2       1 RES1   0.0000
    13 C13      9.9111  22.1315   1.0640   C.2       1 RES1   0.0000
    14 C14      9.9509  20.7233   0.7830   C.2       1 RES1   0.0000
    15 C15     10.9904  20.1980  -0.0580   C.2       1 RES1   0.0000
    16 C16     11.0216  18.8570  -0.3382   C.2       1 RES1   0.0000
    17 C17     10.0390  17.9817   0.2016   C.2       1 RES1   0.0000
    18 C18      9.0349  18.4913   1.0292   C.2       1 RES1   0.0000
    19 C19      8.9887  19.8596   1.3218   C.2       1 RES1   0.0000
    20 C20      6.5478  17.5623   4.4398   C.3       1 RES1   0.0000
    21 S21      7.3864  16.4642   5.5701   S.o2      1 RES1   0.0000
    22 O22      8.3985  15.8125   4.7860   O.2       1 RES1   0.0000
    23 O23      7.7762  17.1212   6.7750   O.2       1 RES1   0.0000
    24 C24      6.1343  15.2053   6.0588   C.3       1 RES1   0.0000
    25 C25      4.9892  16.0068   6.7242   C.3       1 RES1   0.0000
    26 C26      6.7542  14.1983   7.0585   C.3       1 RES1   0.0000
    27 C27      5.5300  14.5022   4.8167   C.3       1 RES1   0.0000
    28 C28      6.9834  20.6341   7.8165   C.2       1 RES1   0.0000
    29 O29      6.3146  19.6796   8.1792   O.2       1 RES1   0.0000
    30 N30      8.0261  21.1328   8.5765   N.am      1 RES1   0.0000
    31 C31      8.4186  20.5633   9.8771   C.3       1 RES1   0.0000
    32 C32      7.8333  21.4997  10.9709   C.3       1 RES1   0.0000
    33 O33      8.1646  20.8419  12.2483   O.3       1 RES1   0.0000
    34 C34      9.9648  20.5166   9.9267   C.3       1 RES1   0.0000
    35 C35     10.7268  19.6397   8.9547   C.2       1 RES1   0.0000
    36 C36     11.0632  18.3076   9.2199   C.2       1 RES1   0.0000
    37 C37     11.7167  17.4886   8.2905   C.2       1 RES1   0.0000
    38 C38     12.0573  18.0257   7.0436   C.2       1 RES1   0.0000
    39 C39     11.7119  19.3414   6.7442   C.2       1 RES1   0.0000
    40 C40     11.0583  20.1427   7.6851   C.2       1 RES1   0.0000
@<TRIPOS>BOND
     1     1     2    1
     2     2     3    1
     3     2     4    1
     4     4     5    1
     5     5     6   am
     6     6     7    2
     7     6     8    1
     8     8     9    1
     9     9    10    1
    10    10    11    2
    11    11    12    1
    12    12    13    2
    13    13    14    1
    14    14    15    2
    15    15    16    1
    16    16    17    2
    17    17    18    1
    18    18    19    2
    19     8    20    1
    20    20    21    1
    21    21    22    2
    22    21    23    2
    23    21    24    1
    24    24    25    1
    25    24    26    1
    26    24    27    1
    27     4    28    1
    28    28    29    2
    29    28    30   am
    30    30    31    1
    31    31    32    1
    32    32    33    1
    33    31    34    1
    34    34    35    1
    35    35    36    2
    36    36    37    1
    37    37    38    2
    38    38    39    1
    39    39    40    2
    40    19    10    1
    41    40    35    1
    42    19    14    1
@<TRIPOS>SUBSTRUCTURE
     1 RES1        1 GROUP             0 ****  ****    0  
@<TRIPOS>MOLECULE
ligand_88
    40    42     1     0     0
SMALL
NO_CHARGES
****
Generated from the CSD

@<TRIPOS>ATOM
     1 C1       9.8165  22.4114   8.5457   C.3       1 RES1   0.0000
     2 C2       9.8576  21.3310   7.4524   C.3       1 RES1   0.0000
     3 C3      10.3577  19.9655   7.9784   C.3       1 RES1   0.0000
     4 C4       8.4528  21.0867   6.8485   C.3       1 RES1   0.0000
     5 N5       8.4350  20.1203   5.7195   N.am      1 RES1   0.0000
     6 C6       7.3012  19.5789   5.1949   C.2       1 RES1   0.0000
     7 O7       6.1682  19.8448   5.6146   O.2       1 RES1   0.0000
     8 C8       7.5105  18.6716   3.9642   C.3       1 RES1   0.0000
     9 C9       6.8410  19.4250   2.7860   C.3       1 RES1   0.0000
    10 C10      7.8250  20.4490   2.1930   C.2       1 RES1   0.0000
    11 C11      7.7863  21.7784   2.4242   C.2       1 RES1   0.0000
    12 C12      8.7501  22.6580   1.7890   C.2       1 RES1   0.0000
    13 C13      9.6967  22.1473   0.9536   C.2       1 RES1   0.0000
    14 C14      9.7620  20.7378   0.6841   C.2       1 RES1   0.0000
    15 C15     10.7799  20.2310  -0.1939   C.2       1 RES1   0.0000
    16 C16     10.8349  18.8884  -0.4629   C.2       1 RES1   0.0000
    17 C17      9.8984  17.9936   0.1246   C.2       1 RES1   0.0000
    18 C18      8.9157  18.4854   0.9879   C.2       1 RES1   0.0000
    19 C19      8.8455  19.8550   1.2696   C.2       1 RES1   0.0000
    20 C20      6.8979  17.2467   4.1540   C.3       1 RES1   0.0000
    21 S21      7.8991  16.2763   5.2688   S.o2      1 RES1   0.0000
    22 O22      9.1516  16.0903   4.5903   O.2       1 RES1   0.0000
    23 O23      7.9137  16.8130   6.5905   O.2       1 RES1   0.0000
    24 C24      7.0605  14.6414   5.3923   C.3       1 RES1   0.0000
    25 C25      5.6497  14.9484   5.9506   C.3       1 RES1   0.0000
    26 C26      7.8428  13.7135   6.3541   C.3       1 RES1   0.0000
    27 C27      6.8632  14.0039   3.9934   C.3       1 RES1   0.0000
    28 C28      7.8176  22.3852   6.2191   C.2       1 RES1   0.0000
    29 O29      8.2026  22.9381   5.2014   O.2       1 RES1   0.0000
    30 N30      6.7960  22.9022   6.9955   N.am      1 RES1   0.0000
    31 C31      6.0891  24.1523   6.6675   C.3       1 RES1   0.0000
    32 C32      6.6765  25.2546   7.5925   C.3       1 RES1   0.0000
    33 O33      6.0501  26.5075   7.1319   O.3       1 RES1   0.0000
    34 C34      4.5805  23.9260   6.9282   C.3       1 RES1   0.0000
    35 C35      3.5748  24.9804   6.5148   C.2       1 RES1   0.0000
    36 C36      3.1504  26.0129   7.3585   C.2       1 RES1   0.0000
    37 C37      2.2643  27.0164   6.9464   C.2       1 RES1   0.0000
    38 C38      1.7731  26.9829   5.6361   C.2       1 RES1   0.0000
    39 C39      2.1986  25.9805   4.7677   C.2       1 RES1   0.0000
    40 C40      3.0850  24.9884   5.1976   C.2       1 RES1   0.0000
@<TRIPOS>BOND
     1     1     2    1
     2     2     3    1
     3     2     4    1
     4     4     5    1
     5     5     6   am
     6     6     7    2
     7     6     8    1
     8     8     9    1
     9     9    10    1
    10    10    11    2
    11    11    12    1
    12    12    13    2
    13    13    14    1
    14    14    15    2
    15    15    16    1
    16    16    17    2
    17    17    18    1
    18    18    19    2
    19     8    20    1
    20    20    21    1
    21    21    22    2
    22    21    23    2
    23    21    24    1
    24    24    25    1
    25    24    26    1
    26    24    27    1
    27     4    28    1
    28    28    29    2
    29    28    30   am
    30    30    31    1
    31    31    32    1
    32    32    33    1
    33    31    34    1
    34    34    35    1
    35    35    36    2
    36    36    37    1
    37    37    38    2
    38    38    39    1
    39    39    40    2
    40    19    10    1
    41    40    35    1
    42    19    14    1
@<TRIPOS>SUBSTRUCTURE
     1 RES1        1 GROUP             0 ****  ****    0  
@<TRIPOS>MOLECULE
ligand_89
    40    42     1     0     0
SMALL
NO_CHARGES
****
Generated from the CSD

@<TRIPOS>ATOM
     1 C1       9.8153  21.5510   8.8899   C.3       1 RES1   0.0000
     2 C2       9.1518  20.5455   7.9342   C.3       1 RES1   0.0000
     3 C3       7.6072  20.6088   7.9766   C.3       1 RES1   0.0000
     4 C4       9.5668  20.8061   6.4653   C.3       1 RES1   0.0000
     5 N5       9.0645  19.7920   5.5017   N.am      1 RES1   0.0000
     6 C6       7.8111  19.7983   4.9700   C.2       1 RES1   0.0000
     7 O7       6.9775  20.6791   5.2142   O.2       1 RES1   0.0000
     8 C8       7.5189  18.6738   3.9542   C.3       1 RES1   0.0000
     9 C9       7.0107  19.3989   2.6814   C.3       1 RES1   0.0000
    10 C10      8.1165  20.3116   2.1224   C.2       1 RES1   0.0000
    11 C11      8.1754  21.6485   2.3001   C.2       1 RES1   0.0000
    12 C12      9.2518  22.4173   1.7030   C.2       1 RES1   0.0000
    13 C13     10.2063  21.7946   0.9574   C.2       1 RES1   0.0000
    14 C14     10.1695  20.3741   0.7464   C.2       1 RES1   0.0000
    15 C15     11.1981  19.7476  -0.0367   C.2       1 RES1   0.0000
    16 C16     11.1568  18.3947  -0.2505   C.2       1 RES1   0.0000
    17 C17     10.1096  17.6063   0.3016   C.2       1 RES1   0.0000
    18 C18      9.1157  18.2144   1.0731   C.2       1 RES1   0.0000
    19 C19      9.1433  19.5960   1.2975   C.2       1 RES1   0.0000
    20 C20      6.4708  17.6417   4.4816   C.3       1 RES1   0.0000
    21 S21      7.2175  16.5418   5.6730   S.o2      1 RES1   0.0000
    22 O22      8.2284  17.3231   6.3299   O.2       1 RES1   0.0000
    23 O23      6.2463  15.8720   6.4751   O.2       1 RES1   0.0000
    24 C24      8.0518  15.2319   4.6835   C.3       1 RES1   0.0000
    25 C25      6.9375  14.6136   3.8045   C.3       1 RES1   0.0000
    26 C26      8.6666  14.1656   5.6231   C.3       1 RES1   0.0000
    27 C27      9.1021  15.8394   3.7190   C.3       1 RES1   0.0000
    28 C28     11.1278  20.7644   6.2487   C.2       1 RES1   0.0000
    29 O29     11.8343  21.7312   6.0118   O.2       1 RES1   0.0000
    30 N30     11.6300  19.4758   6.2768   N.am      1 RES1   0.0000
    31 C31     13.0332  19.1516   5.9667   C.3       1 RES1   0.0000
    32 C32     13.0537  18.5941   4.5160   C.3       1 RES1   0.0000
    33 O33     14.4808  18.3772   4.2147   O.3       1 RES1   0.0000
    34 C34     13.5147  18.0994   6.9945   C.3       1 RES1   0.0000
    35 C35     13.5901  18.4570   8.4644   C.2       1 RES1   0.0000
    36 C36     14.7295  19.0013   9.0673   C.2       1 RES1   0.0000
    37 C37     14.7689  19.3824  10.4145   C.2       1 RES1   0.0000
    38 C38     13.6222  19.2043  11.1972   C.2       1 RES1   0.0000
    39 C39     12.4665  18.6879  10.6162   C.2       1 RES1   0.0000
    40 C40     12.4468  18.3147   9.2690   C.2       1 RES1   0.0000
@<TRIPOS>BOND
     1     1     2    1
     2     2     3    1
     3     2     4    1
     4     4     5    1
     5     5     6   am
     6     6     7    2
     7     6     8    1
     8     8     9    1
     9     9    10    1
    10    10    11    2
    11    11    12    1
    12    12    13    2
    13    13    14    1
    14    14    15    2
    15    15    16    1
    16    16    17    2
    17    17    18    1
    18    18    19    2
    19     8    20    1
    20    20    21    1
    21    21    22    2
    22    21    23    2
    23    21    24    1
    24    24    25    1
    25    24    26    1
    26    24    27    1
    27     4    28    1
    28    28    29    2
    29    28    30   am
    30    30    31    1
    31    31    32    1
    32    32    33    1
    33    31    34    1
    34    34    35    1
    35    35    36    2
    36    36    37    1
    37    37    38    2
    38    38    39    1
    39    39    40    2
    40    19    10    1
    41    40    35    1
    42    19    14    1
@<TRIPOS>SUBSTRUCTURE
     1 RES1        1 GROUP             0 ****  ****    0  
@<TRIPOS>MOLECULE
ligand_90
    40    42     1     0     0
SMALL
NO_CHARGES
****
Generated from the CSD

@<TRIPOS>ATOM
     1 C1      10.1710  21.7641   8.5736   C.3       1 RES1   0.0000
     2 C2       9.5077  20.6940   7.6908   C.3       1 RES1   0.0000
     3 C3       8.0090  20.4946   8.0155   C.3       1 RES1   0.0000
     4 C4       9.5910  21.0701   6.1910   C.3       1 RES1   0.0000
     5 N5       9.1033  20.0107   5.2696   N.am      1 RES1   0.0000
     6 C6       7.7912  19.8021   4.9715   C.2       1 RES1   0.0000
     7 O7       6.8785  20.5195   5.3988   O.2       1 RES1   0.0000
     8 C8       7.5141  18.6553   3.9767   C.3       1 RES1   0.0000
     9 C9       6.9172  19.3424   2.7215   C.3       1 RES1   0.0000
    10 C10      7.9697  20.2628   2.0784   C.2       1 RES1   0.0000
    11 C11      7.9873  21.6081   2.1883   C.2       1 RES1   0.0000
    12 C12      9.0141  22.3820   1.5154   C.2       1 RES1   0.0000
    13 C13      9.9636  21.7553   0.7666   C.2       1 RES1   0.0000
    14 C14      9.9700  20.3255   0.6268   C.2       1 RES1   0.0000
    15 C15     10.9922  19.6957  -0.1618   C.2       1 RES1   0.0000
    16 C16     10.9917  18.3331  -0.3075   C.2       1 RES1   0.0000
    17 C17      9.9930  17.5385   0.3203   C.2       1 RES1   0.0000
    18 C18      9.0057  18.1506   1.0971   C.2       1 RES1   0.0000
    19 C19      8.9920  19.5419   1.2525   C.2       1 RES1   0.0000
    20 C20      6.5426  17.5766   4.5549   C.3       1 RES1   0.0000
    21 S21      7.3840  16.5485   5.7473   S.o2      1 RES1   0.0000
    22 O22      8.3803  15.8350   4.9977   O.2       1 RES1   0.0000
    23 O23      7.7945  17.2812   6.9006   O.2       1 RES1   0.0000
    24 C24      6.1257  15.3386   6.3340   C.3       1 RES1   0.0000
    25 C25      4.9964  16.1951   6.9567   C.3       1 RES1   0.0000
    26 C26      6.7478  14.3950   7.3925   C.3       1 RES1   0.0000
    27 C27      5.4999  14.5596   5.1492   C.3       1 RES1   0.0000
    28 C28     11.0676  21.3213   5.6990   C.2       1 RES1   0.0000
    29 O29     11.9127  20.4570   5.5299   O.2       1 RES1   0.0000
    30 N30     11.3505  22.6666   5.5447   N.am      1 RES1   0.0000
    31 C31     12.6783  23.1704   5.1534   C.3       1 RES1   0.0000
    32 C32     13.1641  24.0935   6.3057   C.3       1 RES1   0.0000
    33 O33     14.5300  24.4930   5.9193   O.3       1 RES1   0.0000
    34 C34     12.5179  23.9458   3.8236   C.3       1 RES1   0.0000
    35 C35     11.6466  25.1836   3.7700   C.2       1 RES1   0.0000
    36 C36     10.2762  25.1493   3.4891   C.2       1 RES1   0.0000
    37 C37      9.4686  26.2936   3.4996   C.2       1 RES1   0.0000
    38 C38     10.0569  27.5288   3.7953   C.2       1 RES1   0.0000
    39 C39     11.4140  27.5879   4.1032   C.2       1 RES1   0.0000
    40 C40     12.2031  26.4339   4.0888   C.2       1 RES1   0.0000
@<TRIPOS>BOND
     1     1     2    1
     2     2     3    1
     3     2     4    1
     4     4     5    1
     5     5     6   am
     6     6     7    2
     7     6     8    1
     8     8     9    1
     9     9    10    1
    10    10    11    2
    11    11    12    1
    12    12    13    2
    13    13    14    1
    14    14    15    2
    15    15    16    1
    16    16    17    2
    17    17    18    1
    18    18    19    2
    19     8    20    1
    20    20    21    1
    21    21    22    2
    22    21    23    2
    23    21    24    1
    24    24    25    1
    25    24    26    1
    26    24    27    1
    27     4    28    1
    28    28    29    2
    29    28    30   am
    30    30    31    1
    31    31    32    1
    32    32    33    1
    33    31    34    1
    34    34    35    1
    35    35    36    2
    36    36    37    1
    37    37    38    2
    38    38    39    1
    39    39    40    2
    40    19    10    1
    41    40    35    1
    42    19    14    1
@<TRIPOS>SUBSTRUCTURE
     1 RES1        1 GROUP             0 ****  ****    0  
@<TRIPOS>MOLECULE
ligand_91
    40    42     1     0     0
SMALL
NO_CHARGES
****
Generated from the CSD

@<TRIPOS>ATOM
     1 C1       2.7001  17.3448   8.2800   C.3       1 RES1   0.0000
     2 C2       4.0271  17.9089   7.7459   C.3       1 RES1   0.0000
     3 C3       5.1918  16.8966   7.8469   C.3       1 RES1   0.0000
     4 C4       3.9110  18.3049   6.2535   C.3       1 RES1   0.0000
     5 N5       5.1305  18.9471   5.6972   N.am      1 RES1   0.0000
     6 C6       5.9536  18.3616   4.7842   C.2       1 RES1   0.0000
     7 O7       5.7596  17.2281   4.3280   O.2       1 RES1   0.0000
     8 C8       7.1096  19.2472   4.2733   C.3       1 RES1   0.0000
     9 C9       6.7999  19.4938   2.7742   C.3       1 RES1   0.0000
    10 C10      7.7892  20.5221   2.1978   C.2       1 RES1   0.0000
    11 C11      7.7171  21.8555   2.3951   C.2       1 RES1   0.0000
    12 C12      8.6907  22.7381   1.7791   C.2       1 RES1   0.0000
    13 C13      9.6802  22.2260   0.9959   C.2       1 RES1   0.0000
    14 C14      9.7819  20.8120   0.7634   C.2       1 RES1   0.0000
    15 C15     10.8443  20.3042  -0.0594   C.2       1 RES1   0.0000
    16 C16     10.9345  18.9570  -0.2935   C.2       1 RES1   0.0000
    17 C17      9.9905  18.0586   0.2763   C.2       1 RES1   0.0000
    18 C18      8.9641  18.5518   1.0863   C.2       1 RES1   0.0000
    19 C19      8.8577  19.9260   1.3318   C.2       1 RES1   0.0000
    20 C20      8.5101  18.5815   4.4661   C.3       1 RES1   0.0000
    21 S21      8.9937  18.6228   6.1840   S.o2      1 RES1   0.0000
    22 O22      9.1613  20.0146   6.4981   O.2       1 RES1   0.0000
    23 O23      8.1336  17.8375   7.0081   O.2       1 RES1   0.0000
    24 C24     10.6455  17.8117   6.2536   C.3       1 RES1   0.0000
    25 C25     10.4176  16.3770   5.7188   C.3       1 RES1   0.0000
    26 C26     11.1614  17.7793   7.7133   C.3       1 RES1   0.0000
    27 C27     11.6491  18.4974   5.2918   C.3       1 RES1   0.0000
    28 C28      2.7869  19.3774   5.9855   C.2       1 RES1   0.0000
    29 O29      1.7227  19.1613   5.4281   O.2       1 RES1   0.0000
    30 N30      3.1630  20.6470   6.3857   N.am      1 RES1   0.0000
    31 C31      2.3599  21.8500   6.1070   C.3       1 RES1   0.0000
    32 C32      3.0347  22.5705   4.9064   C.3       1 RES1   0.0000
    33 O33      2.1227  23.6793   4.5701   O.3       1 RES1   0.0000
    34 C34      2.3641  22.7283   7.3813   C.3       1 RES1   0.0000
    35 C35      1.4758  23.9526   7.4592   C.2       1 RES1   0.0000
    36 C36      1.8900  25.2309   7.0686   C.2       1 RES1   0.0000
    37 C37      1.0415  26.3451   7.0900   C.2       1 RES1   0.0000
    38 C38     -0.2769  26.1777   7.5291   C.2       1 RES1   0.0000
    39 C39     -0.7226  24.9113   7.8998   C.2       1 RES1   0.0000
    40 C40      0.1394  23.8110   7.8702   C.2       1 RES1   0.0000
@<TRIPOS>BOND
     1     1     2    1
     2     2     3    1
     3     2     4    1
     4     4     5    1
     5     5     6   am
     6     6     7    2
     7     6     8    1
     8     8     9    1
     9     9    10    1
    10    10    11    2
    11    11    12    1
    12    12    13    2
    13    13    14    1
    14    14    15    2
    15    15    16    1
    16    16    17    2
    17    17    18    1
    18    18    19    2
    19     8    20    1
    20    20    21    1
    21    21    22    2
    22    21    23    2
    23    21    24    1
    24    24    25    1
    25    24    26    1
    26    24    27    1
    27     4    28    1
    28    28    29    2
    29    28    30   am
    30    30    31    1
    31    31    32    1
    32    32    33    1
    33    31    34    1
    34    34    35    1
    35    35    36    2
    36    36    37    1
    37    37    38    2
    38    38    39    1
    39    39    40    2
    40    19    10    1
    41    40    35    1
    42    19    14    1
@<TRIPOS>SUBSTRUCTURE
     1 RES1        1 GROUP             0 ****  ****    0  
@<TRIPOS>MOLECULE
ligand_92
    40    42     1     0     0
SMALL
NO_CHARGES
****
Generated from the CSD

@<TRIPOS>ATOM
     1 C1       9.8154  21.5509   8.8899   C.3       1 RES1   0.0000
     2 C2       9.1518  20.5455   7.9342   C.3       1 RES1   0.0000
     3 C3       7.6072  20.6089   7.9767   C.3       1 RES1   0.0000
     4 C4       9.5668  20.8061   6.4653   C.3       1 RES1   0.0000
     5 N5       9.0645  19.7920   5.5017   N.am      1 RES1   0.0000
     6 C6       7.8113  19.7986   4.9696   C.2       1 RES1   0.0000
     7 O7       6.9781  20.6801   5.2128   O.2       1 RES1   0.0000
     8 C8       7.5188  18.6735   3.9545   C.3       1 RES1   0.0000
     9 C9       6.9512  19.3930   2.7038   C.3       1 RES1   0.0000
    10 C10      8.0185  20.3286   2.1089   C.2       1 RES1   0.0000
    11 C11      8.0419  21.6692   2.2657   C.2       1 RES1   0.0000
    12 C12      9.0833  22.4596   1.6354   C.2       1 RES1   0.0000
    13 C13     10.0404  21.8533   0.8798   C.2       1 RES1   0.0000
    14 C14     10.0410  20.4292   0.6906   C.2       1 RES1   0.0000
    15 C15     11.0715  19.8207  -0.1040   C.2       1 RES1   0.0000
    16 C16     11.0655  18.4640  -0.2969   C.2       1 RES1   0.0000
    17 C17     10.0530  17.6544   0.2880   C.2       1 RES1   0.0000
    18 C18      9.0574  18.2452   1.0706   C.2       1 RES1   0.0000
    19 C19      9.0491  19.6304   1.2739   C.2       1 RES1   0.0000
    20 C20      6.5167  17.6089   4.5060   C.3       1 RES1   0.0000
    21 S21      6.6842  16.0696   3.6176   S.o2      1 RES1   0.0000
    22 O22      6.2476  16.3542   2.2789   O.2       1 RES1   0.0000
    23 O23      7.9670  15.4736   3.8033   O.2       1 RES1   0.0000
    24 C24      5.4714  14.9180   4.3885   C.3       1 RES1   0.0000
    25 C25      5.8955  14.8139   5.8736   C.3       1 RES1   0.0000
    26 C26      5.5396  13.5334   3.6985   C.3       1 RES1   0.0000
    27 C27      4.0404  15.5133   4.3688   C.3       1 RES1   0.0000
    28 C28     11.1278  20.7644   6.2487   C.2       1 RES1   0.0000
    29 O29     11.8343  21.7312   6.0119   O.2       1 RES1   0.0000
    30 N30     11.6300  19.4758   6.2767   N.am      1 RES1   0.0000
    31 C31     13.0330  19.1515   5.9659   C.3       1 RES1   0.0000
    32 C32     13.0528  18.5938   4.5153   C.3       1 RES1   0.0000
    33 O33     14.4798  18.3777   4.2130   O.3       1 RES1   0.0000
    34 C34     13.5150  18.0994   6.9936   C.3       1 RES1   0.0000
    35 C35     13.5907  18.4570   8.4635   C.2       1 RES1   0.0000
    36 C36     14.7302  19.0016   9.0660   C.2       1 RES1   0.0000
    37 C37     14.7698  19.3827  10.4132   C.2       1 RES1   0.0000
    38 C38     13.6235  19.2044  11.1963   C.2       1 RES1   0.0000
    39 C39     12.4677  18.6877  10.6156   C.2       1 RES1   0.0000
    40 C40     12.4477  18.3145   9.2684   C.2       1 RES1   0.0000
@<TRIPOS>BOND
     1     1     2    1
     2     2     3    1
     3     2     4    1
     4     4     5    1
     5     5     6   am
     6     6     7    2
     7     6     8    1
     8     8     9    1
     9     9    10    1
    10    10    11    2
    11    11    12    1
    12    12    13    2
    13    13    14    1
    14    14    15    2
    15    15    16    1
    16    16    17    2
    17    17    18    1
    18    18    19    2
    19     8    20    1
    20    20    21    1
    21    21    22    2
    22    21    23    2
    23    21    24    1
    24    24    25    1
    25    24    26    1
    26    24    27    1
    27     4    28    1
    28    28    29    2
    29    28    30   am
    30    30    31    1
    31    31    32    1
    32    32    33    1
    33    31    34    1
    34    34    35    1
    35    35    36    2
    36    36    37    1
    37    37    38    2
    38    38    39    1
    39    39    40    2
    40    19    10    1
    41    40    35    1
    42    19    14    1
@<TRIPOS>SUBSTRUCTURE
     1 RES1        1 GROUP             0 ****  ****    0  
@<TRIPOS>MOLECULE
ligand_93
    40    42     1     0     0
SMALL
NO_CHARGES
****
Generated from the CSD

@<TRIPOS>ATOM
     1 C1       2.1932  13.9165   2.4725   C.3       1 RES1   0.0000
     2 C2       2.9767  15.0179   1.7395   C.3       1 RES1   0.0000
     3 C3       2.0637  15.9531   0.9128   C.3       1 RES1   0.0000
     4 C4       3.7491  15.9178   2.7352   C.3       1 RES1   0.0000
     5 N5       4.6040  16.9474   2.0885   N.am      1 RES1   0.0000
     6 C6       4.7223  18.2298   2.5304   C.2       1 RES1   0.0000
     7 O7       4.1221  18.6610   3.5225   O.2       1 RES1   0.0000
     8 C8       5.7388  19.1016   1.7634   C.3       1 RES1   0.0000
     9 C9       6.8670  19.4019   2.7837   C.3       1 RES1   0.0000
    10 C10      7.8767  20.3891   2.1717   C.2       1 RES1   0.0000
    11 C11      7.8973  21.7176   2.4107   C.2       1 RES1   0.0000
    12 C12      8.8800  22.5616   1.7563   C.2       1 RES1   0.0000
    13 C13      9.7844  22.0184   0.8951   C.2       1 RES1   0.0000
    14 C14      9.7862  20.6090   0.6168   C.2       1 RES1   0.0000
    15 C15     10.7610  20.0672  -0.2886   C.2       1 RES1   0.0000
    16 C16     10.7552  18.7252  -0.5658   C.2       1 RES1   0.0000
    17 C17      9.7981  17.8651   0.0401   C.2       1 RES1   0.0000
    18 C18      8.8575  18.3907   0.9299   C.2       1 RES1   0.0000
    19 C19      8.8495  19.7602   1.2203   C.2       1 RES1   0.0000
    20 C20      5.1059  20.4174   1.2066   C.3       1 RES1   0.0000
    21 S21      4.0408  20.0633  -0.1815   S.o2      1 RES1   0.0000
    22 O22      4.9109  19.5664  -1.2109   O.2       1 RES1   0.0000
    23 O23      2.9087  19.2788   0.1906   O.2       1 RES1   0.0000
    24 C24      3.3753  21.6925  -0.7239   C.3       1 RES1   0.0000
    25 C25      2.6131  22.2499   0.5028   C.3       1 RES1   0.0000
    26 C26      2.4185  21.5027  -1.9265   C.3       1 RES1   0.0000
    27 C27      4.5191  22.6908  -1.0360   C.3       1 RES1   0.0000
    28 C28      4.7693  15.1144   3.6292   C.2       1 RES1   0.0000
    29 O29      4.5923  14.8009   4.7955   O.2       1 RES1   0.0000
    30 N30      5.9575  14.8549   2.9702   N.am      1 RES1   0.0000
    31 C31      7.1167  14.2194   3.6203   C.3       1 RES1   0.0000
    32 C32      7.9365  15.3592   4.2870   C.3       1 RES1   0.0000
    33 O33      9.0256  14.6712   5.0045   O.3       1 RES1   0.0000
    34 C34      7.9316  13.4883   2.5264   C.3       1 RES1   0.0000
    35 C35      7.3159  12.3272   1.7734   C.2       1 RES1   0.0000
    36 C36      7.4168  10.9963   2.1938   C.2       1 RES1   0.0000
    37 C37      6.7942   9.9370   1.5215   C.2       1 RES1   0.0000
    38 C38      6.0443  10.2174   0.3734   C.2       1 RES1   0.0000
    39 C39      5.9067  11.5363  -0.0528   C.2       1 RES1   0.0000
    40 C40      6.5349  12.5803   0.6329   C.2       1 RES1   0.0000
@<TRIPOS>BOND
     1     1     2    1
     2     2     3    1
     3     2     4    1
     4     4     5    1
     5     5     6   am
     6     6     7    2
     7     6     8    1
     8     8     9    1
     9     9    10    1
    10    10    11    2
    11    11    12    1
    12    12    13    2
    13    13    14    1
    14    14    15    2
    15    15    16    1
    16    16    17    2
    17    17    18    1
    18    18    19    2
    19     8    20    1
    20    20    21    1
    21    21    22    2
    22    21    23    2
    23    21    24    1
    24    24    25    1
    25    24    26    1
    26    24    27    1
    27     4    28    1
    28    28    29    2
    29    28    30   am
    30    30    31    1
    31    31    32    1
    32    32    33    1
    33    31    34    1
    34    34    35    1
    35    35    36    2
    36    36    37    1
    37    37    38    2
    38    38    39    1
    39    39    40    2
    40    19    10    1
    41    40    35    1
    42    19    14    1
@<TRIPOS>SUBSTRUCTURE
     1 RES1        1 GROUP             0 ****  ****    0  
@<TRIPOS>MOLECULE
ligand_94
    40    42     1     0     0
SMALL
NO_CHARGES
****
Generated from the CSD

@<TRIPOS>ATOM
     1 C1       2.6274  13.6811   1.8229   C.3       1 RES1   0.0000
     2 C2       3.1517  15.0483   1.3537   C.3       1 RES1   0.0000
     3 C3       2.0972  16.1716   1.4862   C.3       1 RES1   0.0000
     4 C4       4.3820  15.4942   2.1816   C.3       1 RES1   0.0000
     5 N5       5.0061  16.7588   1.7119   N.am      1 RES1   0.0000
     6 C6       4.9288  17.9429   2.3795   C.2       1 RES1   0.0000
     7 O7       4.3214  18.0778   3.4488   O.2       1 RES1   0.0000
     8 C8       5.7359  19.1038   1.7610   C.3       1 RES1   0.0000
     9 C9       6.8533  19.4145   2.7901   C.3       1 RES1   0.0000
    10 C10      7.8403  20.4363   2.1983   C.2       1 RES1   0.0000
    11 C11      7.8275  21.7607   2.4593   C.2       1 RES1   0.0000
    12 C12      8.7911  22.6394   1.8226   C.2       1 RES1   0.0000
    13 C13      9.7114  22.1330   0.9558   C.2       1 RES1   0.0000
    14 C14      9.7487  20.7289   0.6541   C.2       1 RES1   0.0000
    15 C15     10.7394  20.2263  -0.2568   C.2       1 RES1   0.0000
    16 C16     10.7675  18.8894  -0.5562   C.2       1 RES1   0.0000
    17 C17      9.8299  17.9961   0.0319   C.2       1 RES1   0.0000
    18 C18      8.8738  18.4835   0.9270   C.2       1 RES1   0.0000
    19 C19      8.8312  19.8474   1.2401   C.2       1 RES1   0.0000
    20 C20      4.8571  20.3633   1.4729   C.3       1 RES1   0.0000
    21 S21      3.8172  20.0906   0.0478   S.o2      1 RES1   0.0000
    22 O22      4.7199  19.9643  -1.0625   O.2       1 RES1   0.0000
    23 O23      2.8581  19.0574   0.2667   O.2       1 RES1   0.0000
    24 C24      2.8520  21.6443  -0.1660   C.3       1 RES1   0.0000
    25 C25      2.0525  21.8114   1.1490   C.3       1 RES1   0.0000
    26 C26      1.8968  21.5149  -1.3779   C.3       1 RES1   0.0000
    27 C27      3.7869  22.8748  -0.2848   C.3       1 RES1   0.0000
    28 C28      5.5728  14.4627   2.1215   C.2       1 RES1   0.0000
    29 O29      6.2641  14.2380   1.1410   O.2       1 RES1   0.0000
    30 N30      5.7179  13.7554   3.3014   N.am      1 RES1   0.0000
    31 C31      6.7086  12.6796   3.4786   C.3       1 RES1   0.0000
    32 C32      6.3257  11.9292   4.7848   C.3       1 RES1   0.0000
    33 O33      7.2473  10.7797   4.8441   O.3       1 RES1   0.0000
    34 C34      8.1068  13.3352   3.5803   C.3       1 RES1   0.0000
    35 C35      9.3494  12.4691   3.5916   C.2       1 RES1   0.0000
    36 C36      9.9398  11.9842   4.7640   C.2       1 RES1   0.0000
    37 C37     11.0545  11.1362   4.7598   C.2       1 RES1   0.0000
    38 C38     11.6101  10.7621   3.5308   C.2       1 RES1   0.0000
    39 C39     11.0269  11.2100   2.3479   C.2       1 RES1   0.0000
    40 C40      9.9134  12.0551   2.3728   C.2       1 RES1   0.0000
@<TRIPOS>BOND
     1     1     2    1
     2     2     3    1
     3     2     4    1
     4     4     5    1
     5     5     6   am
     6     6     7    2
     7     6     8    1
     8     8     9    1
     9     9    10    1
    10    10    11    2
    11    11    12    1
    12    12    13    2
    13    13    14    1
    14    14    15    2
    15    15    16    1
    16    16    17    2
    17    17    18    1
    18    18    19    2
    19     8    20    1
    20    20    21    1
    21    21    22    2
    22    21    23    2
    23    21    24    1
    24    24    25    1
    25    24    26    1
    26    24    27    1
    27     4    28    1
    28    28    29    2
    29    28    30   am
    30    30    31    1
    31    31    32    1
    32    32    33    1
    33    31    34    1
    34    34    35    1
    35    35    36    2
    36    36    37    1
    37    37    38    2
    38    38    39    1
    39    39    40    2
    40    19    10    1
    41    40    35    1
    42    19    14    1
@<TRIPOS>SUBSTRUCTURE
     1 RES1        1 GROUP             0 ****  ****    0  
@<TRIPOS>MOLECULE
ligand_95
    40    42     1     0     0
SMALL
NO_CHARGES
****
Generated from the CSD

@<TRIPOS>ATOM
     1 C1       0.4212  17.3249   4.8801   C.3       1 RES1   0.0000
     2 C2       1.6216  18.2852   4.8446   C.3       1 RES1   0.0000
     3 C3       2.6432  18.0086   5.9721   C.3       1 RES1   0.0000
     4 C4       2.3944  18.1721   3.5075   C.3       1 RES1   0.0000
     5 N5       3.4877  19.1665   3.3502   N.am      1 RES1   0.0000
     6 C6       4.7313  19.0260   3.8864   C.2       1 RES1   0.0000
     7 O7       5.0798  18.0313   4.5342   O.2       1 RES1   0.0000
     8 C8       5.7263  20.1575   3.5527   C.3       1 RES1   0.0000
     9 C9       6.8136  19.4942   2.6686   C.3       1 RES1   0.0000
    10 C10      7.6471  20.5783   1.9625   C.2       1 RES1   0.0000
    11 C11      7.4831  21.9076   2.1303   C.2       1 RES1   0.0000
    12 C12      8.3091  22.8440   1.3905   C.2       1 RES1   0.0000
    13 C13      9.2519  22.3864   0.5207   C.2       1 RES1   0.0000
    14 C14      9.4484  20.9780   0.3170   C.2       1 RES1   0.0000
    15 C15     10.4589  20.5293  -0.6001   C.2       1 RES1   0.0000
    16 C16     10.6382  19.1864  -0.8060   C.2       1 RES1   0.0000
    17 C17      9.8380  18.2351  -0.1149   C.2       1 RES1   0.0000
    18 C18      8.8631  18.6717   0.7861   C.2       1 RES1   0.0000
    19 C19      8.6666  20.0406   1.0042   C.2       1 RES1   0.0000
    20 C20      6.3471  20.8108   4.8293   C.3       1 RES1   0.0000
    21 S21      5.1581  21.8728   5.6325   S.o2      1 RES1   0.0000
    22 O22      4.9187  22.9442   4.7059   O.2       1 RES1   0.0000
    23 O23      4.0387  21.1474   6.1387   O.2       1 RES1   0.0000
    24 C24      6.0245  22.5636   7.1033   C.3       1 RES1   0.0000
    25 C25      6.4194  21.3347   7.9579   C.3       1 RES1   0.0000
    26 C26      5.0738  23.4985   7.8906   C.3       1 RES1   0.0000
    27 C27      7.3416  23.2729   6.6978   C.3       1 RES1   0.0000
    28 C28      1.4861  18.4350   2.2459   C.2       1 RES1   0.0000
    29 O29      1.1288  17.5874   1.4436   O.2       1 RES1   0.0000
    30 N30      1.1840  19.7751   2.0836   N.am      1 RES1   0.0000
    31 C31      0.4657  20.3021   0.9104   C.3       1 RES1   0.0000
    32 C32      1.5345  20.9441  -0.0176   C.3       1 RES1   0.0000
    33 O33      0.7883  21.3675  -1.2169   O.3       1 RES1   0.0000
    34 C34     -0.5614  21.3452   1.4129   C.3       1 RES1   0.0000
    35 C35     -1.7004  20.9127   2.3128   C.2       1 RES1   0.0000
    36 C36     -2.9445  20.4903   1.8315   C.2       1 RES1   0.0000
    37 C37     -3.9706  20.0370   2.6703   C.2       1 RES1   0.0000
    38 C38     -3.7480  20.0125   4.0520   C.2       1 RES1   0.0000
    39 C39     -2.5099  20.4037   4.5560   C.2       1 RES1   0.0000
    40 C40     -1.4976  20.8518   3.7020   C.2       1 RES1   0.0000
@<TRIPOS>BOND
     1     1     2    1
     2     2     3    1
     3     2     4    1
     4     4     5    1
     5     5     6   am
     6     6     7    2
     7     6     8    1
     8     8     9    1
     9     9    10    1
    10    10    11    2
    11    11    12    1
    12    12    13    2
    13    13    14    1
    14    14    15    2
    15    15    16    1
    16    16    17    2
    17    17    18    1
    18    18    19    2
    19     8    20    1
    20    20    21    1
    21    21    22    2
    22    21    23    2
    23    21    24    1
    24    24    25    1
    25    24    26    1
    26    24    27    1
    27     4    28    1
    28    28    29    2
    29    28    30   am
    30    30    31    1
    31    31    32    1
    32    32    33    1
    33    31    34    1
    34    34    35    1
    35    35    36    2
    36    36    37    1
    37    37    38    2
    38    38    39    1
    39    39    40    2
    40    19    10    1
    41    40    35    1
    42    19    14    1
@<TRIPOS>SUBSTRUCTURE
     1 RES1        1 GROUP             0 ****  ****    0  
@<TRIPOS>MOLECULE
ligand_96
    40    42     1     0     0
SMALL
NO_CHARGES
****
Generated from the CSD

@<TRIPOS>ATOM
     1 C1      10.4313  21.3310   8.8045   C.3       1 RES1   0.0000
     2 C2       9.8216  20.2557   7.8901   C.3       1 RES1   0.0000
     3 C3       8.4650  19.7263   8.4103   C.3       1 RES1   0.0000
     4 C4       9.5668  20.8061   6.4653   C.3       1 RES1   0.0000
     5 N5       9.0645  19.7920   5.5017   N.am      1 RES1   0.0000
     6 C6       7.7969  19.7718   5.0053   C.2       1 RES1   0.0000
     7 O7       6.9364  20.6052   5.3143   O.2       1 RES1   0.0000
     8 C8       7.5200  18.6854   3.9447   C.3       1 RES1   0.0000
     9 C9       6.8752  19.4375   2.7521   C.3       1 RES1   0.0000
    10 C10      7.7993  20.5790   2.2920   C.2       1 RES1   0.0000
    11 C11      7.6154  21.8843   2.5829   C.2       1 RES1   0.0000
    12 C12      8.5366  22.8827   2.0722   C.2       1 RES1   0.0000
    13 C13      9.5897  22.5082   1.2940   C.2       1 RES1   0.0000
    14 C14      9.8107  21.1279   0.9634   C.2       1 RES1   0.0000
    15 C15     10.9375  20.7663   0.1489   C.2       1 RES1   0.0000
    16 C16     11.1418  19.4515  -0.1789   C.2       1 RES1   0.0000
    17 C17     10.2529  18.4432   0.2857   C.2       1 RES1   0.0000
    18 C18      9.1636  18.7939   1.0878   C.2       1 RES1   0.0000
    19 C19      8.9406  20.1334   1.4283   C.2       1 RES1   0.0000
    20 C20      6.5886  17.5483   4.4749   C.3       1 RES1   0.0000
    21 S21      6.7767  16.0719   3.4891   S.o2      1 RES1   0.0000
    22 O22      5.6112  15.2791   3.7662   O.2       1 RES1   0.0000
    23 O23      7.0934  16.3650   2.1293   O.2       1 RES1   0.0000
    24 C24      8.2456  15.2002   4.1775   C.3       1 RES1   0.0000
    25 C25      9.4373  16.1586   3.9379   C.3       1 RES1   0.0000
    26 C26      8.4624  13.8572   3.4377   C.3       1 RES1   0.0000
    27 C27      8.1196  15.0116   5.7107   C.3       1 RES1   0.0000
    28 C28     10.8745  21.3454   5.7693   C.2       1 RES1   0.0000
    29 O29     11.1316  22.5206   5.5626   O.2       1 RES1   0.0000
    30 N30     11.6978  20.3242   5.3301   N.am      1 RES1   0.0000
    31 C31     12.9047  20.5560   4.5178   C.3       1 RES1   0.0000
    32 C32     12.5291  20.2108   3.0496   C.3       1 RES1   0.0000
    33 O33     13.7295  20.5495   2.2630   O.3       1 RES1   0.0000
    34 C34     14.0237  19.6331   5.0578   C.3       1 RES1   0.0000
    35 C35     14.5486  19.8247   6.4656   C.2       1 RES1   0.0000
    36 C36     15.6224  20.6652   6.7796   C.2       1 RES1   0.0000
    37 C37     16.0619  20.8798   8.0920   C.2       1 RES1   0.0000
    38 C38     15.4059  20.2192   9.1372   C.2       1 RES1   0.0000
    39 C39     14.3181  19.3963   8.8550   C.2       1 RES1   0.0000
    40 C40     13.8934  19.1960   7.5381   C.2       1 RES1   0.0000
@<TRIPOS>BOND
     1     1     2    1
     2     2     3    1
     3     2     4    1
     4     4     5    1
     5     5     6   am
     6     6     7    2
     7     6     8    1
     8     8     9    1
     9     9    10    1
    10    10    11    2
    11    11    12    1
    12    12    13    2
    13    13    14    1
    14    14    15    2
    15    15    16    1
    16    16    17    2
    17    17    18    1
    18    18    19    2
    19     8    20    1
    20    20    21    1
    21    21    22    2
    22    21    23    2
    23    21    24    1
    24    24    25    1
    25    24    26    1
    26    24    27    1
    27     4    28    1
    28    28    29    2
    29    28    30   am
    30    30    31    1
    31    31    32    1
    32    32    33    1
    33    31    34    1
    34    34    35    1
    35    35    36    2
    36    36    37    1
    37    37    38    2
    38    38    39    1
    39    39    40    2
    40    19    10    1
    41    40    35    1
    42    19    14    1
@<TRIPOS>SUBSTRUCTURE
     1 RES1        1 GROUP             0 ****  ****    0  
@<TRIPOS>MOLECULE
ligand_97
    40    42     1     0     0
SMALL
NO_CHARGES
****
Generated from the CSD

@<TRIPOS>ATOM
     1 C1       6.5184  20.3083   9.9128   C.3       1 RES1   0.0000
     2 C2       7.1293  19.6288   8.6761   C.3       1 RES1   0.0000
     3 C3       6.7138  18.1453   8.5414   C.3       1 RES1   0.0000
     4 C4       6.6879  20.3339   7.3700   C.3       1 RES1   0.0000
     5 N5       7.3268  19.7947   6.1411   N.am      1 RES1   0.0000
     6 C6       6.6752  19.0522   5.2041   C.2       1 RES1   0.0000
     7 O7       5.4784  18.7514   5.2923   O.2       1 RES1   0.0000
     8 C8       7.5081  18.6814   3.9589   C.3       1 RES1   0.0000
     9 C9       6.8425  19.4434   2.7840   C.3       1 RES1   0.0000
    10 C10      7.7623  20.5831   2.3115   C.2       1 RES1   0.0000
    11 C11      7.6448  21.8744   2.6871   C.2       1 RES1   0.0000
    12 C12      8.5531  22.8743   2.1567   C.2       1 RES1   0.0000
    13 C13      9.5268  22.5158   1.2745   C.2       1 RES1   0.0000
    14 C14      9.6756  21.1508   0.8522   C.2       1 RES1   0.0000
    15 C15     10.7201  20.8051  -0.0715   C.2       1 RES1   0.0000
    16 C16     10.8546  19.5059  -0.4861   C.2       1 RES1   0.0000
    17 C17      9.9744  18.4978  -0.0047   C.2       1 RES1   0.0000
    18 C18      8.9659  18.8323   0.9030   C.2       1 RES1   0.0000
    19 C19      8.8146  20.1560   1.3331   C.2       1 RES1   0.0000
    20 C20      7.5451  17.1418   3.6944   C.3       1 RES1   0.0000
    21 S21      8.5968  16.3256   4.8837   S.o2      1 RES1   0.0000
    22 O22      9.9214  16.8140   4.6176   O.2       1 RES1   0.0000
    23 O23      8.0891  16.4238   6.2134   O.2       1 RES1   0.0000
    24 C24      8.5421  14.5371   4.4486   C.3       1 RES1   0.0000
    25 C25      7.0529  14.1329   4.5732   C.3       1 RES1   0.0000
    26 C26      9.4173  13.7229   5.4330   C.3       1 RES1   0.0000
    27 C27      8.9502  14.3054   2.9714   C.3       1 RES1   0.0000
    28 C28      7.0732  21.8623   7.3336   C.2       1 RES1   0.0000
    29 O29      8.2072  22.3028   7.2351   O.2       1 RES1   0.0000
    30 N30      5.9762  22.6870   7.5066   N.am      1 RES1   0.0000
    31 C31      6.0769  24.1545   7.5866   C.3       1 RES1   0.0000
    32 C32      5.9689  24.5292   9.0912   C.3       1 RES1   0.0000
    33 O33      6.1727  25.9890   9.1326   O.3       1 RES1   0.0000
    34 C34      4.9150  24.7550   6.7592   C.3       1 RES1   0.0000
    35 C35      4.8528  24.5237   5.2636   C.2       1 RES1   0.0000
    36 C36      5.4479  25.3760   4.3269   C.2       1 RES1   0.0000
    37 C37      5.4341  25.1211   2.9498   C.2       1 RES1   0.0000
    38 C38      4.7899  23.9682   2.4860   C.2       1 RES1   0.0000
    39 C39      4.2111  23.0897   3.3987   C.2       1 RES1   0.0000
    40 C40      4.2367  23.3611   4.7700   C.2       1 RES1   0.0000
@<TRIPOS>BOND
     1     1     2    1
     2     2     3    1
     3     2     4    1
     4     4     5    1
     5     5     6   am
     6     6     7    2
     7     6     8    1
     8     8     9    1
     9     9    10    1
    10    10    11    2
    11    11    12    1
    12    12    13    2
    13    13    14    1
    14    14    15    2
    15    15    16    1
    16    16    17    2
    17    17    18    1
    18    18    19    2
    19     8    20    1
    20    20    21    1
    21    21    22    2
    22    21    23    2
    23    21    24    1
    24    24    25    1
    25    24    26    1
    26    24    27    1
    27     4    28    1
    28    28    29    2
    29    28    30   am
    30    30    31    1
    31    31    32    1
    32    32    33    1
    33    31    34    1
    34    34    35    1
    35    35    36    2
    36    36    37    1
    37    37    38    2
    38    38    39    1
    39    39    40    2
    40    19    10    1
    41    40    35    1
    42    19    14    1
@<TRIPOS>SUBSTRUCTURE
     1 RES1        1 GROUP             0 ****  ****    0  
@<TRIPOS>MOLECULE
ligand_98
    40    42     1     0     0
SMALL
NO_CHARGES
****
Generated from the CSD

@<TRIPOS>ATOM
     1 C1      10.7180  22.3319   7.9436   C.3       1 RES1   0.0000
     2 C2      10.1257  21.0356   7.3665   C.3       1 RES1   0.0000
     3 C3       8.9337  20.5014   8.1942   C.3       1 RES1   0.0000
     4 C4       9.6051  21.2475   5.9236   C.3       1 RES1   0.0000
     5 N5       9.1033  20.0107   5.2696   N.am      1 RES1   0.0000
     6 C6       7.7916  19.7698   4.9953   C.2       1 RES1   0.0000
     7 O7       6.8657  20.4202   5.4955   O.2       1 RES1   0.0000
     8 C8       7.5279  18.6811   3.9337   C.3       1 RES1   0.0000
     9 C9       6.9001  19.4311   2.7306   C.3       1 RES1   0.0000
    10 C10      7.9136  20.4352   2.1533   C.2       1 RES1   0.0000
    11 C11      7.8880  21.7672   2.3706   C.2       1 RES1   0.0000
    12 C12      8.8804  22.6268   1.7519   C.2       1 RES1   0.0000
    13 C13      9.8406  22.0944   0.9461   C.2       1 RES1   0.0000
    14 C14      9.8925  20.6814   0.6920   C.2       1 RES1   0.0000
    15 C15     10.9252  20.1516  -0.1545   C.2       1 RES1   0.0000
    16 C16     10.9678  18.8058  -0.4091   C.2       1 RES1   0.0000
    17 C17     10.0039  17.9302   0.1627   C.2       1 RES1   0.0000
    18 C18      9.0065  18.4444   0.9956   C.2       1 RES1   0.0000
    19 C19      8.9488  19.8176   1.2622   C.2       1 RES1   0.0000
    20 C20      6.5882  17.5463   4.4539   C.3       1 RES1   0.0000
    21 S21      7.4589  16.4831   5.5933   S.o2      1 RES1   0.0000
    22 O22      8.4756  15.8382   4.8097   O.2       1 RES1   0.0000
    23 O23      7.8478  17.1672   6.7833   O.2       1 RES1   0.0000
    24 C24      6.2362  15.2088   6.1151   C.3       1 RES1   0.0000
    25 C25      5.0824  15.9990   6.7791   C.3       1 RES1   0.0000
    26 C26      6.8853  14.2304   7.1247   C.3       1 RES1   0.0000
    27 C27      5.6334  14.4738   4.8908   C.3       1 RES1   0.0000
    28 C28     10.7231  21.7493   4.9318   C.2       1 RES1   0.0000
    29 O29     10.8002  22.8745   4.4651   O.2       1 RES1   0.0000
    30 N30     11.5956  20.7401   4.5663   N.am      1 RES1   0.0000
    31 C31     12.6329  20.9073   3.5337   C.3       1 RES1   0.0000
    32 C32     12.6068  19.6216   2.6607   C.3       1 RES1   0.0000
    33 O33     13.5862  19.8736   1.5876   O.3       1 RES1   0.0000
    34 C34     13.9918  21.0876   4.2520   C.3       1 RES1   0.0000
    35 C35     14.2267  22.2963   5.1342   C.2       1 RES1   0.0000
    36 C36     14.7539  23.5035   4.6623   C.2       1 RES1   0.0000
    37 C37     14.9123  24.6335   5.4745   C.2       1 RES1   0.0000
    38 C38     14.5357  24.5523   6.8202   C.2       1 RES1   0.0000
    39 C39     13.9847  23.3705   7.3098   C.2       1 RES1   0.0000
    40 C40     13.8334  22.2536   6.4826   C.2       1 RES1   0.0000
@<TRIPOS>BOND
     1     1     2    1
     2     2     3    1
     3     2     4    1
     4     4     5    1
     5     5     6   am
     6     6     7    2
     7     6     8    1
     8     8     9    1
     9     9    10    1
    10    10    11    2
    11    11    12    1
    12    12    13    2
    13    13    14    1
    14    14    15    2
    15    15    16    1
    16    16    17    2
    17    17    18    1
    18    18    19    2
    19     8    20    1
    20    20    21    1
    21    21    22    2
    22    21    23    2
    23    21    24    1
    24    24    25    1
    25    24    26    1
    26    24    27    1
    27     4    28    1
    28    28    29    2
    29    28    30   am
    30    30    31    1
    31    31    32    1
    32    32    33    1
    33    31    34    1
    34    34    35    1
    35    35    36    2
    36    36    37    1
    37    37    38    2
    38    38    39    1
    39    39    40    2
    40    19    10    1
    41    40    35    1
    42    19    14    1
@<TRIPOS>SUBSTRUCTURE
     1 RES1        1 GROUP             0 ****  ****    0  
@<TRIPOS>MOLECULE
ligand_99
    40    42     1     0     0
SMALL
NO_CHARGES
****
Generated from the CSD

@<TRIPOS>ATOM
     1 C1       4.0595  20.1113  -3.8896   C.3       1 RES1   0.0000
     2 C2       3.8844  20.0225  -2.3645   C.3       1 RES1   0.0000
     3 C3       3.3995  18.6303  -1.8975   C.3       1 RES1   0.0000
     4 C4       5.2178  20.2987  -1.6272   C.3       1 RES1   0.0000
     5 N5       5.0990  20.3319  -0.1461   N.am      1 RES1   0.0000
     6 C6       5.5818  19.3641   0.6810   C.2       1 RES1   0.0000
     7 O7       6.1671  18.3544   0.2708   O.2       1 RES1   0.0000
     8 C8       5.4364  19.6520   2.1902   C.3       1 RES1   0.0000
     9 C9       6.8538  19.4406   2.7821   C.3       1 RES1   0.0000
    10 C10      7.8189  20.4994   2.2199   C.2       1 RES1   0.0000
    11 C11      7.7544  21.8208   2.4883   C.2       1 RES1   0.0000
    12 C12      8.7022  22.7362   1.8798   C.2       1 RES1   0.0000
    13 C13      9.6595  22.2672   1.0323   C.2       1 RES1   0.0000
    14 C14      9.7521  20.8673   0.7234   C.2       1 RES1   0.0000
    15 C15     10.7807  20.4049  -0.1664   C.2       1 RES1   0.0000
    16 C16     10.8618  19.0717  -0.4729   C.2       1 RES1   0.0000
    17 C17      9.9417  18.1430   0.0875   C.2       1 RES1   0.0000
    18 C18      8.9486  18.5916   0.9623   C.2       1 RES1   0.0000
    19 C19      8.8518  19.9511   1.2822   C.2       1 RES1   0.0000
    20 C20      4.3838  18.7274   2.8821   C.3       1 RES1   0.0000
    21 S21      2.7264  19.2261   2.4449   S.o2      1 RES1   0.0000
    22 O22      2.5581  20.5314   3.0208   O.2       1 RES1   0.0000
    23 O23      2.4584  19.0557   1.0540   O.2       1 RES1   0.0000
    24 C24      1.6085  18.0573   3.3258   C.3       1 RES1   0.0000
    25 C25      1.9837  16.6538   2.7913   C.3       1 RES1   0.0000
    26 C26      0.1307  18.3910   3.0055   C.3       1 RES1   0.0000
    27 C27      1.8913  18.0500   4.8497   C.3       1 RES1   0.0000
    28 C28      5.8312  21.7101  -1.9696   C.2       1 RES1   0.0000
    29 O29      6.8316  21.9014  -2.6422   O.2       1 RES1   0.0000
    30 N30      5.1512  22.7445  -1.3523   N.am      1 RES1   0.0000
    31 C31      5.6019  24.1462  -1.4003   C.3       1 RES1   0.0000
    32 C32      6.2821  24.4447  -0.0350   C.3       1 RES1   0.0000
    33 O33      6.8002  25.8192  -0.1635   O.3       1 RES1   0.0000
    34 C34      4.3570  25.0366  -1.6299   C.3       1 RES1   0.0000
    35 C35      3.5665  24.9147  -2.9162   C.2       1 RES1   0.0000
    36 C36      3.8395  25.6693  -4.0625   C.2       1 RES1   0.0000
    37 C37      3.1396  25.5067  -5.2648   C.2       1 RES1   0.0000
    38 C38      2.1156  24.5541  -5.3230   C.2       1 RES1   0.0000
    39 C39      1.8399  23.7718  -4.2041   C.2       1 RES1   0.0000
    40 C40      2.5509  23.9483  -3.0133   C.2       1 RES1   0.0000
@<TRIPOS>BOND
     1     1     2    1
     2     2     3    1
     3     2     4    1
     4     4     5    1
     5     5     6   am
     6     6     7    2
     7     6     8    1
     8     8     9    1
     9     9    10    1
    10    10    11    2
    11    11    12    1
    12    12    13    2
    13    13    14    1
    14    14    15    2
    15    15    16    1
    16    16    17    2
    17    17    18    1
    18    18    19    2
    19     8    20    1
    20    20    21    1
    21    21    22    2
    22    21    23    2
    23    21    24    1
    24    24    25    1
    25    24    26    1
    26    24    27    1
    27     4    28    1
    28    28    29    2
    29    28    30   am
    30    30    31    1
    31    31    32    1
    32    32    33    1
    33    31    34    1
    34    34    35    1
    35    35    36    2
    36    36    37    1
    37    37    38    2
    38    38    39    1
    39    39    40    2
    40    19    10    1
    41    40    35    1
    42    19    14    1
@<TRIPOS>SUBSTRUCTURE
     1 RES1        1 GROUP             0 ****  ****    0  
