@<TRIPOS>MOLECULE
native
    30    30     1     0     0
SMALL
USER_CHARGES
****
Generated from the CSD

@<TRIPOS>ATOM
     1 C1      18.2670  52.3300  16.6000   C.3       1 RES1   0.0000
     2 C2      17.3410  53.3200  17.3110   C.3       1 RES1   0.0000
     3 C3      18.1270  54.6240  17.5380   C.3       1 RES1   0.0000
     4 C4      16.8670  52.6720  18.6370   C.3       1 RES1   0.0000
     5 C5      15.9040  53.5390  19.4790   C.3       1 RES1   0.0000
     6 C6      15.3090  52.7060  20.6210   C.2       1 RES1   0.0000
     7 O7      14.5860  51.7260  20.3690   O.2       1 RES1   0.0000
     8 N8      15.6190  53.0870  21.8790   N.am      1 RES1   0.0000
     9 C9      15.1480  52.3870  23.0880   C.3       1 RES1   0.0000
    10 C10     13.6230  52.4290  23.1640   C.2       1 RES1   0.0000
    11 O11     12.9780  53.4090  22.7770   O.2       1 RES1   0.0000
    12 N12     13.0570  51.3430  23.6730   N.am      1 RES1   0.0000
    13 C13     11.6400  51.1450  23.8490   C.3       1 RES1   0.0000
    14 C14     11.2840  49.8310  23.1240   C.3       1 RES1   0.0000
    15 C15     11.1950  50.0540  21.6050   C.3       1 RES1   0.0000
    16 C16     11.4190  48.7530  20.8380   C.3       1 RES1   0.0000
    17 N17     11.3110  49.0400  19.4040   N.2       1 RES1   0.0000
    18 C18     11.0380  48.1540  18.4290   C.2       1 RES1   0.0000
    19 N19     10.9710  48.5790  17.1610   N.pl3     1 RES1   0.0000
    20 N20     10.8330  46.8600  18.7200   N.pl3     1 RES1   1.0000
    21 C21     11.3020  51.0770  25.3530   C.3       1 RES1   0.0000
    22 O22      9.9060  50.8660  25.4720   O.3       1 RES1   0.0000
    23 C23     11.6440  52.3670  26.1200   C.2       1 RES1   0.0000
    24 N24     12.8480  52.5450  26.5420   N.2       1 RES1   0.0000
    25 C25     12.9470  53.7600  27.2050   C.2       1 RES1   0.0000
    26 C26     11.7440  54.4510  27.2370   C.2       1 RES1   0.0000
    27 S27     10.4880  53.6040  26.4470   S.3       1 RES1   0.0000
    28 C28     15.8060  52.9700  24.3630   C.3       1 RES1   0.0000
    29 C29     15.6240  54.4930  24.5370   C.3       1 RES1   0.0000
    30 C30     17.3010  52.6320  24.3700   C.3       1 RES1   0.0000
@<TRIPOS>BOND
     1     1     2    1
     2     2     3    1
     3     2     4    1
     4     4     5    1
     5     5     6    1
     6     6     7    2
     7     6     8   am
     8     9     8    1
     9     9    10    1
    10    10    11    2
    11    10    12   am
    12    12    13    1
    13    13    14    1
    14    14    15    1
    15    15    16    1
    16    16    17    1
    17    17    18    1
    18    18    19    1
    19    18    20    2
    20    13    21    1
    21    21    22    1
    22    21    23    1
    23    23    24    2
    24    24    25    1
    25    25    26    2
    26    26    27    1
    27     9    28    1
    28    28    29    1
    29    28    30    1
    30    27    23    1
@<TRIPOS>SUBSTRUCTURE
     1 RES1        1 GROUP             0 ****  ****    0  
@<TRIPOS>MOLECULE
ligand_0
    30    30     1     0     0
SMALL
USER_CHARGES
****
Generated from the CSD

@<TRIPOS>ATOM
     1 C1      18.4879  52.3354  16.8136   C.3       1 RES1   0.0000
     2 C2      17.5461  53.3281  17.4997   C.3       1 RES1   0.0000
     3 C3      18.3386  54.6184  17.7767   C.3       1 RES1   0.0000
     4 C4      17.0097  52.6688  18.7961   C.3       1 RES1   0.0000
     5 C5      16.0651  51.4662  18.5737   C.3       1 RES1   0.0000
     6 C6      15.6039  50.9033  19.9237   C.2       1 RES1   0.0000
     7 O7      15.9976  51.4205  20.9840   O.2       1 RES1   0.0000
     8 N8      14.7610  49.8488  19.8885   N.am      1 RES1   0.0000
     9 C9      14.2147  49.1944  21.0913   C.3       1 RES1   0.0000
    10 C10     14.4889  47.6924  21.0478   C.2       1 RES1   0.0000
    11 O11     14.9213  47.0802  22.0299   O.2       1 RES1   0.0000
    12 N12     14.2293  47.1086  19.8857   N.am      1 RES1   0.0000
    13 C13     14.4315  45.7123  19.5897   C.3       1 RES1   0.0000
    14 C14     13.1074  45.1903  18.9955   C.3       1 RES1   0.0000
    15 C15     11.9340  45.4731  19.9484   C.3       1 RES1   0.0000
    16 C16     10.6152  44.9617  19.3736   C.3       1 RES1   0.0000
    17 N17      9.5474  45.2650  20.3318   N.2       1 RES1   0.0000
    18 C18      9.2123  44.5379  21.4131   C.2       1 RES1   0.0000
    19 N19      8.2074  44.9544  22.1938   N.pl3     1 RES1   0.0000
    20 N20      9.8760  43.4098  21.7098   N.pl3     1 RES1   1.0000
    21 C21     15.6046  45.5497  18.6005   C.3       1 RES1   0.0000
    22 O22     15.2070  46.1149  17.3636   O.3       1 RES1   0.0000
    23 C23     15.9904  44.0828  18.3386   C.2       1 RES1   0.0000
    24 N24     16.4992  43.3877  19.2963   N.2       1 RES1   0.0000
    25 C25     16.7762  42.1007  18.8575   C.2       1 RES1   0.0000
    26 C26     16.4370  41.9053  17.5262   C.2       1 RES1   0.0000
    27 S27     15.7732  43.3089  16.8130   S.3       1 RES1   0.0000
    28 C28     12.7059  49.5014  21.2577   C.3       1 RES1   0.0000
    29 C29     12.3723  51.0001  21.4176   C.3       1 RES1   0.0000
    30 C30     12.1532  48.7260  22.4588   C.3       1 RES1   0.0000
@<TRIPOS>BOND
     1     1     2    1
     2     2     3    1
     3     2     4    1
     4     4     5    1
     5     5     6    1
     6     6     7    2
     7     6     8   am
     8     9     8    1
     9     9    10    1
    10    10    11    2
    11    10    12   am
    12    12    13    1
    13    13    14    1
    14    14    15    1
    15    15    16    1
    16    16    17    1
    17    17    18    1
    18    18    19    1
    19    18    20    2
    20    13    21    1
    21    21    22    1
    22    21    23    1
    23    23    24    2
    24    24    25    1
    25    25    26    2
    26    26    27    1
    27     9    28    1
    28    28    29    1
    29    28    30    1
    30    27    23    1
@<TRIPOS>SUBSTRUCTURE
     1 RES1        1 GROUP             0 ****  ****    0  
@<TRIPOS>MOLECULE
ligand_1
    30    30     1     0     0
SMALL
USER_CHARGES
****
Generated from the CSD

@<TRIPOS>ATOM
     1 C1      18.2700  52.3637  16.6265   C.3       1 RES1   0.0000
     2 C2      17.3390  53.3475  17.3396   C.3       1 RES1   0.0000
     3 C3      18.1204  54.6528  17.5750   C.3       1 RES1   0.0000
     4 C4      16.8633  52.6917  18.6611   C.3       1 RES1   0.0000
     5 C5      15.9306  51.4722  18.4854   C.3       1 RES1   0.0000
     6 C6      15.5304  50.9145  19.8568   C.2       1 RES1   0.0000
     7 O7      15.9557  51.4476  20.8968   O.2       1 RES1   0.0000
     8 N8      14.7040  49.8464  19.8629   N.am      1 RES1   0.0000
     9 C9      14.2147  49.1944  21.0913   C.3       1 RES1   0.0000
    10 C10     15.3685  48.5138  21.8253   C.2       1 RES1   0.0000
    11 O11     15.4997  48.5954  23.0510   O.2       1 RES1   0.0000
    12 N12     16.2059  47.8387  21.0494   N.am      1 RES1   0.0000
    13 C13     17.3687  47.1186  21.5047   C.3       1 RES1   0.0000
    14 C14     17.2713  45.6995  20.9083   C.3       1 RES1   0.0000
    15 C15     15.9319  45.0426  21.2819   C.3       1 RES1   0.0000
    16 C16     15.8205  43.6362  20.6982   C.3       1 RES1   0.0000
    17 N17     14.5246  43.0753  21.0937   N.2       1 RES1   0.0000
    18 C18     14.2352  42.4763  22.2631   C.2       1 RES1   0.0000
    19 N19     12.9951  42.0163  22.4715   N.pl3     1 RES1   0.0000
    20 N20     15.1747  42.3414  23.2120   N.pl3     1 RES1   1.0000
    21 C21     18.6499  47.8448  21.0441   C.3       1 RES1   0.0000
    22 O22     18.7132  47.7531  19.6317   O.3       1 RES1   0.0000
    23 C23     19.9432  47.2296  21.6082   C.2       1 RES1   0.0000
    24 N24     20.1718  47.3020  22.8739   N.2       1 RES1   0.0000
    25 C25     21.3815  46.6931  23.1763   C.2       1 RES1   0.0000
    26 C26     22.0141  46.1750  22.0551   C.2       1 RES1   0.0000
    27 S27     21.1166  46.4361  20.6250   S.3       1 RES1   0.0000
    28 C28     13.0653  48.2047  20.7786   C.3       1 RES1   0.0000
    29 C29     11.8214  48.8527  20.1339   C.3       1 RES1   0.0000
    30 C30     12.6519  47.4754  22.0618   C.3       1 RES1   0.0000
@<TRIPOS>BOND
     1     1     2    1
     2     2     3    1
     3     2     4    1
     4     4     5    1
     5     5     6    1
     6     6     7    2
     7     6     8   am
     8     9     8    1
     9     9    10    1
    10    10    11    2
    11    10    12   am
    12    12    13    1
    13    13    14    1
    14    14    15    1
    15    15    16    1
    16    16    17    1
    17    17    18    1
    18    18    19    1
    19    18    20    2
    20    13    21    1
    21    21    22    1
    22    21    23    1
    23    23    24    2
    24    24    25    1
    25    25    26    2
    26    26    27    1
    27     9    28    1
    28    28    29    1
    29    28    30    1
    30    27    23    1
@<TRIPOS>SUBSTRUCTURE
     1 RES1        1 GROUP             0 ****  ****    0  
@<TRIPOS>MOLECULE
ligand_2
    30    30     1     0     0
SMALL
USER_CHARGES
****
Generated from the CSD

@<TRIPOS>ATOM
     1 C1      18.2670  52.3300  16.6000   C.3       1 RES1   0.0000
     2 C2      17.3410  53.3200  17.3110   C.3       1 RES1   0.0000
     3 C3      18.1270  54.6240  17.5380   C.3       1 RES1   0.0000
     4 C4      16.8670  52.6720  18.6370   C.3       1 RES1   0.0000
     5 C5      15.9301  51.4545  18.4697   C.3       1 RES1   0.0000
     6 C6      15.5321  50.9045  19.8449   C.2       1 RES1   0.0000
     7 O7      15.9620  51.4413  20.8811   O.2       1 RES1   0.0000
     8 N8      14.7025  49.8390  19.8584   N.am      1 RES1   0.0000
     9 C9      14.2147  49.1944  21.0913   C.3       1 RES1   0.0000
    10 C10     14.4889  47.6924  21.0478   C.2       1 RES1   0.0000
    11 O11     14.1088  46.9875  20.1072   O.2       1 RES1   0.0000
    12 N12     15.1581  47.2144  22.0883   N.am      1 RES1   0.0000
    13 C13     15.5347  45.8356  22.2763   C.3       1 RES1   0.0000
    14 C14     17.0451  45.8287  22.5887   C.3       1 RES1   0.0000
    15 C15     17.8325  46.5567  21.4864   C.3       1 RES1   0.0000
    16 C16     19.3305  46.5581  21.7818   C.3       1 RES1   0.0000
    17 N17     20.0131  47.2658  20.6939   N.2       1 RES1   0.0000
    18 C18     20.3761  46.7479  19.5063   C.2       1 RES1   0.0000
    19 N19     20.9942  47.5319  18.6140   N.pl3     1 RES1   0.0000
    20 N20     20.1218  45.4627  19.2154   N.pl3     1 RES1   1.0000
    21 C21     14.7110  45.2183  23.4258   C.3       1 RES1   0.0000
    22 O22     15.1049  45.8550  24.6287   O.3       1 RES1   0.0000
    23 C23     14.9391  43.7065  23.6039   C.2       1 RES1   0.0000
    24 N24     14.5438  42.8997  22.6808   N.2       1 RES1   0.0000
    25 C25     14.8397  41.5903  23.0320   C.2       1 RES1   0.0000
    26 C26     15.4733  41.4972  24.2631   C.2       1 RES1   0.0000
    27 S27     15.7074  43.0258  24.9895   S.3       1 RES1   0.0000
    28 C28     12.7149  49.5011  21.3261   C.3       1 RES1   0.0000
    29 C29     12.3875  51.0003  21.4932   C.3       1 RES1   0.0000
    30 C30     12.2197  48.7319  22.5560   C.3       1 RES1   0.0000
@<TRIPOS>BOND
     1     1     2    1
     2     2     3    1
     3     2     4    1
     4     4     5    1
     5     5     6    1
     6     6     7    2
     7     6     8   am
     8     9     8    1
     9     9    10    1
    10    10    11    2
    11    10    12   am
    12    12    13    1
    13    13    14    1
    14    14    15    1
    15    15    16    1
    16    16    17    1
    17    17    18    1
    18    18    19    1
    19    18    20    2
    20    13    21    1
    21    21    22    1
    22    21    23    1
    23    23    24    2
    24    24    25    1
    25    25    26    2
    26    26    27    1
    27     9    28    1
    28    28    29    1
    29    28    30    1
    30    27    23    1
@<TRIPOS>SUBSTRUCTURE
     1 RES1        1 GROUP             0 ****  ****    0  
@<TRIPOS>MOLECULE
ligand_3
    30    30     1     0     0
SMALL
USER_CHARGES
****
Generated from the CSD

@<TRIPOS>ATOM
     1 C1      18.2642  52.2449  16.5414   C.3       1 RES1   0.0000
     2 C2      17.3345  53.2481  17.2287   C.3       1 RES1   0.0000
     3 C3      18.1172  54.5584  17.4289   C.3       1 RES1   0.0000
     4 C4      16.8590  52.6281  18.5675   C.3       1 RES1   0.0000
     5 C5      15.9251  51.4052  18.4247   C.3       1 RES1   0.0000
     6 C6      15.5253  50.8844  19.8107   C.2       1 RES1   0.0000
     7 O7      15.9518  51.4445  20.8359   O.2       1 RES1   0.0000
     8 N8      14.6980  49.8176  19.8457   N.am      1 RES1   0.0000
     9 C9      14.2147  49.1944  21.0913   C.3       1 RES1   0.0000
    10 C10     15.3685  48.5138  21.8253   C.2       1 RES1   0.0000
    11 O11     16.1034  47.6936  21.2655   O.2       1 RES1   0.0000
    12 N12     15.5135  48.8701  23.0945   N.am      1 RES1   0.0000
    13 C13     16.5129  48.3553  23.9968   C.3       1 RES1   0.0000
    14 C14     17.1980  49.5776  24.6413   C.3       1 RES1   0.0000
    15 C15     17.7496  50.5246  23.5624   C.3       1 RES1   0.0000
    16 C16     18.4358  51.7378  24.1856   C.3       1 RES1   0.0000
    17 N17     18.9341  52.5913  23.1022   N.2       1 RES1   0.0000
    18 C18     20.0907  52.4398  22.4319   C.2       1 RES1   0.0000
    19 N19     20.4016  53.3091  21.4620   N.pl3     1 RES1   0.0000
    20 N20     20.9242  51.4303  22.7275   N.pl3     1 RES1   1.0000
    21 C21     15.8488  47.4492  25.0545   C.3       1 RES1   0.0000
    22 O22     15.0301  48.2682  25.8709   O.3       1 RES1   0.0000
    23 C23     16.8561  46.7357  25.9741   C.2       1 RES1   0.0000
    24 N24     17.6372  45.8417  25.4742   N.2       1 RES1   0.0000
    25 C25     18.4617  45.3217  26.4619   C.2       1 RES1   0.0000
    26 C26     18.2318  45.8928  27.7055   C.2       1 RES1   0.0000
    27 S27     16.9988  47.0746  27.6588   S.3       1 RES1   0.0000
    28 C28     13.0504  48.2129  20.8096   C.3       1 RES1   0.0000
    29 C29     11.8077  48.8633  20.1650   C.3       1 RES1   0.0000
    30 C30     12.6416  47.5138  22.1110   C.3       1 RES1   0.0000
@<TRIPOS>BOND
     1     1     2    1
     2     2     3    1
     3     2     4    1
     4     4     5    1
     5     5     6    1
     6     6     7    2
     7     6     8   am
     8     9     8    1
     9     9    10    1
    10    10    11    2
    11    10    12   am
    12    12    13    1
    13    13    14    1
    14    14    15    1
    15    15    16    1
    16    16    17    1
    17    17    18    1
    18    18    19    1
    19    18    20    2
    20    13    21    1
    21    21    22    1
    22    21    23    1
    23    23    24    2
    24    24    25    1
    25    25    26    2
    26    26    27    1
    27     9    28    1
    28    28    29    1
    29    28    30    1
    30    27    23    1
@<TRIPOS>SUBSTRUCTURE
     1 RES1        1 GROUP             0 ****  ****    0  
@<TRIPOS>MOLECULE
ligand_4
    30    30     1     0     0
SMALL
USER_CHARGES
****
Generated from the CSD

@<TRIPOS>ATOM
     1 C1      18.4845  52.3367  16.8111   C.3       1 RES1   0.0000
     2 C2      17.5421  53.3289  17.4970   C.3       1 RES1   0.0000
     3 C3      18.3336  54.6200  17.7732   C.3       1 RES1   0.0000
     4 C4      17.0065  52.6699  18.7938   C.3       1 RES1   0.0000
     5 C5      16.0628  51.4665  18.5722   C.3       1 RES1   0.0000
     6 C6      15.6023  50.9039  19.9226   C.2       1 RES1   0.0000
     7 O7      15.9959  51.4218  20.9825   O.2       1 RES1   0.0000
     8 N8      14.7602  49.8487  19.8880   N.am      1 RES1   0.0000
     9 C9      14.2147  49.1944  21.0913   C.3       1 RES1   0.0000
    10 C10     14.4889  47.6924  21.0478   C.2       1 RES1   0.0000
    11 O11     14.9213  47.0802  22.0299   O.2       1 RES1   0.0000
    12 N12     14.2293  47.1086  19.8857   N.am      1 RES1   0.0000
    13 C13     14.4311  45.7122  19.5898   C.3       1 RES1   0.0000
    14 C14     13.1069  45.1906  18.9955   C.3       1 RES1   0.0000
    15 C15     11.9334  45.4739  19.9482   C.3       1 RES1   0.0000
    16 C16     10.6146  44.9629  19.3732   C.3       1 RES1   0.0000
    17 N17      9.5467  45.2666  20.3311   N.2       1 RES1   0.0000
    18 C18      9.2112  44.5397  21.4125   C.2       1 RES1   0.0000
    19 N19      8.2062  44.9567  22.1929   N.pl3     1 RES1   0.0000
    20 N20      9.8744  43.4114  21.7093   N.pl3     1 RES1   1.0000
    21 C21     15.6043  45.5492  18.6009   C.3       1 RES1   0.0000
    22 O22     15.8895  44.1654  18.4949   O.3       1 RES1   0.0000
    23 C23     16.8944  46.2561  19.0539   C.2       1 RES1   0.0000
    24 N24     16.9221  47.5433  19.0965   N.2       1 RES1   0.0000
    25 C25     18.1672  47.9803  19.5259   C.2       1 RES1   0.0000
    26 C26     19.0383  46.9335  19.7924   C.2       1 RES1   0.0000
    27 S27     18.3224  45.4071  19.5158   S.3       1 RES1   0.0000
    28 C28     12.7060  49.5014  21.2586   C.3       1 RES1   0.0000
    29 C29     12.3723  51.0002  21.4167   C.3       1 RES1   0.0000
    30 C30     12.1546  48.7276  22.4614   C.3       1 RES1   0.0000
@<TRIPOS>BOND
     1     1     2    1
     2     2     3    1
     3     2     4    1
     4     4     5    1
     5     5     6    1
     6     6     7    2
     7     6     8   am
     8     9     8    1
     9     9    10    1
    10    10    11    2
    11    10    12   am
    12    12    13    1
    13    13    14    1
    14    14    15    1
    15    15    16    1
    16    16    17    1
    17    17    18    1
    18    18    19    1
    19    18    20    2
    20    13    21    1
    21    21    22    1
    22    21    23    1
    23    23    24    2
    24    24    25    1
    25    25    26    2
    26    26    27    1
    27     9    28    1
    28    28    29    1
    29    28    30    1
    30    27    23    1
@<TRIPOS>SUBSTRUCTURE
     1 RES1        1 GROUP             0 ****  ****    0  
@<TRIPOS>MOLECULE
ligand_5
    30    30     1     0     0
SMALL
USER_CHARGES
****
Generated from the CSD

@<TRIPOS>ATOM
     1 C1      18.3085  52.4415  16.7084   C.3       1 RES1   0.0000
     2 C2      17.3834  53.4167  17.4408   C.3       1 RES1   0.0000
     3 C3      18.1744  54.7103  17.7068   C.3       1 RES1   0.0000
     4 C4      16.8992  52.7357  18.7465   C.3       1 RES1   0.0000
     5 C5      15.9575  51.5277  18.5417   C.3       1 RES1   0.0000
     6 C6      15.5496  50.9431  19.8996   C.2       1 RES1   0.0000
     7 O7      15.0273  51.6710  20.7621   O.2       1 RES1   0.0000
     8 N8      15.7776  49.6255  20.0892   N.am      1 RES1   0.0000
     9 C9      15.4371  48.9039  21.3289   C.3       1 RES1   0.0000
    10 C10     16.6630  48.1691  21.8676   C.2       1 RES1   0.0000
    11 O11     16.9629  48.1931  23.0658   O.2       1 RES1   0.0000
    12 N12     17.3690  47.5135  20.9562   N.am      1 RES1   0.0000
    13 C13     18.5857  46.7831  21.2098   C.3       1 RES1   0.0000
    14 C14     18.2332  45.2856  21.1002   C.3       1 RES1   0.0000
    15 C15     17.0655  44.9311  22.0361   C.3       1 RES1   0.0000
    16 C16     16.7115  43.4486  21.9465   C.3       1 RES1   0.0000
    17 N17     15.5959  43.1860  22.8614   N.2       1 RES1   0.0000
    18 C18     15.6831  42.9557  24.1840   C.2       1 RES1   0.0000
    19 N19     14.5628  42.7334  24.8830   N.pl3     1 RES1   0.0000
    20 N20     16.8759  42.9498  24.7990   N.pl3     1 RES1   1.0000
    21 C21     19.6664  47.1917  20.1869   C.3       1 RES1   0.0000
    22 O22     19.2465  46.7383  18.9119   O.3       1 RES1   0.0000
    23 C23     21.0469  46.5721  20.4690   C.2       1 RES1   0.0000
    24 N24     21.6912  46.9309  21.5252   N.2       1 RES1   0.0000
    25 C25     22.9052  46.2624  21.5943   C.2       1 RES1   0.0000
    26 C26     23.1010  45.3981  20.5263   C.2       1 RES1   0.0000
    27 S27     21.7862  45.4066  19.4353   S.3       1 RES1   0.0000
    28 C28     14.2408  47.9458  21.1069   C.3       1 RES1   0.0000
    29 C29     12.9494  48.6376  20.6205   C.3       1 RES1   0.0000
    30 C30     13.9504  47.1781  22.4013   C.3       1 RES1   0.0000
@<TRIPOS>BOND
     1     1     2    1
     2     2     3    1
     3     2     4    1
     4     4     5    1
     5     5     6    1
     6     6     7    2
     7     6     8   am
     8     9     8    1
     9     9    10    1
    10    10    11    2
    11    10    12   am
    12    12    13    1
    13    13    14    1
    14    14    15    1
    15    15    16    1
    16    16    17    1
    17    17    18    1
    18    18    19    1
    19    18    20    2
    20    13    21    1
    21    21    22    1
    22    21    23    1
    23    23    24    2
    24    24    25    1
    25    25    26    2
    26    26    27    1
    27     9    28    1
    28    28    29    1
    29    28    30    1
    30    27    23    1
@<TRIPOS>SUBSTRUCTURE
     1 RES1        1 GROUP             0 ****  ****    0  
@<TRIPOS>MOLECULE
ligand_6
    30    30     1     0     0
SMALL
USER_CHARGES
****
Generated from the CSD

@<TRIPOS>ATOM
     1 C1      18.4879  52.3354  16.8136   C.3       1 RES1   0.0000
     2 C2      17.5461  53.3281  17.4997   C.3       1 RES1   0.0000
     3 C3      18.3386  54.6184  17.7767   C.3       1 RES1   0.0000
     4 C4      17.0097  52.6688  18.7961   C.3       1 RES1   0.0000
     5 C5      16.0651  51.4662  18.5737   C.3       1 RES1   0.0000
     6 C6      15.6039  50.9033  19.9237   C.2       1 RES1   0.0000
     7 O7      15.9976  51.4205  20.9840   O.2       1 RES1   0.0000
     8 N8      14.7610  49.8488  19.8885   N.am      1 RES1   0.0000
     9 C9      14.2147  49.1944  21.0913   C.3       1 RES1   0.0000
    10 C10     14.4889  47.6924  21.0478   C.2       1 RES1   0.0000
    11 O11     14.9213  47.0802  22.0299   O.2       1 RES1   0.0000
    12 N12     14.2293  47.1086  19.8857   N.am      1 RES1   0.0000
    13 C13     14.4315  45.7123  19.5897   C.3       1 RES1   0.0000
    14 C14     13.1074  45.1903  18.9955   C.3       1 RES1   0.0000
    15 C15     11.9340  45.4731  19.9484   C.3       1 RES1   0.0000
    16 C16     10.6152  44.9617  19.3736   C.3       1 RES1   0.0000
    17 N17     10.3139  45.7288  18.1607   N.2       1 RES1   0.0000
    18 C18      9.7245  46.9369  18.1038   C.2       1 RES1   0.0000
    19 N19      9.5203  47.5078  16.9099   N.pl3     1 RES1   0.0000
    20 N20      9.3462  47.5657  19.2274   N.pl3     1 RES1   1.0000
    21 C21     15.6046  45.5497  18.6005   C.3       1 RES1   0.0000
    22 O22     15.2070  46.1149  17.3636   O.3       1 RES1   0.0000
    23 C23     15.9904  44.0828  18.3386   C.2       1 RES1   0.0000
    24 N24     16.4992  43.3877  19.2963   N.2       1 RES1   0.0000
    25 C25     16.7762  42.1007  18.8575   C.2       1 RES1   0.0000
    26 C26     16.4370  41.9053  17.5262   C.2       1 RES1   0.0000
    27 S27     15.7732  43.3089  16.8130   S.3       1 RES1   0.0000
    28 C28     12.7059  49.5014  21.2577   C.3       1 RES1   0.0000
    29 C29     12.3723  51.0001  21.4176   C.3       1 RES1   0.0000
    30 C30     12.1532  48.7260  22.4588   C.3       1 RES1   0.0000
@<TRIPOS>BOND
     1     1     2    1
     2     2     3    1
     3     2     4    1
     4     4     5    1
     5     5     6    1
     6     6     7    2
     7     6     8   am
     8     9     8    1
     9     9    10    1
    10    10    11    2
    11    10    12   am
    12    12    13    1
    13    13    14    1
    14    14    15    1
    15    15    16    1
    16    16    17    1
    17    17    18    1
    18    18    19    1
    19    18    20    2
    20    13    21    1
    21    21    22    1
    22    21    23    1
    23    23    24    2
    24    24    25    1
    25    25    26    2
    26    26    27    1
    27     9    28    1
    28    28    29    1
    29    28    30    1
    30    27    23    1
@<TRIPOS>SUBSTRUCTURE
     1 RES1        1 GROUP             0 ****  ****    0  
@<TRIPOS>MOLECULE
ligand_7
    30    30     1     0     0
SMALL
USER_CHARGES
****
Generated from the CSD

@<TRIPOS>ATOM
     1 C1      18.4937  52.3360  16.8198   C.3       1 RES1   0.0000
     2 C2      17.5512  53.3286  17.5050   C.3       1 RES1   0.0000
     3 C3      18.3435  54.6187  17.7834   C.3       1 RES1   0.0000
     4 C4      17.0131  52.6690  18.8005   C.3       1 RES1   0.0000
     5 C5      16.0686  51.4667  18.5766   C.3       1 RES1   0.0000
     6 C6      15.6057  50.9034  19.9259   C.2       1 RES1   0.0000
     7 O7      15.9981  51.4203  20.9868   O.2       1 RES1   0.0000
     8 N8      14.7626  49.8491  19.8893   N.am      1 RES1   0.0000
     9 C9      14.2147  49.1944  21.0913   C.3       1 RES1   0.0000
    10 C10     14.4889  47.6924  21.0478   C.2       1 RES1   0.0000
    11 O11     14.9213  47.0802  22.0299   O.2       1 RES1   0.0000
    12 N12     14.2293  47.1086  19.8857   N.am      1 RES1   0.0000
    13 C13     14.4321  45.7125  19.5895   C.3       1 RES1   0.0000
    14 C14     13.1081  45.1898  18.9956   C.3       1 RES1   0.0000
    15 C15     11.9352  45.4695  19.9501   C.3       1 RES1   0.0000
    16 C16     10.6119  44.9863  19.3614   C.3       1 RES1   0.0000
    17 N17     10.6565  43.5235  19.2689   N.2       1 RES1   0.0000
    18 C18     11.1327  42.8010  18.2386   C.2       1 RES1   0.0000
    19 N19     11.1401  41.4649  18.3268   N.pl3     1 RES1   0.0000
    20 N20     11.5968  43.4083  17.1355   N.pl3     1 RES1   1.0000
    21 C21     15.6050  45.5506  18.6000   C.3       1 RES1   0.0000
    22 O22     15.2068  46.1156  17.3632   O.3       1 RES1   0.0000
    23 C23     15.9915  44.0838  18.3378   C.2       1 RES1   0.0000
    24 N24     16.5009  43.3889  19.2954   N.2       1 RES1   0.0000
    25 C25     16.7784  42.1021  18.8564   C.2       1 RES1   0.0000
    26 C26     16.4390  41.9067  17.5251   C.2       1 RES1   0.0000
    27 S27     15.7744  43.3100  16.8122   S.3       1 RES1   0.0000
    28 C28     12.7057  49.5014  21.2558   C.3       1 RES1   0.0000
    29 C29     12.3718  51.0002  21.4144   C.3       1 RES1   0.0000
    30 C30     12.1518  48.7267  22.4568   C.3       1 RES1   0.0000
@<TRIPOS>BOND
     1     1     2    1
     2     2     3    1
     3     2     4    1
     4     4     5    1
     5     5     6    1
     6     6     7    2
     7     6     8   am
     8     9     8    1
     9     9    10    1
    10    10    11    2
    11    10    12   am
    12    12    13    1
    13    13    14    1
    14    14    15    1
    15    15    16    1
    16    16    17    1
    17    17    18    1
    18    18    19    1
    19    18    20    2
    20    13    21    1
    21    21    22    1
    22    21    23    1
    23    23    24    2
    24    24    25    1
    25    25    26    2
    26    26    27    1
    27     9    28    1
    28    28    29    1
    29    28    30    1
    30    27    23    1
@<TRIPOS>SUBSTRUCTURE
     1 RES1        1 GROUP             0 ****  ****    0  
@<TRIPOS>MOLECULE
ligand_8
    30    30     1     0     0
SMALL
USER_CHARGES
****
Generated from the CSD

@<TRIPOS>ATOM
     1 C1      18.2339  52.3190  16.5636   C.3       1 RES1   0.0000
     2 C2      17.3138  53.3108  17.2798   C.3       1 RES1   0.0000
     3 C3      18.1025  54.6145  17.4991   C.3       1 RES1   0.0000
     4 C4      16.8490  52.6652  18.6102   C.3       1 RES1   0.0000
     5 C5      15.9099  51.4483  18.4515   C.3       1 RES1   0.0000
     6 C6      15.5215  50.9007  19.8304   C.2       1 RES1   0.0000
     7 O7      16.4032  50.5775  20.6457   O.2       1 RES1   0.0000
     8 N8      14.2013  50.8043  20.0982   N.am      1 RES1   0.0000
     9 C9      13.6572  50.3094  21.3759   C.3       1 RES1   0.0000
    10 C10     13.9679  48.8233  21.5438   C.2       1 RES1   0.0000
    11 O11     14.3486  48.3549  22.6217   O.2       1 RES1   0.0000
    12 N12     13.7986  48.0885  20.4528   N.am      1 RES1   0.0000
    13 C13     14.0401  46.6707  20.3559   C.3       1 RES1   0.0000
    14 C14     12.6577  45.9917  20.2717   C.3       1 RES1   0.0000
    15 C15     11.7725  46.4098  21.4577   C.3       1 RES1   0.0000
    16 C16     10.4023  45.7396  21.3921   C.3       1 RES1   0.0000
    17 N17      9.6174  46.1831  22.5487   N.2       1 RES1   0.0000
    18 C18      9.6673  45.6728  23.7926   C.2       1 RES1   0.0000
    19 N19      8.8824  46.1944  24.7439   N.pl3     1 RES1   0.0000
    20 N20     10.4934  44.6551  24.0806   N.pl3     1 RES1   1.0000
    21 C21     14.9015  46.3684  19.1119   C.3       1 RES1   0.0000
    22 O22     14.1237  46.6673  17.9660   O.3       1 RES1   0.0000
    23 C23     15.3363  44.8955  19.0071   C.2       1 RES1   0.0000
    24 N24     16.1550  44.4198  19.8805   N.2       1 RES1   0.0000
    25 C25     16.4195  43.0848  19.6098   C.2       1 RES1   0.0000
    26 C26     15.7434  42.6223  18.4896   C.2       1 RES1   0.0000
    27 S27     14.7776  43.8334  17.7689   S.3       1 RES1   0.0000
    28 C28     12.1396  50.5981  21.4859   C.3       1 RES1   0.0000
    29 C29     11.7655  52.0934  21.4019   C.3       1 RES1   0.0000
    30 C30     11.5985  50.0108  22.7942   C.3       1 RES1   0.0000
@<TRIPOS>BOND
     1     1     2    1
     2     2     3    1
     3     2     4    1
     4     4     5    1
     5     5     6    1
     6     6     7    2
     7     6     8   am
     8     9     8    1
     9     9    10    1
    10    10    11    2
    11    10    12   am
    12    12    13    1
    13    13    14    1
    14    14    15    1
    15    15    16    1
    16    16    17    1
    17    17    18    1
    18    18    19    1
    19    18    20    2
    20    13    21    1
    21    21    22    1
    22    21    23    1
    23    23    24    2
    24    24    25    1
    25    25    26    2
    26    26    27    1
    27     9    28    1
    28    28    29    1
    29    28    30    1
    30    27    23    1
@<TRIPOS>SUBSTRUCTURE
     1 RES1        1 GROUP             0 ****  ****    0  
@<TRIPOS>MOLECULE
ligand_9
    30    30     1     0     0
SMALL
USER_CHARGES
****
Generated from the CSD

@<TRIPOS>ATOM
     1 C1      18.2700  52.3637  16.6265   C.3       1 RES1   0.0000
     2 C2      17.3390  53.3475  17.3396   C.3       1 RES1   0.0000
     3 C3      18.1204  54.6528  17.5750   C.3       1 RES1   0.0000
     4 C4      16.8633  52.6917  18.6611   C.3       1 RES1   0.0000
     5 C5      15.9306  51.4722  18.4854   C.3       1 RES1   0.0000
     6 C6      15.5304  50.9145  19.8568   C.2       1 RES1   0.0000
     7 O7      15.9557  51.4476  20.8968   O.2       1 RES1   0.0000
     8 N8      14.7040  49.8464  19.8629   N.am      1 RES1   0.0000
     9 C9      14.2147  49.1944  21.0913   C.3       1 RES1   0.0000
    10 C10     15.3685  48.5138  21.8253   C.2       1 RES1   0.0000
    11 O11     15.4997  48.5954  23.0510   O.2       1 RES1   0.0000
    12 N12     16.2059  47.8387  21.0494   N.am      1 RES1   0.0000
    13 C13     17.3687  47.1186  21.5047   C.3       1 RES1   0.0000
    14 C14     17.2713  45.6995  20.9083   C.3       1 RES1   0.0000
    15 C15     15.9319  45.0426  21.2819   C.3       1 RES1   0.0000
    16 C16     15.8205  43.6362  20.6982   C.3       1 RES1   0.0000
    17 N17     15.7960  43.7455  19.2361   N.2       1 RES1   0.0000
    18 C18     14.7214  44.0113  18.4715   C.2       1 RES1   0.0000
    19 N19     14.8671  44.0797  17.1422   N.pl3     1 RES1   0.0000
    20 N20     13.5173  44.2079  19.0306   N.pl3     1 RES1   1.0000
    21 C21     18.6499  47.8448  21.0441   C.3       1 RES1   0.0000
    22 O22     18.7132  47.7531  19.6317   O.3       1 RES1   0.0000
    23 C23     19.9432  47.2296  21.6082   C.2       1 RES1   0.0000
    24 N24     20.1718  47.3020  22.8739   N.2       1 RES1   0.0000
    25 C25     21.3815  46.6931  23.1763   C.2       1 RES1   0.0000
    26 C26     22.0141  46.1750  22.0551   C.2       1 RES1   0.0000
    27 S27     21.1166  46.4361  20.6250   S.3       1 RES1   0.0000
    28 C28     13.0653  48.2047  20.7786   C.3       1 RES1   0.0000
    29 C29     11.8214  48.8527  20.1339   C.3       1 RES1   0.0000
    30 C30     12.6519  47.4754  22.0618   C.3       1 RES1   0.0000
@<TRIPOS>BOND
     1     1     2    1
     2     2     3    1
     3     2     4    1
     4     4     5    1
     5     5     6    1
     6     6     7    2
     7     6     8   am
     8     9     8    1
     9     9    10    1
    10    10    11    2
    11    10    12   am
    12    12    13    1
    13    13    14    1
    14    14    15    1
    15    15    16    1
    16    16    17    1
    17    17    18    1
    18    18    19    1
    19    18    20    2
    20    13    21    1
    21    21    22    1
    22    21    23    1
    23    23    24    2
    24    24    25    1
    25    25    26    2
    26    26    27    1
    27     9    28    1
    28    28    29    1
    29    28    30    1
    30    27    23    1
@<TRIPOS>SUBSTRUCTURE
     1 RES1        1 GROUP             0 ****  ****    0  
@<TRIPOS>MOLECULE
ligand_10
    30    30     1     0     0
SMALL
USER_CHARGES
****
Generated from the CSD

@<TRIPOS>ATOM
     1 C1      18.2713  52.3779  16.6377   C.3       1 RES1   0.0000
     2 C2      17.3382  53.3590  17.3517   C.3       1 RES1   0.0000
     3 C3      18.1176  54.6648  17.5907   C.3       1 RES1   0.0000
     4 C4      16.8617  52.7000  18.6713   C.3       1 RES1   0.0000
     5 C5      15.9307  51.4797  18.4920   C.3       1 RES1   0.0000
     6 C6      15.5297  50.9186  19.8618   C.2       1 RES1   0.0000
     7 O7      15.9531  51.4502  20.9034   O.2       1 RES1   0.0000
     8 N8      14.7047  49.8495  19.8648   N.am      1 RES1   0.0000
     9 C9      14.2147  49.1944  21.0913   C.3       1 RES1   0.0000
    10 C10     15.3685  48.5138  21.8253   C.2       1 RES1   0.0000
    11 O11     15.4997  48.5954  23.0510   O.2       1 RES1   0.0000
    12 N12     16.2059  47.8387  21.0494   N.am      1 RES1   0.0000
    13 C13     17.3695  47.1197  21.5046   C.3       1 RES1   0.0000
    14 C14     17.2726  45.7001  20.9092   C.3       1 RES1   0.0000
    15 C15     15.9347  45.0419  21.2856   C.3       1 RES1   0.0000
    16 C16     15.8105  43.6473  20.6768   C.3       1 RES1   0.0000
    17 N17     16.8210  42.7835  21.2957   N.2       1 RES1   0.0000
    18 C18     18.0912  42.6165  20.8846   C.2       1 RES1   0.0000
    19 N19     18.9051  41.8189  21.5876   N.pl3     1 RES1   0.0000
    20 N20     18.5409  43.2415  19.7853   N.pl3     1 RES1   1.0000
    21 C21     18.6498  47.8464  21.0427   C.3       1 RES1   0.0000
    22 O22     18.7125  47.7537  19.6303   O.3       1 RES1   0.0000
    23 C23     19.9439  47.2324  21.6065   C.2       1 RES1   0.0000
    24 N24     20.1732  47.3059  22.8720   N.2       1 RES1   0.0000
    25 C25     21.3834  46.6980  23.1742   C.2       1 RES1   0.0000
    26 C26     22.0158  46.1796  22.0530   C.2       1 RES1   0.0000
    27 S27     21.1173  46.4390  20.6231   S.3       1 RES1   0.0000
    28 C28     13.0670  48.2039  20.7752   C.3       1 RES1   0.0000
    29 C29     11.8230  48.8516  20.1304   C.3       1 RES1   0.0000
    30 C30     12.6530  47.4715  22.0565   C.3       1 RES1   0.0000
@<TRIPOS>BOND
     1     1     2    1
     2     2     3    1
     3     2     4    1
     4     4     5    1
     5     5     6    1
     6     6     7    2
     7     6     8   am
     8     9     8    1
     9     9    10    1
    10    10    11    2
    11    10    12   am
    12    12    13    1
    13    13    14    1
    14    14    15    1
    15    15    16    1
    16    16    17    1
    17    17    18    1
    18    18    19    1
    19    18    20    2
    20    13    21    1
    21    21    22    1
    22    21    23    1
    23    23    24    2
    24    24    25    1
    25    25    26    2
    26    26    27    1
    27     9    28    1
    28    28    29    1
    29    28    30    1
    30    27    23    1
@<TRIPOS>SUBSTRUCTURE
     1 RES1        1 GROUP             0 ****  ****    0  
@<TRIPOS>MOLECULE
ligand_11
    30    30     1     0     0
SMALL
USER_CHARGES
****
Generated from the CSD

@<TRIPOS>ATOM
     1 C1      18.2670  52.3300  16.6000   C.3       1 RES1   0.0000
     2 C2      17.3410  53.3200  17.3110   C.3       1 RES1   0.0000
     3 C3      18.1270  54.6240  17.5380   C.3       1 RES1   0.0000
     4 C4      16.8670  52.6720  18.6370   C.3       1 RES1   0.0000
     5 C5      15.9301  51.4545  18.4697   C.3       1 RES1   0.0000
     6 C6      15.5321  50.9045  19.8449   C.2       1 RES1   0.0000
     7 O7      15.0108  51.6528  20.6905   O.2       1 RES1   0.0000
     8 N8      15.7676  49.5937  20.0685   N.am      1 RES1   0.0000
     9 C9      15.4371  48.9039  21.3289   C.3       1 RES1   0.0000
    10 C10     16.6630  48.1691  21.8676   C.2       1 RES1   0.0000
    11 O11     17.2935  47.3608  21.1781   O.2       1 RES1   0.0000
    12 N12     16.9894  48.4653  23.1185   N.am      1 RES1   0.0000
    13 C13     18.1003  47.9045  23.8461   C.3       1 RES1   0.0000
    14 C14     19.1690  49.0124  23.9436   C.3       1 RES1   0.0000
    15 C15     19.5304  49.5448  22.5469   C.3       1 RES1   0.0000
    16 C16     20.5881  50.6430  22.6271   C.3       1 RES1   0.0000
    17 N17     20.8809  51.0999  21.2648   N.2       1 RES1   0.0000
    18 C18     21.7272  50.5235  20.3921   C.2       1 RES1   0.0000
    19 N19     21.8827  51.0666  19.1780   N.pl3     1 RES1   0.0000
    20 N20     22.4074  49.4169  20.7298   N.pl3     1 RES1   1.0000
    21 C21     17.6328  47.4378  25.2406   C.3       1 RES1   0.0000
    22 O22     17.2739  48.5900  25.9829   O.3       1 RES1   0.0000
    23 C23     18.7189  46.6919  26.0365   C.2       1 RES1   0.0000
    24 N24     19.1255  45.5435  25.6180   N.2       1 RES1   0.0000
    25 C25     20.0985  45.0416  26.4706   C.2       1 RES1   0.0000
    26 C26     20.3727  45.8949  27.5300   C.2       1 RES1   0.0000
    27 S27     19.4319  47.3200  27.4754   S.3       1 RES1   0.0000
    28 C28     14.2285  47.9532  21.1451   C.3       1 RES1   0.0000
    29 C29     12.9258  48.6534  20.7027   C.3       1 RES1   0.0000
    30 C30     13.9764  47.1851  22.4473   C.3       1 RES1   0.0000
@<TRIPOS>BOND
     1     1     2    1
     2     2     3    1
     3     2     4    1
     4     4     5    1
     5     5     6    1
     6     6     7    2
     7     6     8   am
     8     9     8    1
     9     9    10    1
    10    10    11    2
    11    10    12   am
    12    12    13    1
    13    13    14    1
    14    14    15    1
    15    15    16    1
    16    16    17    1
    17    17    18    1
    18    18    19    1
    19    18    20    2
    20    13    21    1
    21    21    22    1
    22    21    23    1
    23    23    24    2
    24    24    25    1
    25    25    26    2
    26    26    27    1
    27     9    28    1
    28    28    29    1
    29    28    30    1
    30    27    23    1
@<TRIPOS>SUBSTRUCTURE
     1 RES1        1 GROUP             0 ****  ****    0  
@<TRIPOS>MOLECULE
ligand_12
    30    30     1     0     0
SMALL
USER_CHARGES
****
Generated from the CSD

@<TRIPOS>ATOM
     1 C1      18.2670  52.3300  16.6000   C.3       1 RES1   0.0000
     2 C2      17.3410  53.3200  17.3110   C.3       1 RES1   0.0000
     3 C3      18.1270  54.6240  17.5380   C.3       1 RES1   0.0000
     4 C4      16.8670  52.6720  18.6370   C.3       1 RES1   0.0000
     5 C5      15.9301  51.4545  18.4697   C.3       1 RES1   0.0000
     6 C6      15.5321  50.9045  19.8449   C.2       1 RES1   0.0000
     7 O7      15.9620  51.4413  20.8811   O.2       1 RES1   0.0000
     8 N8      14.7025  49.8390  19.8584   N.am      1 RES1   0.0000
     9 C9      14.2147  49.1944  21.0913   C.3       1 RES1   0.0000
    10 C10     14.4889  47.6924  21.0478   C.2       1 RES1   0.0000
    11 O11     14.1088  46.9875  20.1072   O.2       1 RES1   0.0000
    12 N12     15.1581  47.2144  22.0883   N.am      1 RES1   0.0000
    13 C13     15.5347  45.8356  22.2763   C.3       1 RES1   0.0000
    14 C14     17.0451  45.8287  22.5887   C.3       1 RES1   0.0000
    15 C15     17.8325  46.5567  21.4864   C.3       1 RES1   0.0000
    16 C16     19.3305  46.5581  21.7818   C.3       1 RES1   0.0000
    17 N17     19.5589  47.3468  22.9968   N.2       1 RES1   0.0000
    18 C18     19.6709  48.6854  23.0726   C.2       1 RES1   0.0000
    19 N19     19.8780  49.2565  24.2658   N.pl3     1 RES1   0.0000
    20 N20     19.5750  49.4423  21.9684   N.pl3     1 RES1   1.0000
    21 C21     14.7110  45.2183  23.4258   C.3       1 RES1   0.0000
    22 O22     15.1049  45.8550  24.6287   O.3       1 RES1   0.0000
    23 C23     14.9391  43.7065  23.6039   C.2       1 RES1   0.0000
    24 N24     14.5438  42.8997  22.6808   N.2       1 RES1   0.0000
    25 C25     14.8397  41.5903  23.0320   C.2       1 RES1   0.0000
    26 C26     15.4733  41.4972  24.2631   C.2       1 RES1   0.0000
    27 S27     15.7074  43.0258  24.9895   S.3       1 RES1   0.0000
    28 C28     12.7149  49.5011  21.3261   C.3       1 RES1   0.0000
    29 C29     12.3875  51.0003  21.4932   C.3       1 RES1   0.0000
    30 C30     12.2197  48.7319  22.5560   C.3       1 RES1   0.0000
@<TRIPOS>BOND
     1     1     2    1
     2     2     3    1
     3     2     4    1
     4     4     5    1
     5     5     6    1
     6     6     7    2
     7     6     8   am
     8     9     8    1
     9     9    10    1
    10    10    11    2
    11    10    12   am
    12    12    13    1
    13    13    14    1
    14    14    15    1
    15    15    16    1
    16    16    17    1
    17    17    18    1
    18    18    19    1
    19    18    20    2
    20    13    21    1
    21    21    22    1
    22    21    23    1
    23    23    24    2
    24    24    25    1
    25    25    26    2
    26    26    27    1
    27     9    28    1
    28    28    29    1
    29    28    30    1
    30    27    23    1
@<TRIPOS>SUBSTRUCTURE
     1 RES1        1 GROUP             0 ****  ****    0  
@<TRIPOS>MOLECULE
ligand_13
    30    30     1     0     0
SMALL
USER_CHARGES
****
Generated from the CSD

@<TRIPOS>ATOM
     1 C1      18.2670  52.3300  16.6000   C.3       1 RES1   0.0000
     2 C2      17.3410  53.3200  17.3110   C.3       1 RES1   0.0000
     3 C3      18.1270  54.6240  17.5380   C.3       1 RES1   0.0000
     4 C4      16.8670  52.6720  18.6370   C.3       1 RES1   0.0000
     5 C5      15.9301  51.4545  18.4697   C.3       1 RES1   0.0000
     6 C6      15.5321  50.9045  19.8449   C.2       1 RES1   0.0000
     7 O7      15.9620  51.4413  20.8811   O.2       1 RES1   0.0000
     8 N8      14.7025  49.8390  19.8584   N.am      1 RES1   0.0000
     9 C9      14.2147  49.1944  21.0913   C.3       1 RES1   0.0000
    10 C10     14.4889  47.6924  21.0478   C.2       1 RES1   0.0000
    11 O11     14.1088  46.9875  20.1072   O.2       1 RES1   0.0000
    12 N12     15.1581  47.2144  22.0883   N.am      1 RES1   0.0000
    13 C13     15.5347  45.8356  22.2763   C.3       1 RES1   0.0000
    14 C14     17.0451  45.8287  22.5887   C.3       1 RES1   0.0000
    15 C15     17.8327  46.5548  21.4854   C.3       1 RES1   0.0000
    16 C16     19.3272  46.5837  21.7963   C.3       1 RES1   0.0000
    17 N17     19.8331  45.2080  21.7510   N.2       1 RES1   0.0000
    18 C18     19.8557  44.3299  22.7701   C.2       1 RES1   0.0000
    19 N19     20.3148  43.0908  22.5538   N.pl3     1 RES1   0.0000
    20 N20     19.4225  44.6871  23.9891   N.pl3     1 RES1   1.0000
    21 C21     14.7110  45.2183  23.4258   C.3       1 RES1   0.0000
    22 O22     15.1049  45.8550  24.6287   O.3       1 RES1   0.0000
    23 C23     14.9391  43.7065  23.6039   C.2       1 RES1   0.0000
    24 N24     14.5438  42.8997  22.6808   N.2       1 RES1   0.0000
    25 C25     14.8397  41.5903  23.0320   C.2       1 RES1   0.0000
    26 C26     15.4733  41.4972  24.2631   C.2       1 RES1   0.0000
    27 S27     15.7074  43.0258  24.9895   S.3       1 RES1   0.0000
    28 C28     12.7149  49.5011  21.3261   C.3       1 RES1   0.0000
    29 C29     12.3869  51.0007  21.4889   C.3       1 RES1   0.0000
    30 C30     12.2209  48.7353  22.5586   C.3       1 RES1   0.0000
@<TRIPOS>BOND
     1     1     2    1
     2     2     3    1
     3     2     4    1
     4     4     5    1
     5     5     6    1
     6     6     7    2
     7     6     8   am
     8     9     8    1
     9     9    10    1
    10    10    11    2
    11    10    12   am
    12    12    13    1
    13    13    14    1
    14    14    15    1
    15    15    16    1
    16    16    17    1
    17    17    18    1
    18    18    19    1
    19    18    20    2
    20    13    21    1
    21    21    22    1
    22    21    23    1
    23    23    24    2
    24    24    25    1
    25    25    26    2
    26    26    27    1
    27     9    28    1
    28    28    29    1
    29    28    30    1
    30    27    23    1
@<TRIPOS>SUBSTRUCTURE
     1 RES1        1 GROUP             0 ****  ****    0  
@<TRIPOS>MOLECULE
ligand_14
    30    30     1     0     0
SMALL
USER_CHARGES
****
Generated from the CSD

@<TRIPOS>ATOM
     1 C1      18.2370  52.3571  16.5821   C.3       1 RES1   0.0000
     2 C2      17.2708  53.3362  17.2536   C.3       1 RES1   0.0000
     3 C3      18.0090  54.6734  17.4450   C.3       1 RES1   0.0000
     4 C4      16.8074  52.7144  18.5958   C.3       1 RES1   0.0000
     5 C5      15.9148  51.4603  18.4601   C.3       1 RES1   0.0000
     6 C6      15.5236  50.9406  19.8490   C.2       1 RES1   0.0000
     7 O7      16.4028  50.6740  20.6871   O.2       1 RES1   0.0000
     8 N8      14.2035  50.8049  20.0994   N.am      1 RES1   0.0000
     9 C9      13.6572  50.3094  21.3759   C.3       1 RES1   0.0000
    10 C10     13.9679  48.8233  21.5438   C.2       1 RES1   0.0000
    11 O11     13.6666  47.9930  20.6801   O.2       1 RES1   0.0000
    12 N12     14.5780  48.5027  22.6768   N.am      1 RES1   0.0000
    13 C13     14.9280  47.1657  23.0867   C.3       1 RES1   0.0000
    14 C14     16.4568  47.0401  22.9255   C.3       1 RES1   0.0000
    15 C15     16.8805  47.3619  21.4826   C.3       1 RES1   0.0000
    16 C16     18.3930  47.2470  21.3085   C.3       1 RES1   0.0000
    17 N17     18.7212  47.5662  19.9154   N.2       1 RES1   0.0000
    18 C18     18.6636  46.7251  18.8668   C.2       1 RES1   0.0000
    19 N19     18.9965  47.1750  17.6504   N.pl3     1 RES1   0.0000
    20 N20     18.2761  45.4511  19.0338   N.pl3     1 RES1   1.0000
    21 C21     14.4866  46.9314  24.5466   C.3       1 RES1   0.0000
    22 O22     15.2770  47.7659  25.3751   O.3       1 RES1   0.0000
    23 C23     14.6837  45.4815  25.0244   C.2       1 RES1   0.0000
    24 N24     13.9732  44.5455  24.4966   N.2       1 RES1   0.0000
    25 C25     14.3001  43.3212  25.0622   C.2       1 RES1   0.0000
    26 C26     15.2895  43.4264  26.0295   C.2       1 RES1   0.0000
    27 S27     15.8206  45.0364  26.2420   S.3       1 RES1   0.0000
    28 C28     12.1393  50.5977  21.4832   C.3       1 RES1   0.0000
    29 C29     11.7678  52.0951  21.4315   C.3       1 RES1   0.0000
    30 C30     11.5894  49.9812  22.7743   C.3       1 RES1   0.0000
@<TRIPOS>BOND
     1     1     2    1
     2     2     3    1
     3     2     4    1
     4     4     5    1
     5     5     6    1
     6     6     7    2
     7     6     8   am
     8     9     8    1
     9     9    10    1
    10    10    11    2
    11    10    12   am
    12    12    13    1
    13    13    14    1
    14    14    15    1
    15    15    16    1
    16    16    17    1
    17    17    18    1
    18    18    19    1
    19    18    20    2
    20    13    21    1
    21    21    22    1
    22    21    23    1
    23    23    24    2
    24    24    25    1
    25    25    26    2
    26    26    27    1
    27     9    28    1
    28    28    29    1
    29    28    30    1
    30    27    23    1
@<TRIPOS>SUBSTRUCTURE
     1 RES1        1 GROUP             0 ****  ****    0  
@<TRIPOS>MOLECULE
ligand_15
    30    30     1     0     0
SMALL
USER_CHARGES
****
Generated from the CSD

@<TRIPOS>ATOM
     1 C1      18.2521  52.6802  16.8479   C.3       1 RES1   0.0000
     2 C2      17.2070  53.5736  17.5207   C.3       1 RES1   0.0000
     3 C3      17.8634  54.9361  17.8078   C.3       1 RES1   0.0000
     4 C4      16.7213  52.8631  18.8099   C.3       1 RES1   0.0000
     5 C5      15.9041  51.5727  18.5753   C.3       1 RES1   0.0000
     6 C6      15.4930  50.9591  19.9194   C.2       1 RES1   0.0000
     7 O7      14.9104  51.6530  20.7712   O.2       1 RES1   0.0000
     8 N8      15.7863  49.6546  20.1090   N.am      1 RES1   0.0000
     9 C9      15.4371  48.9039  21.3289   C.3       1 RES1   0.0000
    10 C10     16.6630  48.1691  21.8676   C.2       1 RES1   0.0000
    11 O11     16.9629  48.1931  23.0658   O.2       1 RES1   0.0000
    12 N12     17.3690  47.5135  20.9562   N.am      1 RES1   0.0000
    13 C13     18.5217  46.6911  21.2264   C.3       1 RES1   0.0000
    14 C14     18.0855  45.2296  20.9967   C.3       1 RES1   0.0000
    15 C15     16.8401  44.8949  21.8346   C.3       1 RES1   0.0000
    16 C16     16.4049  43.4459  21.6294   C.3       1 RES1   0.0000
    17 N17     15.2182  43.2007  22.4553   N.2       1 RES1   0.0000
    18 C18     15.2048  42.8870  23.7635   C.2       1 RES1   0.0000
    19 N19     14.0299  42.6951  24.3766   N.pl3     1 RES1   0.0000
    20 N20     16.3524  42.7687  24.4492   N.pl3     1 RES1   1.0000
    21 C21     19.6839  47.0933  20.2945   C.3       1 RES1   0.0000
    22 O22     20.8219  46.3396  20.6747   O.3       1 RES1   0.0000
    23 C23     20.0607  48.5828  20.3876   C.2       1 RES1   0.0000
    24 N24     19.2258  49.4683  19.9654   N.2       1 RES1   0.0000
    25 C25     19.7524  50.7408  20.1357   C.2       1 RES1   0.0000
    26 C26     21.0170  50.7239  20.7069   C.2       1 RES1   0.0000
    27 S27     21.5586  49.1375  21.0372   S.3       1 RES1   0.0000
    28 C28     14.2527  47.9398  21.0717   C.3       1 RES1   0.0000
    29 C29     12.9675  48.6274  20.5633   C.3       1 RES1   0.0000
    30 C30     13.9392  47.1581  22.3523   C.3       1 RES1   0.0000
@<TRIPOS>BOND
     1     1     2    1
     2     2     3    1
     3     2     4    1
     4     4     5    1
     5     5     6    1
     6     6     7    2
     7     6     8   am
     8     9     8    1
     9     9    10    1
    10    10    11    2
    11    10    12   am
    12    12    13    1
    13    13    14    1
    14    14    15    1
    15    15    16    1
    16    16    17    1
    17    17    18    1
    18    18    19    1
    19    18    20    2
    20    13    21    1
    21    21    22    1
    22    21    23    1
    23    23    24    2
    24    24    25    1
    25    25    26    2
    26    26    27    1
    27     9    28    1
    28    28    29    1
    29    28    30    1
    30    27    23    1
@<TRIPOS>SUBSTRUCTURE
     1 RES1        1 GROUP             0 ****  ****    0  
@<TRIPOS>MOLECULE
ligand_16
    30    30     1     0     0
SMALL
USER_CHARGES
****
Generated from the CSD

@<TRIPOS>ATOM
     1 C1      18.4879  52.3354  16.8136   C.3       1 RES1   0.0000
     2 C2      17.5461  53.3281  17.4997   C.3       1 RES1   0.0000
     3 C3      18.3386  54.6184  17.7767   C.3       1 RES1   0.0000
     4 C4      17.0097  52.6688  18.7961   C.3       1 RES1   0.0000
     5 C5      16.0651  51.4662  18.5737   C.3       1 RES1   0.0000
     6 C6      15.6039  50.9033  19.9237   C.2       1 RES1   0.0000
     7 O7      15.9976  51.4205  20.9840   O.2       1 RES1   0.0000
     8 N8      14.7610  49.8488  19.8885   N.am      1 RES1   0.0000
     9 C9      14.2147  49.1944  21.0913   C.3       1 RES1   0.0000
    10 C10     14.4889  47.6924  21.0478   C.2       1 RES1   0.0000
    11 O11     14.9213  47.0802  22.0299   O.2       1 RES1   0.0000
    12 N12     14.2293  47.1086  19.8857   N.am      1 RES1   0.0000
    13 C13     14.4315  45.7123  19.5897   C.3       1 RES1   0.0000
    14 C14     13.1074  45.1903  18.9955   C.3       1 RES1   0.0000
    15 C15     11.9340  45.4731  19.9484   C.3       1 RES1   0.0000
    16 C16     10.6152  44.9617  19.3736   C.3       1 RES1   0.0000
    17 N17      9.5474  45.2650  20.3318   N.2       1 RES1   0.0000
    18 C18      9.2123  44.5379  21.4131   C.2       1 RES1   0.0000
    19 N19      8.2074  44.9544  22.1938   N.pl3     1 RES1   0.0000
    20 N20      9.8760  43.4098  21.7098   N.pl3     1 RES1   1.0000
    21 C21     15.6046  45.5497  18.6005   C.3       1 RES1   0.0000
    22 O22     15.2070  46.1149  17.3636   O.3       1 RES1   0.0000
    23 C23     15.9904  44.0828  18.3386   C.2       1 RES1   0.0000
    24 N24     15.9803  43.6382  17.1296   N.2       1 RES1   0.0000
    25 C25     16.3548  42.3022  17.1089   C.2       1 RES1   0.0000
    26 C26     16.6374  41.8066  18.3740   C.2       1 RES1   0.0000
    27 S27     16.4437  42.9889  19.5921   S.3       1 RES1   0.0000
    28 C28     12.7059  49.5014  21.2577   C.3       1 RES1   0.0000
    29 C29     12.3723  51.0001  21.4176   C.3       1 RES1   0.0000
    30 C30     12.1532  48.7260  22.4588   C.3       1 RES1   0.0000
@<TRIPOS>BOND
     1     1     2    1
     2     2     3    1
     3     2     4    1
     4     4     5    1
     5     5     6    1
     6     6     7    2
     7     6     8   am
     8     9     8    1
     9     9    10    1
    10    10    11    2
    11    10    12   am
    12    12    13    1
    13    13    14    1
    14    14    15    1
    15    15    16    1
    16    16    17    1
    17    17    18    1
    18    18    19    1
    19    18    20    2
    20    13    21    1
    21    21    22    1
    22    21    23    1
    23    23    24    2
    24    24    25    1
    25    25    26    2
    26    26    27    1
    27     9    28    1
    28    28    29    1
    29    28    30    1
    30    27    23    1
@<TRIPOS>SUBSTRUCTURE
     1 RES1        1 GROUP             0 ****  ****    0  
@<TRIPOS>MOLECULE
ligand_17
    30    30     1     0     0
SMALL
USER_CHARGES
****
Generated from the CSD

@<TRIPOS>ATOM
     1 C1      18.4511  52.1106  16.6944   C.3       1 RES1   0.0000
     2 C2      17.5246  53.1374  17.3505   C.3       1 RES1   0.0000
     3 C3      18.3302  54.4310  17.5680   C.3       1 RES1   0.0000
     4 C4      16.9971  52.5343  18.6775   C.3       1 RES1   0.0000
     5 C5      16.0407  51.3317  18.5128   C.3       1 RES1   0.0000
     6 C6      15.5898  50.8263  19.8888   C.2       1 RES1   0.0000
     7 O7      16.4335  50.5071  20.7448   O.2       1 RES1   0.0000
     8 N8      14.2588  50.7617  20.1082   N.am      1 RES1   0.0000
     9 C9      13.6572  50.3094  21.3759   C.3       1 RES1   0.0000
    10 C10     12.6510  49.1902  21.1150   C.2       1 RES1   0.0000
    11 O11     12.6285  48.1616  21.7990   O.2       1 RES1   0.0000
    12 N12     11.8165  49.4101  20.1080   N.am      1 RES1   0.0000
    13 C13     10.7997  48.4957  19.6519   C.3       1 RES1   0.0000
    14 C14      9.5926  49.3549  19.2235   C.3       1 RES1   0.0000
    15 C15      9.1473  50.2783  20.3698   C.3       1 RES1   0.0000
    16 C16      7.9522  51.1359  19.9605   C.3       1 RES1   0.0000
    17 N17      7.5853  51.9861  21.0976   N.2       1 RES1   0.0000
    18 C18      6.8148  51.6354  22.1432   C.2       1 RES1   0.0000
    19 N19      6.5741  52.5334  23.1068   N.pl3     1 RES1   0.0000
    20 N20      6.2938  50.4012  22.2239   N.pl3     1 RES1   1.0000
    21 C21     11.3418  47.6487  18.4815   C.3       1 RES1   0.0000
    22 O22     11.5497  48.5168  17.3812   O.3       1 RES1   0.0000
    23 C23     10.3758  46.5412  18.0236   C.2       1 RES1   0.0000
    24 N24     10.1240  45.5603  18.8198   N.2       1 RES1   0.0000
    25 C25      9.2376  44.6756  18.2221   C.2       1 RES1   0.0000
    26 C26      8.8622  45.0746  16.9471   C.2       1 RES1   0.0000
    27 S27      9.6006  46.5439  16.4834   S.3       1 RES1   0.0000
    28 C28     13.0184  51.4926  22.1444   C.3       1 RES1   0.0000
    29 C29     14.0089  52.6102  22.5352   C.3       1 RES1   0.0000
    30 C30     12.3189  50.9693  23.4038   C.3       1 RES1   0.0000
@<TRIPOS>BOND
     1     1     2    1
     2     2     3    1
     3     2     4    1
     4     4     5    1
     5     5     6    1
     6     6     7    2
     7     6     8   am
     8     9     8    1
     9     9    10    1
    10    10    11    2
    11    10    12   am
    12    12    13    1
    13    13    14    1
    14    14    15    1
    15    15    16    1
    16    16    17    1
    17    17    18    1
    18    18    19    1
    19    18    20    2
    20    13    21    1
    21    21    22    1
    22    21    23    1
    23    23    24    2
    24    24    25    1
    25    25    26    2
    26    26    27    1
    27     9    28    1
    28    28    29    1
    29    28    30    1
    30    27    23    1
@<TRIPOS>SUBSTRUCTURE
     1 RES1        1 GROUP             0 ****  ****    0  
@<TRIPOS>MOLECULE
ligand_18
    30    30     1     0     0
SMALL
USER_CHARGES
****
Generated from the CSD

@<TRIPOS>ATOM
     1 C1      18.2642  52.2449  16.5414   C.3       1 RES1   0.0000
     2 C2      17.3345  53.2481  17.2287   C.3       1 RES1   0.0000
     3 C3      18.1172  54.5584  17.4289   C.3       1 RES1   0.0000
     4 C4      16.8590  52.6281  18.5675   C.3       1 RES1   0.0000
     5 C5      15.9251  51.4052  18.4247   C.3       1 RES1   0.0000
     6 C6      15.5253  50.8844  19.8107   C.2       1 RES1   0.0000
     7 O7      15.9518  51.4445  20.8359   O.2       1 RES1   0.0000
     8 N8      14.6980  49.8176  19.8457   N.am      1 RES1   0.0000
     9 C9      14.2147  49.1944  21.0913   C.3       1 RES1   0.0000
    10 C10     15.3685  48.5138  21.8253   C.2       1 RES1   0.0000
    11 O11     16.1034  47.6936  21.2655   O.2       1 RES1   0.0000
    12 N12     15.5135  48.8701  23.0945   N.am      1 RES1   0.0000
    13 C13     16.5129  48.3553  23.9968   C.3       1 RES1   0.0000
    14 C14     17.1980  49.5776  24.6413   C.3       1 RES1   0.0000
    15 C15     17.7496  50.5246  23.5624   C.3       1 RES1   0.0000
    16 C16     18.4358  51.7378  24.1856   C.3       1 RES1   0.0000
    17 N17     17.4233  52.5227  24.8992   N.2       1 RES1   0.0000
    18 C18     16.5882  53.4298  24.3609   C.2       1 RES1   0.0000
    19 N19     15.7146  54.0638  25.1533   N.pl3     1 RES1   0.0000
    20 N20     16.6260  53.6973  23.0463   N.pl3     1 RES1   1.0000
    21 C21     15.8488  47.4492  25.0545   C.3       1 RES1   0.0000
    22 O22     15.0301  48.2682  25.8709   O.3       1 RES1   0.0000
    23 C23     16.8561  46.7357  25.9741   C.2       1 RES1   0.0000
    24 N24     17.6372  45.8417  25.4742   N.2       1 RES1   0.0000
    25 C25     18.4617  45.3217  26.4619   C.2       1 RES1   0.0000
    26 C26     18.2318  45.8928  27.7055   C.2       1 RES1   0.0000
    27 S27     16.9988  47.0746  27.6588   S.3       1 RES1   0.0000
    28 C28     13.0504  48.2129  20.8096   C.3       1 RES1   0.0000
    29 C29     11.8077  48.8633  20.1650   C.3       1 RES1   0.0000
    30 C30     12.6416  47.5138  22.1110   C.3       1 RES1   0.0000
@<TRIPOS>BOND
     1     1     2    1
     2     2     3    1
     3     2     4    1
     4     4     5    1
     5     5     6    1
     6     6     7    2
     7     6     8   am
     8     9     8    1
     9     9    10    1
    10    10    11    2
    11    10    12   am
    12    12    13    1
    13    13    14    1
    14    14    15    1
    15    15    16    1
    16    16    17    1
    17    17    18    1
    18    18    19    1
    19    18    20    2
    20    13    21    1
    21    21    22    1
    22    21    23    1
    23    23    24    2
    24    24    25    1
    25    25    26    2
    26    26    27    1
    27     9    28    1
    28    28    29    1
    29    28    30    1
    30    27    23    1
@<TRIPOS>SUBSTRUCTURE
     1 RES1        1 GROUP             0 ****  ****    0  
@<TRIPOS>MOLECULE
ligand_19
    30    30     1     0     0
SMALL
USER_CHARGES
****
Generated from the CSD

@<TRIPOS>ATOM
     1 C1      18.2645  52.2440  16.5412   C.3       1 RES1   0.0000
     2 C2      17.3336  53.2472  17.2270   C.3       1 RES1   0.0000
     3 C3      18.1153  54.5583  17.4265   C.3       1 RES1   0.0000
     4 C4      16.8577  52.6280  18.5661   C.3       1 RES1   0.0000
     5 C5      15.9248  51.4043  18.4238   C.3       1 RES1   0.0000
     6 C6      15.5245  50.8845  19.8100   C.2       1 RES1   0.0000
     7 O7      15.9499  51.4459  20.8350   O.2       1 RES1   0.0000
     8 N8      14.6979  49.8171  19.8454   N.am      1 RES1   0.0000
     9 C9      14.2147  49.1944  21.0913   C.3       1 RES1   0.0000
    10 C10     15.3685  48.5138  21.8253   C.2       1 RES1   0.0000
    11 O11     16.1034  47.6936  21.2655   O.2       1 RES1   0.0000
    12 N12     15.5135  48.8701  23.0945   N.am      1 RES1   0.0000
    13 C13     16.5120  48.3542  23.9972   C.3       1 RES1   0.0000
    14 C14     17.1984  49.5758  24.6417   C.3       1 RES1   0.0000
    15 C15     17.7535  50.5207  23.5628   C.3       1 RES1   0.0000
    16 C16     18.4100  51.7506  24.1853   C.3       1 RES1   0.0000
    17 N17     19.5990  51.3132  24.9238   N.2       1 RES1   0.0000
    18 C18     19.6402  50.9076  26.2060   C.2       1 RES1   0.0000
    19 N19     20.8052  50.4983  26.7238   N.pl3     1 RES1   0.0000
    20 N20     18.5294  50.9102  26.9591   N.pl3     1 RES1   1.0000
    21 C21     15.8464  47.4492  25.0549   C.3       1 RES1   0.0000
    22 O22     15.0284  48.2693  25.8708   O.3       1 RES1   0.0000
    23 C23     16.8524  46.7345  25.9749   C.2       1 RES1   0.0000
    24 N24     17.6326  45.8394  25.4755   N.2       1 RES1   0.0000
    25 C25     18.4562  45.3186  26.4635   C.2       1 RES1   0.0000
    26 C26     18.2265  45.8902  27.7069   C.2       1 RES1   0.0000
    27 S27     16.9951  47.0736  27.6596   S.3       1 RES1   0.0000
    28 C28     13.0502  48.2130  20.8101   C.3       1 RES1   0.0000
    29 C29     11.8068  48.8639  20.1672   C.3       1 RES1   0.0000
    30 C30     12.6428  47.5129  22.1113   C.3       1 RES1   0.0000
@<TRIPOS>BOND
     1     1     2    1
     2     2     3    1
     3     2     4    1
     4     4     5    1
     5     5     6    1
     6     6     7    2
     7     6     8   am
     8     9     8    1
     9     9    10    1
    10    10    11    2
    11    10    12   am
    12    12    13    1
    13    13    14    1
    14    14    15    1
    15    15    16    1
    16    16    17    1
    17    17    18    1
    18    18    19    1
    19    18    20    2
    20    13    21    1
    21    21    22    1
    22    21    23    1
    23    23    24    2
    24    24    25    1
    25    25    26    2
    26    26    27    1
    27     9    28    1
    28    28    29    1
    29    28    30    1
    30    27    23    1
@<TRIPOS>SUBSTRUCTURE
     1 RES1        1 GROUP             0 ****  ****    0  
@<TRIPOS>MOLECULE
ligand_20
    30    30     1     0     0
SMALL
USER_CHARGES
****
Generated from the CSD

@<TRIPOS>ATOM
     1 C1      18.2383  52.3232  16.5715   C.3       1 RES1   0.0000
     2 C2      17.3230  53.3151  17.2936   C.3       1 RES1   0.0000
     3 C3      18.1151  54.6168  17.5129   C.3       1 RES1   0.0000
     4 C4      16.8619  52.6673  18.6242   C.3       1 RES1   0.0000
     5 C5      15.9198  51.4526  18.4663   C.3       1 RES1   0.0000
     6 C6      15.5325  50.9049  19.8454   C.2       1 RES1   0.0000
     7 O7      15.0197  51.6551  20.6945   O.2       1 RES1   0.0000
     8 N8      15.7675  49.5939  20.0686   N.am      1 RES1   0.0000
     9 C9      15.4371  48.9039  21.3289   C.3       1 RES1   0.0000
    10 C10     16.6710  48.8187  22.2252   C.2       1 RES1   0.0000
    11 O11     16.6117  49.0427  23.4387   O.2       1 RES1   0.0000
    12 N12     17.7948  48.4901  21.6023   N.am      1 RES1   0.0000
    13 C13     19.0834  48.3385  22.2304   C.3       1 RES1   0.0000
    14 C14     19.6378  46.9724  21.7772   C.3       1 RES1   0.0000
    15 C15     18.6400  45.8466  22.0967   C.3       1 RES1   0.0000
    16 C16     19.1752  44.4871  21.6536   C.3       1 RES1   0.0000
    17 N17     18.1755  43.4678  21.9887   N.2       1 RES1   0.0000
    18 C18     18.0098  42.8719  23.1835   C.2       1 RES1   0.0000
    19 N19     17.0434  41.9564  23.3277   N.pl3     1 RES1   0.0000
    20 N20     18.8001  43.1898  24.2206   N.pl3     1 RES1   1.0000
    21 C21     20.0112  49.4984  21.8124   C.3       1 RES1   0.0000
    22 O22     21.1929  49.4063  22.5886   O.3       1 RES1   0.0000
    23 C23     19.4032  50.8915  22.0552   C.2       1 RES1   0.0000
    24 N24     18.3855  51.2617  21.3576   N.2       1 RES1   0.0000
    25 C25     17.9934  52.5406  21.7264   C.2       1 RES1   0.0000
    26 C26     18.7866  53.0736  22.7326   C.2       1 RES1   0.0000
    27 S27     20.0173  51.9968  23.2277   S.3       1 RES1   0.0000
    28 C28     14.8232  47.5083  21.0573   C.3       1 RES1   0.0000
    29 C29     13.5093  47.5345  20.2474   C.3       1 RES1   0.0000
    30 C30     14.5870  46.7834  22.3870   C.3       1 RES1   0.0000
@<TRIPOS>BOND
     1     1     2    1
     2     2     3    1
     3     2     4    1
     4     4     5    1
     5     5     6    1
     6     6     7    2
     7     6     8   am
     8     9     8    1
     9     9    10    1
    10    10    11    2
    11    10    12   am
    12    12    13    1
    13    13    14    1
    14    14    15    1
    15    15    16    1
    16    16    17    1
    17    17    18    1
    18    18    19    1
    19    18    20    2
    20    13    21    1
    21    21    22    1
    22    21    23    1
    23    23    24    2
    24    24    25    1
    25    25    26    2
    26    26    27    1
    27     9    28    1
    28    28    29    1
    29    28    30    1
    30    27    23    1
@<TRIPOS>SUBSTRUCTURE
     1 RES1        1 GROUP             0 ****  ****    0  
@<TRIPOS>MOLECULE
ligand_21
    30    30     1     0     0
SMALL
USER_CHARGES
****
Generated from the CSD

@<TRIPOS>ATOM
     1 C1      18.4845  52.3367  16.8111   C.3       1 RES1   0.0000
     2 C2      17.5421  53.3289  17.4970   C.3       1 RES1   0.0000
     3 C3      18.3337  54.6200  17.7732   C.3       1 RES1   0.0000
     4 C4      17.0065  52.6699  18.7938   C.3       1 RES1   0.0000
     5 C5      16.0628  51.4665  18.5722   C.3       1 RES1   0.0000
     6 C6      15.6023  50.9039  19.9226   C.2       1 RES1   0.0000
     7 O7      15.9959  51.4218  20.9825   O.2       1 RES1   0.0000
     8 N8      14.7602  49.8487  19.8880   N.am      1 RES1   0.0000
     9 C9      14.2147  49.1944  21.0913   C.3       1 RES1   0.0000
    10 C10     14.4889  47.6924  21.0478   C.2       1 RES1   0.0000
    11 O11     14.9213  47.0802  22.0299   O.2       1 RES1   0.0000
    12 N12     14.2293  47.1086  19.8857   N.am      1 RES1   0.0000
    13 C13     14.4311  45.7122  19.5898   C.3       1 RES1   0.0000
    14 C14     13.1069  45.1906  18.9955   C.3       1 RES1   0.0000
    15 C15     11.9334  45.4739  19.9482   C.3       1 RES1   0.0000
    16 C16     10.6146  44.9629  19.3732   C.3       1 RES1   0.0000
    17 N17     10.3137  45.7300  18.1601   N.2       1 RES1   0.0000
    18 C18      9.7247  46.9383  18.1030   C.2       1 RES1   0.0000
    19 N19      9.5210  47.5092  16.9091   N.pl3     1 RES1   0.0000
    20 N20      9.3465  47.5674  19.2265   N.pl3     1 RES1   1.0000
    21 C21     15.6043  45.5492  18.6009   C.3       1 RES1   0.0000
    22 O22     15.8895  44.1654  18.4949   O.3       1 RES1   0.0000
    23 C23     16.8944  46.2561  19.0539   C.2       1 RES1   0.0000
    24 N24     16.9221  47.5433  19.0965   N.2       1 RES1   0.0000
    25 C25     18.1672  47.9803  19.5259   C.2       1 RES1   0.0000
    26 C26     19.0383  46.9335  19.7924   C.2       1 RES1   0.0000
    27 S27     18.3224  45.4071  19.5158   S.3       1 RES1   0.0000
    28 C28     12.7060  49.5014  21.2586   C.3       1 RES1   0.0000
    29 C29     12.3723  51.0002  21.4167   C.3       1 RES1   0.0000
    30 C30     12.1546  48.7276  22.4614   C.3       1 RES1   0.0000
@<TRIPOS>BOND
     1     1     2    1
     2     2     3    1
     3     2     4    1
     4     4     5    1
     5     5     6    1
     6     6     7    2
     7     6     8   am
     8     9     8    1
     9     9    10    1
    10    10    11    2
    11    10    12   am
    12    12    13    1
    13    13    14    1
    14    14    15    1
    15    15    16    1
    16    16    17    1
    17    17    18    1
    18    18    19    1
    19    18    20    2
    20    13    21    1
    21    21    22    1
    22    21    23    1
    23    23    24    2
    24    24    25    1
    25    25    26    2
    26    26    27    1
    27     9    28    1
    28    28    29    1
    29    28    30    1
    30    27    23    1
@<TRIPOS>SUBSTRUCTURE
     1 RES1        1 GROUP             0 ****  ****    0  
@<TRIPOS>MOLECULE
ligand_22
    30    30     1     0     0
SMALL
USER_CHARGES
****
Generated from the CSD

@<TRIPOS>ATOM
     1 C1      18.4920  52.3356  16.8179   C.3       1 RES1   0.0000
     2 C2      17.5498  53.3283  17.5034   C.3       1 RES1   0.0000
     3 C3      18.3423  54.6184  17.7814   C.3       1 RES1   0.0000
     4 C4      17.0123  52.6689  18.7992   C.3       1 RES1   0.0000
     5 C5      16.0676  51.4665  18.5757   C.3       1 RES1   0.0000
     6 C6      15.6052  50.9034  19.9252   C.2       1 RES1   0.0000
     7 O7      15.9981  51.4202  20.9860   O.2       1 RES1   0.0000
     8 N8      14.7621  49.8490  19.8891   N.am      1 RES1   0.0000
     9 C9      14.2147  49.1944  21.0913   C.3       1 RES1   0.0000
    10 C10     14.4889  47.6924  21.0478   C.2       1 RES1   0.0000
    11 O11     14.9213  47.0802  22.0299   O.2       1 RES1   0.0000
    12 N12     14.2293  47.1086  19.8857   N.am      1 RES1   0.0000
    13 C13     14.4319  45.7124  19.5895   C.3       1 RES1   0.0000
    14 C14     13.1078  45.1900  18.9956   C.3       1 RES1   0.0000
    15 C15     11.9348  45.4702  19.9498   C.3       1 RES1   0.0000
    16 C16     10.6116  44.9869  19.3612   C.3       1 RES1   0.0000
    17 N17     10.6560  43.5240  19.2694   N.2       1 RES1   0.0000
    18 C18     11.1322  42.8010  18.2395   C.2       1 RES1   0.0000
    19 N19     11.1394  41.4649  18.3283   N.pl3     1 RES1   0.0000
    20 N20     11.5966  43.4077  17.1362   N.pl3     1 RES1   1.0000
    21 C21     15.6049  45.5502  18.6002   C.3       1 RES1   0.0000
    22 O22     15.8905  44.1666  18.4933   O.3       1 RES1   0.0000
    23 C23     16.8949  46.2573  19.0533   C.2       1 RES1   0.0000
    24 N24     16.9225  47.5445  19.0958   N.2       1 RES1   0.0000
    25 C25     18.1675  47.9816  19.5253   C.2       1 RES1   0.0000
    26 C26     19.0387  46.9349  19.7919   C.2       1 RES1   0.0000
    27 S27     18.3229  45.4084  19.5153   S.3       1 RES1   0.0000
    28 C28     12.7057  49.5014  21.2563   C.3       1 RES1   0.0000
    29 C29     12.3720  51.0001  21.4156   C.3       1 RES1   0.0000
    30 C30     12.1521  48.7263  22.4572   C.3       1 RES1   0.0000
@<TRIPOS>BOND
     1     1     2    1
     2     2     3    1
     3     2     4    1
     4     4     5    1
     5     5     6    1
     6     6     7    2
     7     6     8   am
     8     9     8    1
     9     9    10    1
    10    10    11    2
    11    10    12   am
    12    12    13    1
    13    13    14    1
    14    14    15    1
    15    15    16    1
    16    16    17    1
    17    17    18    1
    18    18    19    1
    19    18    20    2
    20    13    21    1
    21    21    22    1
    22    21    23    1
    23    23    24    2
    24    24    25    1
    25    25    26    2
    26    26    27    1
    27     9    28    1
    28    28    29    1
    29    28    30    1
    30    27    23    1
@<TRIPOS>SUBSTRUCTURE
     1 RES1        1 GROUP             0 ****  ****    0  
@<TRIPOS>MOLECULE
ligand_23
    30    30     1     0     0
SMALL
USER_CHARGES
****
Generated from the CSD

@<TRIPOS>ATOM
     1 C1      18.2228  52.2959  16.5290   C.3       1 RES1   0.0000
     2 C2      17.2982  53.2867  17.2405   C.3       1 RES1   0.0000
     3 C3      18.0784  54.5975  17.4473   C.3       1 RES1   0.0000
     4 C4      16.8421  52.6481  18.5773   C.3       1 RES1   0.0000
     5 C5      15.9113  51.4232  18.4310   C.3       1 RES1   0.0000
     6 C6      15.5249  50.8883  19.8154   C.2       1 RES1   0.0000
     7 O7      15.9605  51.4385  20.8421   O.2       1 RES1   0.0000
     8 N8      14.6986  49.8205  19.8474   N.am      1 RES1   0.0000
     9 C9      14.2147  49.1944  21.0913   C.3       1 RES1   0.0000
    10 C10     15.3685  48.5138  21.8253   C.2       1 RES1   0.0000
    11 O11     15.4997  48.5954  23.0510   O.2       1 RES1   0.0000
    12 N12     16.2059  47.8387  21.0494   N.am      1 RES1   0.0000
    13 C13     17.3409  47.0785  21.5096   C.3       1 RES1   0.0000
    14 C14     16.9863  45.5906  21.3109   C.3       1 RES1   0.0000
    15 C15     15.6603  45.2487  22.0108   C.3       1 RES1   0.0000
    16 C16     15.2986  43.7767  21.8280   C.3       1 RES1   0.0000
    17 N17     14.0294  43.5257  22.5182   N.2       1 RES1   0.0000
    18 C18     13.8682  43.2722  23.8296   C.2       1 RES1   0.0000
    19 N19     12.6347  43.0648  24.3075   N.pl3     1 RES1   0.0000
    20 N20     14.9279  43.2287  24.6520   N.pl3     1 RES1   1.0000
    21 C21     18.5991  47.4773  20.7103   C.3       1 RES1   0.0000
    22 O22     19.6336  46.5726  21.0551   O.3       1 RES1   0.0000
    23 C23     19.1018  48.8984  21.0218   C.2       1 RES1   0.0000
    24 N24     18.3730  49.9078  20.6908   N.2       1 RES1   0.0000
    25 C25     19.0011  51.0903  21.0552   C.2       1 RES1   0.0000
    26 C26     20.2267  50.8770  21.6701   C.2       1 RES1   0.0000
    27 S27     20.6062  49.2164  21.8022   S.3       1 RES1   0.0000
    28 C28     13.0519  48.2120  20.8065   C.3       1 RES1   0.0000
    29 C29     11.8162  48.8587  20.1448   C.3       1 RES1   0.0000
    30 C30     12.6298  47.5239  22.1094   C.3       1 RES1   0.0000
@<TRIPOS>BOND
     1     1     2    1
     2     2     3    1
     3     2     4    1
     4     4     5    1
     5     5     6    1
     6     6     7    2
     7     6     8   am
     8     9     8    1
     9     9    10    1
    10    10    11    2
    11    10    12   am
    12    12    13    1
    13    13    14    1
    14    14    15    1
    15    15    16    1
    16    16    17    1
    17    17    18    1
    18    18    19    1
    19    18    20    2
    20    13    21    1
    21    21    22    1
    22    21    23    1
    23    23    24    2
    24    24    25    1
    25    25    26    2
    26    26    27    1
    27     9    28    1
    28    28    29    1
    29    28    30    1
    30    27    23    1
@<TRIPOS>SUBSTRUCTURE
     1 RES1        1 GROUP             0 ****  ****    0  
@<TRIPOS>MOLECULE
ligand_24
    30    30     1     0     0
SMALL
USER_CHARGES
****
Generated from the CSD

@<TRIPOS>ATOM
     1 C1      18.2670  52.3300  16.6000   C.3       1 RES1   0.0000
     2 C2      17.3410  53.3200  17.3110   C.3       1 RES1   0.0000
     3 C3      18.1270  54.6240  17.5380   C.3       1 RES1   0.0000
     4 C4      16.8670  52.6720  18.6370   C.3       1 RES1   0.0000
     5 C5      15.9301  51.4545  18.4697   C.3       1 RES1   0.0000
     6 C6      15.5321  50.9045  19.8449   C.2       1 RES1   0.0000
     7 O7      15.9620  51.4413  20.8811   O.2       1 RES1   0.0000
     8 N8      14.7025  49.8390  19.8584   N.am      1 RES1   0.0000
     9 C9      14.2147  49.1944  21.0913   C.3       1 RES1   0.0000
    10 C10     14.4889  47.6924  21.0478   C.2       1 RES1   0.0000
    11 O11     14.1088  46.9875  20.1072   O.2       1 RES1   0.0000
    12 N12     15.1581  47.2144  22.0883   N.am      1 RES1   0.0000
    13 C13     15.5347  45.8356  22.2763   C.3       1 RES1   0.0000
    14 C14     17.0550  45.7551  22.0293   C.3       1 RES1   0.0000
    15 C15     17.3771  45.9698  20.5410   C.3       1 RES1   0.0000
    16 C16     18.8795  45.8929  20.2805   C.3       1 RES1   0.0000
    17 N17     19.1095  46.1058  18.8480   N.2       1 RES1   0.0000
    18 C18     19.0216  45.1786  17.8770   C.2       1 RES1   0.0000
    19 N19     19.2618  45.5365  16.6093   N.pl3     1 RES1   0.0000
    20 N20     18.6958  43.9104  18.1713   N.pl3     1 RES1   1.0000
    21 C21     15.1629  45.3795  23.7027   C.3       1 RES1   0.0000
    22 O22     15.9833  46.0932  24.6111   O.3       1 RES1   0.0000
    23 C23     15.3943  43.8778  23.9489   C.2       1 RES1   0.0000
    24 N24     14.6684  43.0200  23.3190   N.2       1 RES1   0.0000
    25 C25     15.0316  41.7303  23.6800   C.2       1 RES1   0.0000
    26 C26     16.0635  41.7054  24.6075   C.2       1 RES1   0.0000
    27 S27     16.5898  43.2736  25.0348   S.3       1 RES1   0.0000
    28 C28     12.7149  49.5011  21.3261   C.3       1 RES1   0.0000
    29 C29     12.3869  51.0007  21.4889   C.3       1 RES1   0.0000
    30 C30     12.2209  48.7354  22.5586   C.3       1 RES1   0.0000
@<TRIPOS>BOND
     1     1     2    1
     2     2     3    1
     3     2     4    1
     4     4     5    1
     5     5     6    1
     6     6     7    2
     7     6     8   am
     8     9     8    1
     9     9    10    1
    10    10    11    2
    11    10    12   am
    12    12    13    1
    13    13    14    1
    14    14    15    1
    15    15    16    1
    16    16    17    1
    17    17    18    1
    18    18    19    1
    19    18    20    2
    20    13    21    1
    21    21    22    1
    22    21    23    1
    23    23    24    2
    24    24    25    1
    25    25    26    2
    26    26    27    1
    27     9    28    1
    28    28    29    1
    29    28    30    1
    30    27    23    1
@<TRIPOS>SUBSTRUCTURE
     1 RES1        1 GROUP             0 ****  ****    0  
@<TRIPOS>MOLECULE
ligand_25
    30    30     1     0     0
SMALL
USER_CHARGES
****
Generated from the CSD

@<TRIPOS>ATOM
     1 C1      18.2700  52.3637  16.6265   C.3       1 RES1   0.0000
     2 C2      17.3390  53.3475  17.3396   C.3       1 RES1   0.0000
     3 C3      18.1204  54.6528  17.5750   C.3       1 RES1   0.0000
     4 C4      16.8633  52.6917  18.6611   C.3       1 RES1   0.0000
     5 C5      15.9306  51.4722  18.4854   C.3       1 RES1   0.0000
     6 C6      15.5304  50.9145  19.8568   C.2       1 RES1   0.0000
     7 O7      15.9557  51.4476  20.8968   O.2       1 RES1   0.0000
     8 N8      14.7040  49.8464  19.8629   N.am      1 RES1   0.0000
     9 C9      14.2147  49.1944  21.0913   C.3       1 RES1   0.0000
    10 C10     15.3685  48.5138  21.8253   C.2       1 RES1   0.0000
    11 O11     15.4997  48.5954  23.0510   O.2       1 RES1   0.0000
    12 N12     16.2059  47.8387  21.0494   N.am      1 RES1   0.0000
    13 C13     17.3687  47.1186  21.5047   C.3       1 RES1   0.0000
    14 C14     17.2713  45.6995  20.9083   C.3       1 RES1   0.0000
    15 C15     15.9319  45.0426  21.2819   C.3       1 RES1   0.0000
    16 C16     15.8205  43.6362  20.6982   C.3       1 RES1   0.0000
    17 N17     14.5246  43.0753  21.0937   N.2       1 RES1   0.0000
    18 C18     14.2352  42.4763  22.2631   C.2       1 RES1   0.0000
    19 N19     12.9951  42.0163  22.4715   N.pl3     1 RES1   0.0000
    20 N20     15.1747  42.3414  23.2120   N.pl3     1 RES1   1.0000
    21 C21     18.6499  47.8448  21.0441   C.3       1 RES1   0.0000
    22 O22     18.7132  47.7531  19.6317   O.3       1 RES1   0.0000
    23 C23     19.9432  47.2296  21.6082   C.2       1 RES1   0.0000
    24 N24     20.8560  46.8310  20.7914   N.2       1 RES1   0.0000
    25 C25     21.9326  46.3104  21.4954   C.2       1 RES1   0.0000
    26 C26     21.7454  46.3568  22.8696   C.2       1 RES1   0.0000
    27 S27     20.2410  47.0449  23.2966   S.3       1 RES1   0.0000
    28 C28     13.0653  48.2047  20.7786   C.3       1 RES1   0.0000
    29 C29     11.8214  48.8527  20.1339   C.3       1 RES1   0.0000
    30 C30     12.6519  47.4754  22.0618   C.3       1 RES1   0.0000
@<TRIPOS>BOND
     1     1     2    1
     2     2     3    1
     3     2     4    1
     4     4     5    1
     5     5     6    1
     6     6     7    2
     7     6     8   am
     8     9     8    1
     9     9    10    1
    10    10    11    2
    11    10    12   am
    12    12    13    1
    13    13    14    1
    14    14    15    1
    15    15    16    1
    16    16    17    1
    17    17    18    1
    18    18    19    1
    19    18    20    2
    20    13    21    1
    21    21    22    1
    22    21    23    1
    23    23    24    2
    24    24    25    1
    25    25    26    2
    26    26    27    1
    27     9    28    1
    28    28    29    1
    29    28    30    1
    30    27    23    1
@<TRIPOS>SUBSTRUCTURE
     1 RES1        1 GROUP             0 ****  ****    0  
@<TRIPOS>MOLECULE
ligand_26
    30    30     1     0     0
SMALL
USER_CHARGES
****
Generated from the CSD

@<TRIPOS>ATOM
     1 C1      18.2406  52.3605  16.6065   C.3       1 RES1   0.0000
     2 C2      17.3115  53.3435  17.3231   C.3       1 RES1   0.0000
     3 C3      18.0919  54.6503  17.5531   C.3       1 RES1   0.0000
     4 C4      16.8435  52.6885  18.6477   C.3       1 RES1   0.0000
     5 C5      15.9119  51.4672  18.4779   C.3       1 RES1   0.0000
     6 C6      15.5195  50.9103  19.8520   C.2       1 RES1   0.0000
     7 O7      14.9966  51.6531  20.7014   O.2       1 RES1   0.0000
     8 N8      15.7616  49.5998  20.0703   N.am      1 RES1   0.0000
     9 C9      15.4371  48.9039  21.3289   C.3       1 RES1   0.0000
    10 C10     16.3165  49.4248  22.4640   C.2       1 RES1   0.0000
    11 O11     15.8572  49.6702  23.5842   O.2       1 RES1   0.0000
    12 N12     17.5949  49.5904  22.1519   N.am      1 RES1   0.0000
    13 C13     18.6167  50.0725  23.0472   C.3       1 RES1   0.0000
    14 C14     19.9062  49.2992  22.7034   C.3       1 RES1   0.0000
    15 C15     19.6662  47.7818  22.7730   C.3       1 RES1   0.0000
    16 C16     20.9347  47.0022  22.4349   C.3       1 RES1   0.0000
    17 N17     20.6313  45.5702  22.5213   N.2       1 RES1   0.0000
    18 C18     20.6199  44.8207  23.6386   C.2       1 RES1   0.0000
    19 N19     20.3190  43.5190  23.5482   N.pl3     1 RES1   0.0000
    20 N20     20.9043  45.3676  24.8307   N.pl3     1 RES1   1.0000
    21 C21     18.7979  51.5941  22.8666   C.3       1 RES1   0.0000
    22 O22     19.3344  51.8139  21.5738   O.3       1 RES1   0.0000
    23 C23     19.7656  52.2242  23.8845   C.2       1 RES1   0.0000
    24 N24     19.4337  52.2553  25.1288   N.2       1 RES1   0.0000
    25 C25     20.4347  52.8610  25.8750   C.2       1 RES1   0.0000
    26 C26     21.5107  53.2653  25.0975   C.2       1 RES1   0.0000
    27 S27     21.2908  52.8971  23.4437   S.3       1 RES1   0.0000
    28 C28     15.5555  47.3685  21.1648   C.3       1 RES1   0.0000
    29 C29     14.6093  46.7641  20.1053   C.3       1 RES1   0.0000
    30 C30     15.3089  46.6870  22.5153   C.3       1 RES1   0.0000
@<TRIPOS>BOND
     1     1     2    1
     2     2     3    1
     3     2     4    1
     4     4     5    1
     5     5     6    1
     6     6     7    2
     7     6     8   am
     8     9     8    1
     9     9    10    1
    10    10    11    2
    11    10    12   am
    12    12    13    1
    13    13    14    1
    14    14    15    1
    15    15    16    1
    16    16    17    1
    17    17    18    1
    18    18    19    1
    19    18    20    2
    20    13    21    1
    21    21    22    1
    22    21    23    1
    23    23    24    2
    24    24    25    1
    25    25    26    2
    26    26    27    1
    27     9    28    1
    28    28    29    1
    29    28    30    1
    30    27    23    1
@<TRIPOS>SUBSTRUCTURE
     1 RES1        1 GROUP             0 ****  ****    0  
@<TRIPOS>MOLECULE
ligand_27
    30    30     1     0     0
SMALL
USER_CHARGES
****
Generated from the CSD

@<TRIPOS>ATOM
     1 C1      18.2670  52.3300  16.6000   C.3       1 RES1   0.0000
     2 C2      17.3410  53.3200  17.3110   C.3       1 RES1   0.0000
     3 C3      18.1270  54.6240  17.5380   C.3       1 RES1   0.0000
     4 C4      16.8670  52.6720  18.6370   C.3       1 RES1   0.0000
     5 C5      15.9301  51.4545  18.4697   C.3       1 RES1   0.0000
     6 C6      15.5321  50.9045  19.8449   C.2       1 RES1   0.0000
     7 O7      16.4082  50.5808  20.6661   O.2       1 RES1   0.0000
     8 N8      14.2101  50.8066  20.1029   N.am      1 RES1   0.0000
     9 C9      13.6572  50.3094  21.3759   C.3       1 RES1   0.0000
    10 C10     12.6510  49.1902  21.1150   C.2       1 RES1   0.0000
    11 O11     11.6933  49.3403  20.3491   O.2       1 RES1   0.0000
    12 N12     12.8864  48.0610  21.7695   N.am      1 RES1   0.0000
    13 C13     12.0823  46.8672  21.6898   C.3       1 RES1   0.0000
    14 C14     13.0474  45.7041  21.3820   C.3       1 RES1   0.0000
    15 C15     13.5923  45.8135  19.9481   C.3       1 RES1   0.0000
    16 C16     14.5499  44.6681  19.6283   C.3       1 RES1   0.0000
    17 N17     15.0266  44.8378  18.2520   N.2       1 RES1   0.0000
    18 C18     14.3903  44.4510  17.1314   C.2       1 RES1   0.0000
    19 N19     14.9627  44.6820  15.9431   N.pl3     1 RES1   0.0000
    20 N20     13.1960  43.8426  17.1996   N.pl3     1 RES1   1.0000
    21 C21     11.3319  46.6496  23.0204   C.3       1 RES1   0.0000
    22 O22     12.2961  46.3553  24.0160   O.3       1 RES1   0.0000
    23 C23     10.3334  45.4788  22.9800   C.2       1 RES1   0.0000
    24 N24      9.2911  45.5693  22.2284   N.2       1 RES1   0.0000
    25 C25      8.5239  44.4179  22.3352   C.2       1 RES1   0.0000
    26 C26      9.0730  43.4887  23.2075   C.2       1 RES1   0.0000
    27 S27     10.5387  44.0327  23.8965   S.3       1 RES1   0.0000
    28 C28     13.0369  51.4621  22.2036   C.3       1 RES1   0.0000
    29 C29     14.0330  52.5734  22.5985   C.3       1 RES1   0.0000
    30 C30     12.3824  50.8928  23.4673   C.3       1 RES1   0.0000
@<TRIPOS>BOND
     1     1     2    1
     2     2     3    1
     3     2     4    1
     4     4     5    1
     5     5     6    1
     6     6     7    2
     7     6     8   am
     8     9     8    1
     9     9    10    1
    10    10    11    2
    11    10    12   am
    12    12    13    1
    13    13    14    1
    14    14    15    1
    15    15    16    1
    16    16    17    1
    17    17    18    1
    18    18    19    1
    19    18    20    2
    20    13    21    1
    21    21    22    1
    22    21    23    1
    23    23    24    2
    24    24    25    1
    25    25    26    2
    26    26    27    1
    27     9    28    1
    28    28    29    1
    29    28    30    1
    30    27    23    1
@<TRIPOS>SUBSTRUCTURE
     1 RES1        1 GROUP             0 ****  ****    0  
@<TRIPOS>MOLECULE
ligand_28
    30    30     1     0     0
SMALL
USER_CHARGES
****
Generated from the CSD

@<TRIPOS>ATOM
     1 C1      18.4132  52.3193  16.7287   C.3       1 RES1   0.0000
     2 C2      17.4856  53.3149  17.4296   C.3       1 RES1   0.0000
     3 C3      18.2849  54.6047  17.6891   C.3       1 RES1   0.0000
     4 C4      16.9722  52.6594  18.7372   C.3       1 RES1   0.0000
     5 C5      16.0219  51.4577  18.5349   C.3       1 RES1   0.0000
     6 C6      15.5848  50.8986  19.8945   C.2       1 RES1   0.0000
     7 O7      15.9985  51.4176  20.9461   O.2       1 RES1   0.0000
     8 N8      14.7398  49.8452  19.8772   N.am      1 RES1   0.0000
     9 C9      14.2147  49.1944  21.0913   C.3       1 RES1   0.0000
    10 C10     14.4889  47.6924  21.0478   C.2       1 RES1   0.0000
    11 O11     14.9213  47.0802  22.0299   O.2       1 RES1   0.0000
    12 N12     14.2293  47.1086  19.8857   N.am      1 RES1   0.0000
    13 C13     14.4434  45.7150  19.5857   C.3       1 RES1   0.0000
    14 C14     13.0493  45.0589  19.5149   C.3       1 RES1   0.0000
    15 C15     12.2559  45.3254  20.8051   C.3       1 RES1   0.0000
    16 C16     10.8758  44.6744  20.7536   C.3       1 RES1   0.0000
    17 N17     10.1808  44.9695  22.0107   N.2       1 RES1   0.0000
    18 C18     10.3120  44.3043  23.1728   C.2       1 RES1   0.0000
    19 N19      9.6034  44.7031  24.2366   N.pl3     1 RES1   0.0000
    20 N20     11.1431  43.2549  23.2688   N.pl3     1 RES1   1.0000
    21 C21     15.2081  45.5761  18.2528   C.3       1 RES1   0.0000
    22 O22     14.2926  45.8312  17.2019   O.3       1 RES1   0.0000
    23 C23     15.7981  44.1728  18.0246   C.2       1 RES1   0.0000
    24 N24     16.8773  44.0515  17.3317   N.2       1 RES1   0.0000
    25 C25     17.2402  42.7151  17.2430   C.2       1 RES1   0.0000
    26 C26     16.3607  41.8768  17.9133   C.2       1 RES1   0.0000
    27 S27     15.0846  42.7359  18.6566   S.3       1 RES1   0.0000
    28 C28     12.7088  49.5012  21.2828   C.3       1 RES1   0.0000
    29 C29     12.3717  51.0034  21.3951   C.3       1 RES1   0.0000
    30 C30     12.1892  48.7687  22.5249   C.3       1 RES1   0.0000
@<TRIPOS>BOND
     1     1     2    1
     2     2     3    1
     3     2     4    1
     4     4     5    1
     5     5     6    1
     6     6     7    2
     7     6     8   am
     8     9     8    1
     9     9    10    1
    10    10    11    2
    11    10    12   am
    12    12    13    1
    13    13    14    1
    14    14    15    1
    15    15    16    1
    16    16    17    1
    17    17    18    1
    18    18    19    1
    19    18    20    2
    20    13    21    1
    21    21    22    1
    22    21    23    1
    23    23    24    2
    24    24    25    1
    25    25    26    2
    26    26    27    1
    27     9    28    1
    28    28    29    1
    29    28    30    1
    30    27    23    1
@<TRIPOS>SUBSTRUCTURE
     1 RES1        1 GROUP             0 ****  ****    0  
@<TRIPOS>MOLECULE
ligand_29
    30    30     1     0     0
SMALL
USER_CHARGES
****
Generated from the CSD

@<TRIPOS>ATOM
     1 C1      18.3085  52.4415  16.7084   C.3       1 RES1   0.0000
     2 C2      17.3834  53.4167  17.4408   C.3       1 RES1   0.0000
     3 C3      18.1744  54.7103  17.7068   C.3       1 RES1   0.0000
     4 C4      16.8992  52.7357  18.7465   C.3       1 RES1   0.0000
     5 C5      15.9575  51.5277  18.5417   C.3       1 RES1   0.0000
     6 C6      15.5496  50.9431  19.8996   C.2       1 RES1   0.0000
     7 O7      15.0273  51.6710  20.7621   O.2       1 RES1   0.0000
     8 N8      15.7776  49.6255  20.0892   N.am      1 RES1   0.0000
     9 C9      15.4371  48.9039  21.3289   C.3       1 RES1   0.0000
    10 C10     16.6630  48.1691  21.8676   C.2       1 RES1   0.0000
    11 O11     16.9629  48.1931  23.0658   O.2       1 RES1   0.0000
    12 N12     17.3690  47.5135  20.9562   N.am      1 RES1   0.0000
    13 C13     18.5857  46.7831  21.2098   C.3       1 RES1   0.0000
    14 C14     18.2332  45.2856  21.1002   C.3       1 RES1   0.0000
    15 C15     17.0655  44.9311  22.0361   C.3       1 RES1   0.0000
    16 C16     16.7115  43.4486  21.9465   C.3       1 RES1   0.0000
    17 N17     16.2122  43.1758  20.5950   N.2       1 RES1   0.0000
    18 C18     14.9576  43.3727  20.1506   C.2       1 RES1   0.0000
    19 N19     14.6608  43.0728  18.8798   N.pl3     1 RES1   0.0000
    20 N20     14.0133  43.8651  20.9672   N.pl3     1 RES1   1.0000
    21 C21     19.6664  47.1917  20.1869   C.3       1 RES1   0.0000
    22 O22     19.2465  46.7383  18.9119   O.3       1 RES1   0.0000
    23 C23     21.0469  46.5721  20.4690   C.2       1 RES1   0.0000
    24 N24     21.6912  46.9309  21.5252   N.2       1 RES1   0.0000
    25 C25     22.9052  46.2624  21.5943   C.2       1 RES1   0.0000
    26 C26     23.1010  45.3981  20.5263   C.2       1 RES1   0.0000
    27 S27     21.7862  45.4066  19.4353   S.3       1 RES1   0.0000
    28 C28     14.2408  47.9458  21.1069   C.3       1 RES1   0.0000
    29 C29     12.9494  48.6376  20.6205   C.3       1 RES1   0.0000
    30 C30     13.9504  47.1781  22.4013   C.3       1 RES1   0.0000
@<TRIPOS>BOND
     1     1     2    1
     2     2     3    1
     3     2     4    1
     4     4     5    1
     5     5     6    1
     6     6     7    2
     7     6     8   am
     8     9     8    1
     9     9    10    1
    10    10    11    2
    11    10    12   am
    12    12    13    1
    13    13    14    1
    14    14    15    1
    15    15    16    1
    16    16    17    1
    17    17    18    1
    18    18    19    1
    19    18    20    2
    20    13    21    1
    21    21    22    1
    22    21    23    1
    23    23    24    2
    24    24    25    1
    25    25    26    2
    26    26    27    1
    27     9    28    1
    28    28    29    1
    29    28    30    1
    30    27    23    1
@<TRIPOS>SUBSTRUCTURE
     1 RES1        1 GROUP             0 ****  ****    0  
@<TRIPOS>MOLECULE
ligand_30
    30    30     1     0     0
SMALL
USER_CHARGES
****
Generated from the CSD

@<TRIPOS>ATOM
     1 C1      18.3072  52.4367  16.7039   C.3       1 RES1   0.0000
     2 C2      17.3825  53.4127  17.4357   C.3       1 RES1   0.0000
     3 C3      18.1737  54.7064  17.7002   C.3       1 RES1   0.0000
     4 C4      16.8987  52.7330  18.7422   C.3       1 RES1   0.0000
     5 C5      15.9568  51.5250  18.5389   C.3       1 RES1   0.0000
     6 C6      15.5493  50.9417  19.8975   C.2       1 RES1   0.0000
     7 O7      15.0274  51.6705  20.7596   O.2       1 RES1   0.0000
     8 N8      15.7772  49.6243  20.0884   N.am      1 RES1   0.0000
     9 C9      15.4371  48.9039  21.3289   C.3       1 RES1   0.0000
    10 C10     16.6630  48.1691  21.8676   C.2       1 RES1   0.0000
    11 O11     16.9629  48.1931  23.0658   O.2       1 RES1   0.0000
    12 N12     17.3690  47.5135  20.9562   N.am      1 RES1   0.0000
    13 C13     18.5864  46.7842  21.2095   C.3       1 RES1   0.0000
    14 C14     18.2350  45.2863  21.1002   C.3       1 RES1   0.0000
    15 C15     17.0703  44.9302  22.0390   C.3       1 RES1   0.0000
    16 C16     16.6949  43.4547  21.9245   C.3       1 RES1   0.0000
    17 N17     17.8167  42.6544  22.4260   N.2       1 RES1   0.0000
    18 C18     18.8715  42.2198  21.7127   C.2       1 RES1   0.0000
    19 N19     19.8382  41.5303  22.3315   N.pl3     1 RES1   0.0000
    20 N20     18.9580  42.4738  20.3978   N.pl3     1 RES1   1.0000
    21 C21     19.6664  47.1935  20.1864   C.3       1 RES1   0.0000
    22 O22     19.2468  46.7394  18.9116   O.3       1 RES1   0.0000
    23 C23     21.0476  46.5753  20.4684   C.2       1 RES1   0.0000
    24 N24     21.6917  46.9350  21.5244   N.2       1 RES1   0.0000
    25 C25     22.9065  46.2677  21.5934   C.2       1 RES1   0.0000
    26 C26     23.1029  45.4034  20.5257   C.2       1 RES1   0.0000
    27 S27     21.7879  45.4103  19.4349   S.3       1 RES1   0.0000
    28 C28     14.2403  47.9460  21.1084   C.3       1 RES1   0.0000
    29 C29     12.9501  48.6374  20.6183   C.3       1 RES1   0.0000
    30 C30     13.9477  47.1826  22.4048   C.3       1 RES1   0.0000
@<TRIPOS>BOND
     1     1     2    1
     2     2     3    1
     3     2     4    1
     4     4     5    1
     5     5     6    1
     6     6     7    2
     7     6     8   am
     8     9     8    1
     9     9    10    1
    10    10    11    2
    11    10    12   am
    12    12    13    1
    13    13    14    1
    14    14    15    1
    15    15    16    1
    16    16    17    1
    17    17    18    1
    18    18    19    1
    19    18    20    2
    20    13    21    1
    21    21    22    1
    22    21    23    1
    23    23    24    2
    24    24    25    1
    25    25    26    2
    26    26    27    1
    27     9    28    1
    28    28    29    1
    29    28    30    1
    30    27    23    1
@<TRIPOS>SUBSTRUCTURE
     1 RES1        1 GROUP             0 ****  ****    0  
@<TRIPOS>MOLECULE
ligand_31
    30    30     1     0     0
SMALL
USER_CHARGES
****
Generated from the CSD

@<TRIPOS>ATOM
     1 C1      18.4023  52.3506  16.7408   C.3       1 RES1   0.0000
     2 C2      17.4562  53.3376  17.4291   C.3       1 RES1   0.0000
     3 C3      18.2361  54.6396  17.6867   C.3       1 RES1   0.0000
     4 C4      16.9421  52.6828  18.7367   C.3       1 RES1   0.0000
     5 C5      16.0097  51.4672  18.5347   C.3       1 RES1   0.0000
     6 C6      15.5703  50.9101  19.8943   C.2       1 RES1   0.0000
     7 O7      15.9693  51.4408  20.9459   O.2       1 RES1   0.0000
     8 N8      14.7398  49.8452  19.8772   N.am      1 RES1   0.0000
     9 C9      14.2147  49.1944  21.0913   C.3       1 RES1   0.0000
    10 C10     14.4889  47.6924  21.0478   C.2       1 RES1   0.0000
    11 O11     14.1088  46.9875  20.1072   O.2       1 RES1   0.0000
    12 N12     15.1581  47.2144  22.0883   N.am      1 RES1   0.0000
    13 C13     15.5738  45.8442  22.2551   C.3       1 RES1   0.0000
    14 C14     17.0938  45.8087  21.9957   C.3       1 RES1   0.0000
    15 C15     17.4256  46.4094  20.6195   C.3       1 RES1   0.0000
    16 C16     18.9278  46.3812  20.3480   C.3       1 RES1   0.0000
    17 N17     19.1672  46.9667  19.0251   N.2       1 RES1   0.0000
    18 C18     19.0693  46.3354  17.8410   C.2       1 RES1   0.0000
    19 N19     19.3205  47.0162  16.7157   N.pl3     1 RES1   0.0000
    20 N20     18.7228  45.0401  17.7845   N.pl3     1 RES1   1.0000
    21 C21     15.2258  45.3593  23.6780   C.3       1 RES1   0.0000
    22 O22     15.8038  44.0771  23.8499   O.3       1 RES1   0.0000
    23 C23     13.7133  45.2248  23.9301   C.2       1 RES1   0.0000
    24 N24     12.9858  46.2874  23.9603   N.2       1 RES1   0.0000
    25 C25     11.6607  45.9524  24.2001   C.2       1 RES1   0.0000
    26 C26     11.4722  44.5847  24.3407   C.2       1 RES1   0.0000
    27 S27     12.9295  43.7085  24.1751   S.3       1 RES1   0.0000
    28 C28     12.7088  49.5012  21.2828   C.3       1 RES1   0.0000
    29 C29     12.3759  51.0012  21.4318   C.3       1 RES1   0.0000
    30 C30     12.1803  48.7389  22.5029   C.3       1 RES1   0.0000
@<TRIPOS>BOND
     1     1     2    1
     2     2     3    1
     3     2     4    1
     4     4     5    1
     5     5     6    1
     6     6     7    2
     7     6     8   am
     8     9     8    1
     9     9    10    1
    10    10    11    2
    11    10    12   am
    12    12    13    1
    13    13    14    1
    14    14    15    1
    15    15    16    1
    16    16    17    1
    17    17    18    1
    18    18    19    1
    19    18    20    2
    20    13    21    1
    21    21    22    1
    22    21    23    1
    23    23    24    2
    24    24    25    1
    25    25    26    2
    26    26    27    1
    27     9    28    1
    28    28    29    1
    29    28    30    1
    30    27    23    1
@<TRIPOS>SUBSTRUCTURE
     1 RES1        1 GROUP             0 ****  ****    0  
@<TRIPOS>MOLECULE
ligand_32
    30    30     1     0     0
SMALL
USER_CHARGES
****
Generated from the CSD

@<TRIPOS>ATOM
     1 C1      18.2684  52.3284  16.5997   C.3       1 RES1   0.0000
     2 C2      17.3425  53.3188  17.3104   C.3       1 RES1   0.0000
     3 C3      18.1288  54.6226  17.5372   C.3       1 RES1   0.0000
     4 C4      16.8682  52.6711  18.6364   C.3       1 RES1   0.0000
     5 C5      15.9310  51.4539  18.4692   C.3       1 RES1   0.0000
     6 C6      15.5328  50.9042  19.8445   C.2       1 RES1   0.0000
     7 O7      15.0116  51.6528  20.6899   O.2       1 RES1   0.0000
     8 N8      15.7679  49.5933  20.0684   N.am      1 RES1   0.0000
     9 C9      15.4371  48.9039  21.3289   C.3       1 RES1   0.0000
    10 C10     16.3165  49.4248  22.4640   C.2       1 RES1   0.0000
    11 O11     15.8572  49.6702  23.5842   O.2       1 RES1   0.0000
    12 N12     17.5949  49.5904  22.1519   N.am      1 RES1   0.0000
    13 C13     18.6138  50.0862  23.0429   C.3       1 RES1   0.0000
    14 C14     19.4970  48.8792  23.4197   C.3       1 RES1   0.0000
    15 C15     18.7322  47.9099  24.3365   C.3       1 RES1   0.0000
    16 C16     19.5947  46.7099  24.7200   C.3       1 RES1   0.0000
    17 N17     18.8035  45.8339  25.5900   N.2       1 RES1   0.0000
    18 C18     18.6274  45.9713  26.9168   C.2       1 RES1   0.0000
    19 N19     17.8689  45.0819  27.5700   N.pl3     1 RES1   0.0000
    20 N20     19.2016  46.9868  27.5803   N.pl3     1 RES1   1.0000
    21 C21     19.4291  51.1941  22.3437   C.3       1 RES1   0.0000
    22 O22     20.1552  50.5927  21.2861   O.3       1 RES1   0.0000
    23 C23     20.4448  51.8883  23.2688   C.2       1 RES1   0.0000
    24 N24     20.0130  52.6083  24.2458   N.2       1 RES1   0.0000
    25 C25     21.0804  53.1432  24.9531   C.2       1 RES1   0.0000
    26 C26     22.3098  52.7670  24.4308   C.2       1 RES1   0.0000
    27 S27     22.1517  51.7504  23.0668   S.3       1 RES1   0.0000
    28 C28     15.5482  47.3673  21.1709   C.3       1 RES1   0.0000
    29 C29     14.6140  46.7657  20.0993   C.3       1 RES1   0.0000
    30 C30     15.2775  46.6913  22.5196   C.3       1 RES1   0.0000
@<TRIPOS>BOND
     1     1     2    1
     2     2     3    1
     3     2     4    1
     4     4     5    1
     5     5     6    1
     6     6     7    2
     7     6     8   am
     8     9     8    1
     9     9    10    1
    10    10    11    2
    11    10    12   am
    12    12    13    1
    13    13    14    1
    14    14    15    1
    15    15    16    1
    16    16    17    1
    17    17    18    1
    18    18    19    1
    19    18    20    2
    20    13    21    1
    21    21    22    1
    22    21    23    1
    23    23    24    2
    24    24    25    1
    25    25    26    2
    26    26    27    1
    27     9    28    1
    28    28    29    1
    29    28    30    1
    30    27    23    1
@<TRIPOS>SUBSTRUCTURE
     1 RES1        1 GROUP             0 ****  ****    0  
@<TRIPOS>MOLECULE
ligand_33
    30    30     1     0     0
SMALL
USER_CHARGES
****
Generated from the CSD

@<TRIPOS>ATOM
     1 C1      18.2670  52.3300  16.6000   C.3       1 RES1   0.0000
     2 C2      17.3410  53.3200  17.3110   C.3       1 RES1   0.0000
     3 C3      18.1270  54.6240  17.5380   C.3       1 RES1   0.0000
     4 C4      16.8670  52.6720  18.6370   C.3       1 RES1   0.0000
     5 C5      15.9301  51.4545  18.4697   C.3       1 RES1   0.0000
     6 C6      15.5321  50.9045  19.8449   C.2       1 RES1   0.0000
     7 O7      15.9620  51.4413  20.8811   O.2       1 RES1   0.0000
     8 N8      14.7025  49.8390  19.8584   N.am      1 RES1   0.0000
     9 C9      14.2147  49.1944  21.0913   C.3       1 RES1   0.0000
    10 C10     14.4889  47.6924  21.0478   C.2       1 RES1   0.0000
    11 O11     14.1088  46.9875  20.1072   O.2       1 RES1   0.0000
    12 N12     15.1581  47.2144  22.0883   N.am      1 RES1   0.0000
    13 C13     15.5347  45.8356  22.2763   C.3       1 RES1   0.0000
    14 C14     17.0451  45.8287  22.5887   C.3       1 RES1   0.0000
    15 C15     17.8325  46.5567  21.4864   C.3       1 RES1   0.0000
    16 C16     19.3305  46.5581  21.7818   C.3       1 RES1   0.0000
    17 N17     20.0131  47.2658  20.6939   N.2       1 RES1   0.0000
    18 C18     20.3761  46.7479  19.5063   C.2       1 RES1   0.0000
    19 N19     20.9942  47.5319  18.6140   N.pl3     1 RES1   0.0000
    20 N20     20.1218  45.4627  19.2154   N.pl3     1 RES1   1.0000
    21 C21     14.7110  45.2183  23.4258   C.3       1 RES1   0.0000
    22 O22     15.1049  45.8550  24.6287   O.3       1 RES1   0.0000
    23 C23     14.9391  43.7065  23.6039   C.2       1 RES1   0.0000
    24 N24     15.3391  43.2630  24.7453   N.2       1 RES1   0.0000
    25 C25     15.4842  41.8838  24.6976   C.2       1 RES1   0.0000
    26 C26     15.1648  41.3554  23.4548   C.2       1 RES1   0.0000
    27 S27     14.6823  42.5592  22.3425   S.3       1 RES1   0.0000
    28 C28     12.7149  49.5011  21.3261   C.3       1 RES1   0.0000
    29 C29     12.3875  51.0003  21.4932   C.3       1 RES1   0.0000
    30 C30     12.2197  48.7319  22.5560   C.3       1 RES1   0.0000
@<TRIPOS>BOND
     1     1     2    1
     2     2     3    1
     3     2     4    1
     4     4     5    1
     5     5     6    1
     6     6     7    2
     7     6     8   am
     8     9     8    1
     9     9    10    1
    10    10    11    2
    11    10    12   am
    12    12    13    1
    13    13    14    1
    14    14    15    1
    15    15    16    1
    16    16    17    1
    17    17    18    1
    18    18    19    1
    19    18    20    2
    20    13    21    1
    21    21    22    1
    22    21    23    1
    23    23    24    2
    24    24    25    1
    25    25    26    2
    26    26    27    1
    27     9    28    1
    28    28    29    1
    29    28    30    1
    30    27    23    1
@<TRIPOS>SUBSTRUCTURE
     1 RES1        1 GROUP             0 ****  ****    0  
@<TRIPOS>MOLECULE
ligand_34
    30    30     1     0     0
SMALL
USER_CHARGES
****
Generated from the CSD

@<TRIPOS>ATOM
     1 C1      18.2670  52.3300  16.6000   C.3       1 RES1   0.0000
     2 C2      17.3410  53.3200  17.3110   C.3       1 RES1   0.0000
     3 C3      18.1270  54.6240  17.5380   C.3       1 RES1   0.0000
     4 C4      16.8670  52.6720  18.6370   C.3       1 RES1   0.0000
     5 C5      15.9301  51.4545  18.4697   C.3       1 RES1   0.0000
     6 C6      15.5321  50.9045  19.8449   C.2       1 RES1   0.0000
     7 O7      15.0108  51.6528  20.6905   O.2       1 RES1   0.0000
     8 N8      15.7676  49.5937  20.0685   N.am      1 RES1   0.0000
     9 C9      15.4371  48.9039  21.3289   C.3       1 RES1   0.0000
    10 C10     16.6630  48.1691  21.8676   C.2       1 RES1   0.0000
    11 O11     17.2935  47.3608  21.1781   O.2       1 RES1   0.0000
    12 N12     16.9894  48.4653  23.1185   N.am      1 RES1   0.0000
    13 C13     18.1003  47.9045  23.8461   C.3       1 RES1   0.0000
    14 C14     18.6627  49.0340  24.7332   C.3       1 RES1   0.0000
    15 C15     19.0174  50.2670  23.8853   C.3       1 RES1   0.0000
    16 C16     19.5759  51.3945  24.7502   C.3       1 RES1   0.0000
    17 N17     19.8897  52.5308  23.8780   N.2       1 RES1   0.0000
    18 C18     21.0124  52.6991  23.1559   C.2       1 RES1   0.0000
    19 N19     21.1457  53.7986  22.4035   N.pl3     1 RES1   0.0000
    20 N20     21.9877  51.7777  23.1853   N.pl3     1 RES1   1.0000
    21 C21     17.6239  46.7016  24.6869   C.3       1 RES1   0.0000
    22 O22     16.7597  47.1956  25.6952   O.3       1 RES1   0.0000
    23 C23     18.7690  45.9464  25.3854   C.2       1 RES1   0.0000
    24 N24     19.6251  45.3039  24.6688   N.2       1 RES1   0.0000
    25 C25     20.5688  44.6948  25.4837   C.2       1 RES1   0.0000
    26 C26     20.3456  44.9353  26.8321   C.2       1 RES1   0.0000
    27 S27     18.9716  45.9156  27.0975   S.3       1 RES1   0.0000
    28 C28     14.2285  47.9532  21.1451   C.3       1 RES1   0.0000
    29 C29     12.9239  48.6545  20.7102   C.3       1 RES1   0.0000
    30 C30     13.9814  47.1792  22.4448   C.3       1 RES1   0.0000
@<TRIPOS>BOND
     1     1     2    1
     2     2     3    1
     3     2     4    1
     4     4     5    1
     5     5     6    1
     6     6     7    2
     7     6     8   am
     8     9     8    1
     9     9    10    1
    10    10    11    2
    11    10    12   am
    12    12    13    1
    13    13    14    1
    14    14    15    1
    15    15    16    1
    16    16    17    1
    17    17    18    1
    18    18    19    1
    19    18    20    2
    20    13    21    1
    21    21    22    1
    22    21    23    1
    23    23    24    2
    24    24    25    1
    25    25    26    2
    26    26    27    1
    27     9    28    1
    28    28    29    1
    29    28    30    1
    30    27    23    1
@<TRIPOS>SUBSTRUCTURE
     1 RES1        1 GROUP             0 ****  ****    0  
@<TRIPOS>MOLECULE
ligand_35
    30    30     1     0     0
SMALL
USER_CHARGES
****
Generated from the CSD

@<TRIPOS>ATOM
     1 C1      18.3237  52.5358  16.7917   C.3       1 RES1   0.0000
     2 C2      17.3811  53.4912  17.5278   C.3       1 RES1   0.0000
     3 C3      18.1563  54.7884  17.8211   C.3       1 RES1   0.0000
     4 C4      16.8895  52.7867  18.8181   C.3       1 RES1   0.0000
     5 C5      15.9620  51.5727  18.5856   C.3       1 RES1   0.0000
     6 C6      15.5450  50.9645  19.9303   C.2       1 RES1   0.0000
     7 O7      15.0062  51.6748  20.7974   O.2       1 RES1   0.0000
     8 N8      15.7839  49.6467  20.1035   N.am      1 RES1   0.0000
     9 C9      15.4371  48.9039  21.3289   C.3       1 RES1   0.0000
    10 C10     16.6630  48.1691  21.8676   C.2       1 RES1   0.0000
    11 O11     16.9629  48.1931  23.0658   O.2       1 RES1   0.0000
    12 N12     17.3690  47.5135  20.9562   N.am      1 RES1   0.0000
    13 C13     18.5771  46.7700  21.2126   C.3       1 RES1   0.0000
    14 C14     18.3756  45.3721  20.5927   C.3       1 RES1   0.0000
    15 C15     17.0951  44.7153  21.1350   C.3       1 RES1   0.0000
    16 C16     16.8818  43.3298  20.5300   C.3       1 RES1   0.0000
    17 N17     15.6488  42.7680  21.0907   N.2       1 RES1   0.0000
    18 C18     15.5227  42.1336  22.2704   C.2       1 RES1   0.0000
    19 N19     14.3193  41.6781  22.6412   N.pl3     1 RES1   0.0000
    20 N20     16.5870  41.9592  23.0692   N.pl3     1 RES1   1.0000
    21 C21     19.7856  47.5012  20.5915   C.3       1 RES1   0.0000
    22 O22     19.7518  47.2786  19.1927   O.3       1 RES1   0.0000
    23 C23     21.1440  46.9957  21.1097   C.2       1 RES1   0.0000
    24 N24     22.1384  47.8130  21.1627   N.2       1 RES1   0.0000
    25 C25     23.2633  47.1653  21.6533   C.2       1 RES1   0.0000
    26 C26     23.0241  45.8317  21.9531   C.2       1 RES1   0.0000
    27 S27     21.4096  45.3740  21.6323   S.3       1 RES1   0.0000
    28 C28     14.2494  47.9414  21.0813   C.3       1 RES1   0.0000
    29 C29     12.9441  48.6371  20.6395   C.3       1 RES1   0.0000
    30 C30     13.9840  47.1170  22.3459   C.3       1 RES1   0.0000
@<TRIPOS>BOND
     1     1     2    1
     2     2     3    1
     3     2     4    1
     4     4     5    1
     5     5     6    1
     6     6     7    2
     7     6     8   am
     8     9     8    1
     9     9    10    1
    10    10    11    2
    11    10    12   am
    12    12    13    1
    13    13    14    1
    14    14    15    1
    15    15    16    1
    16    16    17    1
    17    17    18    1
    18    18    19    1
    19    18    20    2
    20    13    21    1
    21    21    22    1
    22    21    23    1
    23    23    24    2
    24    24    25    1
    25    25    26    2
    26    26    27    1
    27     9    28    1
    28    28    29    1
    29    28    30    1
    30    27    23    1
@<TRIPOS>SUBSTRUCTURE
     1 RES1        1 GROUP             0 ****  ****    0  
@<TRIPOS>MOLECULE
ligand_36
    30    30     1     0     0
SMALL
USER_CHARGES
****
Generated from the CSD

@<TRIPOS>ATOM
     1 C1      18.2638  52.2961  16.5736   C.3       1 RES1   0.0000
     2 C2      17.3428  53.2923  17.2825   C.3       1 RES1   0.0000
     3 C3      18.1334  54.5950  17.5010   C.3       1 RES1   0.0000
     4 C4      16.8706  52.6521  18.6129   C.3       1 RES1   0.0000
     5 C5      15.9295  51.4367  18.4541   C.3       1 RES1   0.0000
     6 C6      15.5338  50.8945  19.8330   C.2       1 RES1   0.0000
     7 O7      15.9682  51.4349  20.8654   O.2       1 RES1   0.0000
     8 N8      14.7010  49.8316  19.8540   N.am      1 RES1   0.0000
     9 C9      14.2147  49.1944  21.0913   C.3       1 RES1   0.0000
    10 C10     15.3685  48.5138  21.8253   C.2       1 RES1   0.0000
    11 O11     15.4997  48.5954  23.0510   O.2       1 RES1   0.0000
    12 N12     16.2059  47.8387  21.0494   N.am      1 RES1   0.0000
    13 C13     17.3736  47.1259  21.5037   C.3       1 RES1   0.0000
    14 C14     17.0436  45.6230  21.3962   C.3       1 RES1   0.0000
    15 C15     15.7504  45.2934  22.1604   C.3       1 RES1   0.0000
    16 C16     15.4139  43.8070  22.0688   C.3       1 RES1   0.0000
    17 N17     14.1754  43.5688  22.8169   N.2       1 RES1   0.0000
    18 C18     14.0659  43.3825  24.1448   C.2       1 RES1   0.0000
    19 N19     12.8546  43.1775  24.6774   N.pl3     1 RES1   0.0000
    20 N20     15.1546  43.4030  24.9293   N.pl3     1 RES1   1.0000
    21 C21     18.5917  47.5065  20.6363   C.3       1 RES1   0.0000
    22 O22     18.4624  46.8371  19.3942   O.3       1 RES1   0.0000
    23 C23     19.9398  47.0893  21.2509   C.2       1 RES1   0.0000
    24 N24     20.9888  47.7928  20.9976   N.2       1 RES1   0.0000
    25 C25     22.0932  47.2522  21.6409   C.2       1 RES1   0.0000
    26 C26     21.7813  46.1168  22.3752   C.2       1 RES1   0.0000
    27 S27     20.1238  45.7146  22.2755   S.3       1 RES1   0.0000
    28 C28     13.0576  48.2088  20.7945   C.3       1 RES1   0.0000
    29 C29     11.8269  48.8522  20.1204   C.3       1 RES1   0.0000
    30 C30     12.6242  47.5194  22.0931   C.3       1 RES1   0.0000
@<TRIPOS>BOND
     1     1     2    1
     2     2     3    1
     3     2     4    1
     4     4     5    1
     5     5     6    1
     6     6     7    2
     7     6     8   am
     8     9     8    1
     9     9    10    1
    10    10    11    2
    11    10    12   am
    12    12    13    1
    13    13    14    1
    14    14    15    1
    15    15    16    1
    16    16    17    1
    17    17    18    1
    18    18    19    1
    19    18    20    2
    20    13    21    1
    21    21    22    1
    22    21    23    1
    23    23    24    2
    24    24    25    1
    25    25    26    2
    26    26    27    1
    27     9    28    1
    28    28    29    1
    29    28    30    1
    30    27    23    1
@<TRIPOS>SUBSTRUCTURE
     1 RES1        1 GROUP             0 ****  ****    0  
@<TRIPOS>MOLECULE
ligand_37
    30    30     1     0     0
SMALL
USER_CHARGES
****
Generated from the CSD

@<TRIPOS>ATOM
     1 C1      18.2339  52.3190  16.5636   C.3       1 RES1   0.0000
     2 C2      17.3138  53.3108  17.2798   C.3       1 RES1   0.0000
     3 C3      18.1025  54.6145  17.4991   C.3       1 RES1   0.0000
     4 C4      16.8490  52.6652  18.6102   C.3       1 RES1   0.0000
     5 C5      15.9099  51.4483  18.4515   C.3       1 RES1   0.0000
     6 C6      15.5215  50.9007  19.8304   C.2       1 RES1   0.0000
     7 O7      16.4032  50.5775  20.6457   O.2       1 RES1   0.0000
     8 N8      14.2013  50.8043  20.0982   N.am      1 RES1   0.0000
     9 C9      13.6572  50.3094  21.3759   C.3       1 RES1   0.0000
    10 C10     13.9679  48.8233  21.5438   C.2       1 RES1   0.0000
    11 O11     14.3486  48.3549  22.6217   O.2       1 RES1   0.0000
    12 N12     13.7986  48.0885  20.4528   N.am      1 RES1   0.0000
    13 C13     14.0401  46.6707  20.3559   C.3       1 RES1   0.0000
    14 C14     12.6577  45.9917  20.2717   C.3       1 RES1   0.0000
    15 C15     11.7725  46.4098  21.4577   C.3       1 RES1   0.0000
    16 C16     10.4023  45.7396  21.3921   C.3       1 RES1   0.0000
    17 N17      9.7037  46.2363  20.2022   N.2       1 RES1   0.0000
    18 C18      9.0073  47.3832  20.1037   C.2       1 RES1   0.0000
    19 N19      8.4260  47.6956  18.9386   N.pl3     1 RES1   0.0000
    20 N20      8.8960  48.2071  21.1572   N.pl3     1 RES1   1.0000
    21 C21     14.9015  46.3684  19.1119   C.3       1 RES1   0.0000
    22 O22     14.1237  46.6673  17.9660   O.3       1 RES1   0.0000
    23 C23     15.3363  44.8955  19.0071   C.2       1 RES1   0.0000
    24 N24     16.1550  44.4198  19.8805   N.2       1 RES1   0.0000
    25 C25     16.4195  43.0848  19.6098   C.2       1 RES1   0.0000
    26 C26     15.7434  42.6223  18.4896   C.2       1 RES1   0.0000
    27 S27     14.7776  43.8334  17.7689   S.3       1 RES1   0.0000
    28 C28     12.1396  50.5981  21.4859   C.3       1 RES1   0.0000
    29 C29     11.7655  52.0934  21.4019   C.3       1 RES1   0.0000
    30 C30     11.5985  50.0108  22.7942   C.3       1 RES1   0.0000
@<TRIPOS>BOND
     1     1     2    1
     2     2     3    1
     3     2     4    1
     4     4     5    1
     5     5     6    1
     6     6     7    2
     7     6     8   am
     8     9     8    1
     9     9    10    1
    10    10    11    2
    11    10    12   am
    12    12    13    1
    13    13    14    1
    14    14    15    1
    15    15    16    1
    16    16    17    1
    17    17    18    1
    18    18    19    1
    19    18    20    2
    20    13    21    1
    21    21    22    1
    22    21    23    1
    23    23    24    2
    24    24    25    1
    25    25    26    2
    26    26    27    1
    27     9    28    1
    28    28    29    1
    29    28    30    1
    30    27    23    1
@<TRIPOS>SUBSTRUCTURE
     1 RES1        1 GROUP             0 ****  ****    0  
@<TRIPOS>MOLECULE
ligand_38
    30    30     1     0     0
SMALL
USER_CHARGES
****
Generated from the CSD

@<TRIPOS>ATOM
     1 C1      18.2284  52.3171  16.5576   C.3       1 RES1   0.0000
     2 C2      17.3094  53.3093  17.2747   C.3       1 RES1   0.0000
     3 C3      18.0985  54.6129  17.4927   C.3       1 RES1   0.0000
     4 C4      16.8460  52.6641  18.6058   C.3       1 RES1   0.0000
     5 C5      15.9065  51.4472  18.4485   C.3       1 RES1   0.0000
     6 C6      15.5197  50.9000  19.8280   C.2       1 RES1   0.0000
     7 O7      16.4023  50.5769  20.6424   O.2       1 RES1   0.0000
     8 N8      14.1998  50.8039  20.0974   N.am      1 RES1   0.0000
     9 C9      13.6572  50.3094  21.3759   C.3       1 RES1   0.0000
    10 C10     13.9679  48.8233  21.5438   C.2       1 RES1   0.0000
    11 O11     14.3486  48.3549  22.6217   O.2       1 RES1   0.0000
    12 N12     13.7986  48.0885  20.4528   N.am      1 RES1   0.0000
    13 C13     14.0408  46.6708  20.3557   C.3       1 RES1   0.0000
    14 C14     12.6588  45.9912  20.2707   C.3       1 RES1   0.0000
    15 C15     11.7735  46.4072  21.4573   C.3       1 RES1   0.0000
    16 C16     10.3920  45.7626  21.3731   C.3       1 RES1   0.0000
    17 N17     10.5499  44.3137  21.5346   N.2       1 RES1   0.0000
    18 C18     10.7896  43.4210  20.5569   C.2       1 RES1   0.0000
    19 N19     10.9499  42.1306  20.8763   N.pl3     1 RES1   0.0000
    20 N20     10.8695  43.8155  19.2766   N.pl3     1 RES1   1.0000
    21 C21     14.9029  46.3692  19.1120   C.3       1 RES1   0.0000
    22 O22     14.1256  46.6683  17.9658   O.3       1 RES1   0.0000
    23 C23     15.3383  44.8965  19.0069   C.2       1 RES1   0.0000
    24 N24     16.1566  44.4207  19.8805   N.2       1 RES1   0.0000
    25 C25     16.4217  43.0859  19.6094   C.2       1 RES1   0.0000
    26 C26     15.7463  42.6237  18.4888   C.2       1 RES1   0.0000
    27 S27     14.7804  43.8347  17.7680   S.3       1 RES1   0.0000
    28 C28     12.1397  50.5983  21.4876   C.3       1 RES1   0.0000
    29 C29     11.7655  52.0933  21.4000   C.3       1 RES1   0.0000
    30 C30     11.6009  50.0148  22.7985   C.3       1 RES1   0.0000
@<TRIPOS>BOND
     1     1     2    1
     2     2     3    1
     3     2     4    1
     4     4     5    1
     5     5     6    1
     6     6     7    2
     7     6     8   am
     8     9     8    1
     9     9    10    1
    10    10    11    2
    11    10    12   am
    12    12    13    1
    13    13    14    1
    14    14    15    1
    15    15    16    1
    16    16    17    1
    17    17    18    1
    18    18    19    1
    19    18    20    2
    20    13    21    1
    21    21    22    1
    22    21    23    1
    23    23    24    2
    24    24    25    1
    25    25    26    2
    26    26    27    1
    27     9    28    1
    28    28    29    1
    29    28    30    1
    30    27    23    1
@<TRIPOS>SUBSTRUCTURE
     1 RES1        1 GROUP             0 ****  ****    0  
@<TRIPOS>MOLECULE
ligand_39
    30    30     1     0     0
SMALL
USER_CHARGES
****
Generated from the CSD

@<TRIPOS>ATOM
     1 C1      18.3060  52.6099  16.8550   C.3       1 RES1   0.0000
     2 C2      17.2807  53.5380  17.5111   C.3       1 RES1   0.0000
     3 C3      17.9710  54.8861  17.7870   C.3       1 RES1   0.0000
     4 C4      16.7690  52.8553  18.8053   C.3       1 RES1   0.0000
     5 C5      15.9196  51.5842  18.5801   C.3       1 RES1   0.0000
     6 C6      15.4747  51.0036  19.9281   C.2       1 RES1   0.0000
     7 O7      15.8086  51.5599  20.9891   O.2       1 RES1   0.0000
     8 N8      14.7122  49.8896  19.8902   N.am      1 RES1   0.0000
     9 C9      14.2147  49.1944  21.0913   C.3       1 RES1   0.0000
    10 C10     15.3685  48.5138  21.8253   C.2       1 RES1   0.0000
    11 O11     16.1034  47.6936  21.2655   O.2       1 RES1   0.0000
    12 N12     15.5135  48.8701  23.0945   N.am      1 RES1   0.0000
    13 C13     16.5160  48.3589  23.9954   C.3       1 RES1   0.0000
    14 C14     17.5888  49.4586  24.1327   C.3       1 RES1   0.0000
    15 C15     18.1638  49.8332  22.7565   C.3       1 RES1   0.0000
    16 C16     19.2207  50.9287  22.8750   C.3       1 RES1   0.0000
    17 N17     19.7213  51.2323  21.5305   N.2       1 RES1   0.0000
    18 C18     20.6752  50.5599  20.8611   C.2       1 RES1   0.0000
    19 N19     21.0198  50.9660  19.6326   N.pl3     1 RES1   0.0000
    20 N20     21.2747  49.4939  21.4138   N.pl3     1 RES1   1.0000
    21 C21     15.8736  48.0149  25.3555   C.3       1 RES1   0.0000
    22 O22     16.9178  47.6836  26.2540   O.3       1 RES1   0.0000
    23 C23     14.9127  46.8139  25.2965   C.2       1 RES1   0.0000
    24 N24     13.8060  46.9276  24.6473   N.2       1 RES1   0.0000
    25 C25     13.0876  45.7424  24.7164   C.2       1 RES1   0.0000
    26 C26     13.7403  44.7641  25.4531   C.2       1 RES1   0.0000
    27 S27     15.2432  45.3037  26.0606   S.3       1 RES1   0.0000
    28 C28     13.0889  48.1937  20.7314   C.3       1 RES1   0.0000
    29 C29     11.8494  48.8359  20.0724   C.3       1 RES1   0.0000
    30 C30     12.6586  47.4305  21.9891   C.3       1 RES1   0.0000
@<TRIPOS>BOND
     1     1     2    1
     2     2     3    1
     3     2     4    1
     4     4     5    1
     5     5     6    1
     6     6     7    2
     7     6     8   am
     8     9     8    1
     9     9    10    1
    10    10    11    2
    11    10    12   am
    12    12    13    1
    13    13    14    1
    14    14    15    1
    15    15    16    1
    16    16    17    1
    17    17    18    1
    18    18    19    1
    19    18    20    2
    20    13    21    1
    21    21    22    1
    22    21    23    1
    23    23    24    2
    24    24    25    1
    25    25    26    2
    26    26    27    1
    27     9    28    1
    28    28    29    1
    29    28    30    1
    30    27    23    1
@<TRIPOS>SUBSTRUCTURE
     1 RES1        1 GROUP             0 ****  ****    0  
@<TRIPOS>MOLECULE
ligand_40
    30    30     1     0     0
SMALL
USER_CHARGES
****
Generated from the CSD

@<TRIPOS>ATOM
     1 C1      18.2642  52.2449  16.5414   C.3       1 RES1   0.0000
     2 C2      17.3345  53.2481  17.2287   C.3       1 RES1   0.0000
     3 C3      18.1172  54.5584  17.4289   C.3       1 RES1   0.0000
     4 C4      16.8590  52.6281  18.5675   C.3       1 RES1   0.0000
     5 C5      15.9251  51.4052  18.4247   C.3       1 RES1   0.0000
     6 C6      15.5253  50.8844  19.8107   C.2       1 RES1   0.0000
     7 O7      15.9518  51.4445  20.8359   O.2       1 RES1   0.0000
     8 N8      14.6980  49.8176  19.8457   N.am      1 RES1   0.0000
     9 C9      14.2147  49.1944  21.0913   C.3       1 RES1   0.0000
    10 C10     15.3685  48.5138  21.8253   C.2       1 RES1   0.0000
    11 O11     16.1034  47.6936  21.2655   O.2       1 RES1   0.0000
    12 N12     15.5135  48.8701  23.0945   N.am      1 RES1   0.0000
    13 C13     16.5129  48.3553  23.9968   C.3       1 RES1   0.0000
    14 C14     17.1980  49.5776  24.6413   C.3       1 RES1   0.0000
    15 C15     17.7496  50.5246  23.5624   C.3       1 RES1   0.0000
    16 C16     18.4358  51.7378  24.1856   C.3       1 RES1   0.0000
    17 N17     18.9341  52.5913  23.1022   N.2       1 RES1   0.0000
    18 C18     20.0907  52.4398  22.4319   C.2       1 RES1   0.0000
    19 N19     20.4016  53.3091  21.4620   N.pl3     1 RES1   0.0000
    20 N20     20.9242  51.4303  22.7275   N.pl3     1 RES1   1.0000
    21 C21     15.8488  47.4492  25.0545   C.3       1 RES1   0.0000
    22 O22     15.0301  48.2682  25.8709   O.3       1 RES1   0.0000
    23 C23     16.8561  46.7357  25.9741   C.2       1 RES1   0.0000
    24 N24     16.7681  46.9015  27.2485   N.2       1 RES1   0.0000
    25 C25     17.7619  46.1792  27.8938   C.2       1 RES1   0.0000
    26 C26     18.5734  45.4804  27.0113   C.2       1 RES1   0.0000
    27 S27     18.1107  45.7111  25.3829   S.3       1 RES1   0.0000
    28 C28     13.0504  48.2129  20.8096   C.3       1 RES1   0.0000
    29 C29     11.8077  48.8633  20.1650   C.3       1 RES1   0.0000
    30 C30     12.6416  47.5138  22.1110   C.3       1 RES1   0.0000
@<TRIPOS>BOND
     1     1     2    1
     2     2     3    1
     3     2     4    1
     4     4     5    1
     5     5     6    1
     6     6     7    2
     7     6     8   am
     8     9     8    1
     9     9    10    1
    10    10    11    2
    11    10    12   am
    12    12    13    1
    13    13    14    1
    14    14    15    1
    15    15    16    1
    16    16    17    1
    17    17    18    1
    18    18    19    1
    19    18    20    2
    20    13    21    1
    21    21    22    1
    22    21    23    1
    23    23    24    2
    24    24    25    1
    25    25    26    2
    26    26    27    1
    27     9    28    1
    28    28    29    1
    29    28    30    1
    30    27    23    1
@<TRIPOS>SUBSTRUCTURE
     1 RES1        1 GROUP             0 ****  ****    0  
@<TRIPOS>MOLECULE
ligand_41
    30    30     1     0     0
SMALL
USER_CHARGES
****
Generated from the CSD

@<TRIPOS>ATOM
     1 C1      18.2670  52.3300  16.6000   C.3       1 RES1   0.0000
     2 C2      17.3410  53.3200  17.3110   C.3       1 RES1   0.0000
     3 C3      18.1270  54.6240  17.5380   C.3       1 RES1   0.0000
     4 C4      16.8670  52.6720  18.6370   C.3       1 RES1   0.0000
     5 C5      15.9301  51.4545  18.4697   C.3       1 RES1   0.0000
     6 C6      15.5321  50.9045  19.8449   C.2       1 RES1   0.0000
     7 O7      15.0108  51.6528  20.6905   O.2       1 RES1   0.0000
     8 N8      15.7676  49.5937  20.0685   N.am      1 RES1   0.0000
     9 C9      15.4371  48.9039  21.3289   C.3       1 RES1   0.0000
    10 C10     16.3165  49.4248  22.4640   C.2       1 RES1   0.0000
    11 O11     17.5491  49.4362  22.3808   O.2       1 RES1   0.0000
    12 N12     15.6575  49.8567  23.5307   N.am      1 RES1   0.0000
    13 C13     16.2621  50.3915  24.7251   C.3       1 RES1   0.0000
    14 C14     15.3360  51.5205  25.2218   C.3       1 RES1   0.0000
    15 C15     15.0987  52.5581  24.1117   C.3       1 RES1   0.0000
    16 C16     14.1831  53.6829  24.5886   C.3       1 RES1   0.0000
    17 N17     14.0031  54.6294  23.4831   N.2       1 RES1   0.0000
    18 C18     14.8386  55.6262  23.1391   C.2       1 RES1   0.0000
    19 N19     14.5292  56.4065  22.0959   N.pl3     1 RES1   0.0000
    20 N20     15.9700  55.8378  23.8294   N.pl3     1 RES1   1.0000
    21 C21     16.4183  49.2757  25.7795   C.3       1 RES1   0.0000
    22 O22     15.1195  48.8858  26.1901   O.3       1 RES1   0.0000
    23 C23     17.1892  49.7192  27.0358   C.2       1 RES1   0.0000
    24 N24     18.4398  50.0106  26.9337   N.2       1 RES1   0.0000
    25 C25     18.9461  50.3828  28.1709   C.2       1 RES1   0.0000
    26 C26     17.9879  50.3445  29.1740   C.2       1 RES1   0.0000
    27 S27     16.4591  49.8510  28.5924   S.3       1 RES1   0.0000
    28 C28     15.5486  47.3674  21.1706   C.3       1 RES1   0.0000
    29 C29     14.6001  46.7632  20.1131   C.3       1 RES1   0.0000
    30 C30     15.2985  46.6921  22.5237   C.3       1 RES1   0.0000
@<TRIPOS>BOND
     1     1     2    1
     2     2     3    1
     3     2     4    1
     4     4     5    1
     5     5     6    1
     6     6     7    2
     7     6     8   am
     8     9     8    1
     9     9    10    1
    10    10    11    2
    11    10    12   am
    12    12    13    1
    13    13    14    1
    14    14    15    1
    15    15    16    1
    16    16    17    1
    17    17    18    1
    18    18    19    1
    19    18    20    2
    20    13    21    1
    21    21    22    1
    22    21    23    1
    23    23    24    2
    24    24    25    1
    25    25    26    2
    26    26    27    1
    27     9    28    1
    28    28    29    1
    29    28    30    1
    30    27    23    1
@<TRIPOS>SUBSTRUCTURE
     1 RES1        1 GROUP             0 ****  ****    0  
@<TRIPOS>MOLECULE
ligand_42
    30    30     1     0     0
SMALL
USER_CHARGES
****
Generated from the CSD

@<TRIPOS>ATOM
     1 C1      18.4819  52.3285  16.8026   C.3       1 RES1   0.0000
     2 C2      17.5447  53.3229  17.4924   C.3       1 RES1   0.0000
     3 C3      18.3411  54.6111  17.7679   C.3       1 RES1   0.0000
     4 C4      17.0108  52.6639  18.7899   C.3       1 RES1   0.0000
     5 C5      16.0626  51.4638  18.5696   C.3       1 RES1   0.0000
     6 C6      15.6043  50.9009  19.9206   C.2       1 RES1   0.0000
     7 O7      16.0026  51.4163  20.9801   O.2       1 RES1   0.0000
     8 N8      14.7588  49.8484  19.8873   N.am      1 RES1   0.0000
     9 C9      14.2147  49.1944  21.0913   C.3       1 RES1   0.0000
    10 C10     14.4889  47.6924  21.0478   C.2       1 RES1   0.0000
    11 O11     14.9213  47.0802  22.0299   O.2       1 RES1   0.0000
    12 N12     14.2293  47.1086  19.8857   N.am      1 RES1   0.0000
    13 C13     14.4022  45.7064  19.5992   C.3       1 RES1   0.0000
    14 C14     13.0553  45.1993  19.0446   C.3       1 RES1   0.0000
    15 C15     11.9113  45.5102  20.0241   C.3       1 RES1   0.0000
    16 C16     10.5704  45.0139  19.4886   C.3       1 RES1   0.0000
    17 N17      9.5324  45.3436  20.4705   N.2       1 RES1   0.0000
    18 C18      9.2140  44.6328  21.5676   C.2       1 RES1   0.0000
    19 N19      8.2360  45.0729  22.3693   N.pl3     1 RES1   0.0000
    20 N20      9.8675  43.4973  21.8590   N.pl3     1 RES1   1.0000
    21 C21     15.5468  45.5154  18.5822   C.3       1 RES1   0.0000
    22 O22     15.7718  44.1235  18.4428   O.3       1 RES1   0.0000
    23 C23     16.8744  46.1591  19.0210   C.2       1 RES1   0.0000
    24 N24     17.9070  45.4091  19.1961   N.2       1 RES1   0.0000
    25 C25     18.9940  46.1771  19.5889   C.2       1 RES1   0.0000
    26 C26     18.6872  47.5270  19.6868   C.2       1 RES1   0.0000
    27 S27     17.0570  47.8522  19.2922   S.3       1 RES1   0.0000
    28 C28     12.7062  49.5014  21.2603   C.3       1 RES1   0.0000
    29 C29     12.3728  51.0000  21.4207   C.3       1 RES1   0.0000
    30 C30     12.1557  48.7260  22.4624   C.3       1 RES1   0.0000
@<TRIPOS>BOND
     1     1     2    1
     2     2     3    1
     3     2     4    1
     4     4     5    1
     5     5     6    1
     6     6     7    2
     7     6     8   am
     8     9     8    1
     9     9    10    1
    10    10    11    2
    11    10    12   am
    12    12    13    1
    13    13    14    1
    14    14    15    1
    15    15    16    1
    16    16    17    1
    17    17    18    1
    18    18    19    1
    19    18    20    2
    20    13    21    1
    21    21    22    1
    22    21    23    1
    23    23    24    2
    24    24    25    1
    25    25    26    2
    26    26    27    1
    27     9    28    1
    28    28    29    1
    29    28    30    1
    30    27    23    1
@<TRIPOS>SUBSTRUCTURE
     1 RES1        1 GROUP             0 ****  ****    0  
@<TRIPOS>MOLECULE
ligand_43
    30    30     1     0     0
SMALL
USER_CHARGES
****
Generated from the CSD

@<TRIPOS>ATOM
     1 C1      18.4511  52.1106  16.6944   C.3       1 RES1   0.0000
     2 C2      17.5246  53.1374  17.3505   C.3       1 RES1   0.0000
     3 C3      18.3302  54.4310  17.5680   C.3       1 RES1   0.0000
     4 C4      16.9971  52.5343  18.6775   C.3       1 RES1   0.0000
     5 C5      16.0407  51.3317  18.5128   C.3       1 RES1   0.0000
     6 C6      15.5898  50.8263  19.8888   C.2       1 RES1   0.0000
     7 O7      16.4335  50.5071  20.7448   O.2       1 RES1   0.0000
     8 N8      14.2588  50.7617  20.1082   N.am      1 RES1   0.0000
     9 C9      13.6572  50.3094  21.3759   C.3       1 RES1   0.0000
    10 C10     12.6510  49.1902  21.1150   C.2       1 RES1   0.0000
    11 O11     12.6285  48.1616  21.7990   O.2       1 RES1   0.0000
    12 N12     11.8165  49.4101  20.1080   N.am      1 RES1   0.0000
    13 C13     10.7997  48.4957  19.6519   C.3       1 RES1   0.0000
    14 C14      9.5740  49.3514  19.2719   C.3       1 RES1   0.0000
    15 C15      9.1446  50.2411  20.4505   C.3       1 RES1   0.0000
    16 C16      7.9314  51.0948  20.0894   C.3       1 RES1   0.0000
    17 N17      7.5810  51.9125  21.2551   N.2       1 RES1   0.0000
    18 C18      6.8380  51.5273  22.3086   C.2       1 RES1   0.0000
    19 N19      6.6092  52.3985  23.2993   N.pl3     1 RES1   0.0000
    20 N20      6.3323  50.2857  22.3699   N.pl3     1 RES1   1.0000
    21 C21     11.3245  47.6841  18.4490   C.3       1 RES1   0.0000
    22 O22     10.3777  46.6681  18.1684   O.3       1 RES1   0.0000
    23 C23     12.6774  46.9986  18.7118   C.2       1 RES1   0.0000
    24 N24     13.7355  47.7240  18.8293   N.2       1 RES1   0.0000
    25 C25     14.8426  46.9199  19.0600   C.2       1 RES1   0.0000
    26 C26     14.5232  45.5701  19.1034   C.2       1 RES1   0.0000
    27 S27     12.8552  45.2900  18.8619   S.3       1 RES1   0.0000
    28 C28     13.0184  51.4926  22.1445   C.3       1 RES1   0.0000
    29 C29     14.0089  52.6102  22.5352   C.3       1 RES1   0.0000
    30 C30     12.3188  50.9693  23.4038   C.3       1 RES1   0.0000
@<TRIPOS>BOND
     1     1     2    1
     2     2     3    1
     3     2     4    1
     4     4     5    1
     5     5     6    1
     6     6     7    2
     7     6     8   am
     8     9     8    1
     9     9    10    1
    10    10    11    2
    11    10    12   am
    12    12    13    1
    13    13    14    1
    14    14    15    1
    15    15    16    1
    16    16    17    1
    17    17    18    1
    18    18    19    1
    19    18    20    2
    20    13    21    1
    21    21    22    1
    22    21    23    1
    23    23    24    2
    24    24    25    1
    25    25    26    2
    26    26    27    1
    27     9    28    1
    28    28    29    1
    29    28    30    1
    30    27    23    1
@<TRIPOS>SUBSTRUCTURE
     1 RES1        1 GROUP             0 ****  ****    0  
@<TRIPOS>MOLECULE
ligand_44
    30    30     1     0     0
SMALL
USER_CHARGES
****
Generated from the CSD

@<TRIPOS>ATOM
     1 C1      18.3539  52.2580  16.6013   C.3       1 RES1   0.0000
     2 C2      17.5480  53.2949  17.3877   C.3       1 RES1   0.0000
     3 C3      18.4531  54.5173  17.6249   C.3       1 RES1   0.0000
     4 C4      17.0753  52.6385  18.7100   C.3       1 RES1   0.0000
     5 C5      16.0299  51.5128  18.5421   C.3       1 RES1   0.0000
     6 C6      15.6435  50.9455  19.9136   C.2       1 RES1   0.0000
     7 O7      15.2250  51.7020  20.8076   O.2       1 RES1   0.0000
     8 N8      15.7733  49.6116  20.0800   N.am      1 RES1   0.0000
     9 C9      15.4371  48.9039  21.3289   C.3       1 RES1   0.0000
    10 C10     16.6630  48.1691  21.8676   C.2       1 RES1   0.0000
    11 O11     16.6935  47.7041  23.0118   O.2       1 RES1   0.0000
    12 N12     17.6773  48.0736  21.0185   N.am      1 RES1   0.0000
    13 C13     18.9344  47.4222  21.2901   C.3       1 RES1   0.0000
    14 C14     19.1865  46.4447  20.1240   C.3       1 RES1   0.0000
    15 C15     17.9982  45.4837  19.9524   C.3       1 RES1   0.0000
    16 C16     18.2331  44.5090  18.8009   C.3       1 RES1   0.0000
    17 N17     17.0649  43.6287  18.6978   N.2       1 RES1   0.0000
    18 C18     16.8325  42.5193  19.4226   C.2       1 RES1   0.0000
    19 N19     15.7097  41.8223  19.2072   N.pl3     1 RES1   0.0000
    20 N20     17.7118  42.1142  20.3520   N.pl3     1 RES1   1.0000
    21 C21     20.0569  48.4745  21.4059   C.3       1 RES1   0.0000
    22 O22     20.2349  49.0575  20.1268   O.3       1 RES1   0.0000
    23 C23     21.4109  47.8853  21.8404   C.2       1 RES1   0.0000
    24 N24     21.5316  47.4003  23.0277   N.2       1 RES1   0.0000
    25 C25     22.8206  46.9241  23.2204   C.2       1 RES1   0.0000
    26 C26     23.6253  47.0922  22.1023   C.2       1 RES1   0.0000
    27 S27     22.7924  47.8366  20.8095   S.3       1 RES1   0.0000
    28 C28     14.2353  47.9489  21.1236   C.3       1 RES1   0.0000
    29 C29     12.9417  48.6428  20.6461   C.3       1 RES1   0.0000
    30 C30     13.9548  47.1892  22.4249   C.3       1 RES1   0.0000
@<TRIPOS>BOND
     1     1     2    1
     2     2     3    1
     3     2     4    1
     4     4     5    1
     5     5     6    1
     6     6     7    2
     7     6     8   am
     8     9     8    1
     9     9    10    1
    10    10    11    2
    11    10    12   am
    12    12    13    1
    13    13    14    1
    14    14    15    1
    15    15    16    1
    16    16    17    1
    17    17    18    1
    18    18    19    1
    19    18    20    2
    20    13    21    1
    21    21    22    1
    22    21    23    1
    23    23    24    2
    24    24    25    1
    25    25    26    2
    26    26    27    1
    27     9    28    1
    28    28    29    1
    29    28    30    1
    30    27    23    1
@<TRIPOS>SUBSTRUCTURE
     1 RES1        1 GROUP             0 ****  ****    0  
@<TRIPOS>MOLECULE
ligand_45
    30    30     1     0     0
SMALL
USER_CHARGES
****
Generated from the CSD

@<TRIPOS>ATOM
     1 C1      18.3075  52.3436  16.6452   C.3       1 RES1   0.0000
     2 C2      17.3741  53.3313  17.3497   C.3       1 RES1   0.0000
     3 C3      18.1568  54.6357  17.5862   C.3       1 RES1   0.0000
     4 C4      16.8890  52.6803  18.6702   C.3       1 RES1   0.0000
     5 C5      15.9548  51.4623  18.4923   C.3       1 RES1   0.0000
     6 C6      15.5451  50.9093  19.8628   C.2       1 RES1   0.0000
     7 O7      16.4141  50.5849  20.6912   O.2       1 RES1   0.0000
     8 N8      14.2210  50.8096  20.1089   N.am      1 RES1   0.0000
     9 C9      13.6572  50.3094  21.3759   C.3       1 RES1   0.0000
    10 C10     13.9679  48.8233  21.5438   C.2       1 RES1   0.0000
    11 O11     14.3486  48.3549  22.6217   O.2       1 RES1   0.0000
    12 N12     13.7986  48.0885  20.4528   N.am      1 RES1   0.0000
    13 C13     14.0314  46.6691  20.3583   C.3       1 RES1   0.0000
    14 C14     12.7582  46.0524  19.7438   C.3       1 RES1   0.0000
    15 C15     11.5151  46.4427  20.5607   C.3       1 RES1   0.0000
    16 C16     10.2458  45.8398  19.9639   C.3       1 RES1   0.0000
    17 N17      9.1075  46.2526  20.7910   N.2       1 RES1   0.0000
    18 C18      8.6954  45.6716  21.9324   C.2       1 RES1   0.0000
    19 N19      7.6326  46.1739  22.5737   N.pl3     1 RES1   0.0000
    20 N20      9.3401  44.6031  22.4262   N.pl3     1 RES1   1.0000
    21 C21     15.2754  46.3977  19.4867   C.3       1 RES1   0.0000
    22 O22     14.9041  46.5921  18.1332   O.3       1 RES1   0.0000
    23 C23     15.8185  44.9634  19.6181   C.2       1 RES1   0.0000
    24 N24     17.0790  44.7530  19.4559   N.2       1 RES1   0.0000
    25 C25     17.3621  43.4037  19.6132   C.2       1 RES1   0.0000
    26 C26     16.2324  42.6504  19.8996   C.2       1 RES1   0.0000
    27 S27     14.8181  43.6058  19.9778   S.3       1 RES1   0.0000
    28 C28     12.1375  50.5949  21.4623   C.3       1 RES1   0.0000
    29 C29     11.7643  52.0919  21.4096   C.3       1 RES1   0.0000
    30 C30     11.5700  49.9737  22.7434   C.3       1 RES1   0.0000
@<TRIPOS>BOND
     1     1     2    1
     2     2     3    1
     3     2     4    1
     4     4     5    1
     5     5     6    1
     6     6     7    2
     7     6     8   am
     8     9     8    1
     9     9    10    1
    10    10    11    2
    11    10    12   am
    12    12    13    1
    13    13    14    1
    14    14    15    1
    15    15    16    1
    16    16    17    1
    17    17    18    1
    18    18    19    1
    19    18    20    2
    20    13    21    1
    21    21    22    1
    22    21    23    1
    23    23    24    2
    24    24    25    1
    25    25    26    2
    26    26    27    1
    27     9    28    1
    28    28    29    1
    29    28    30    1
    30    27    23    1
@<TRIPOS>SUBSTRUCTURE
     1 RES1        1 GROUP             0 ****  ****    0  
@<TRIPOS>MOLECULE
ligand_46
    30    30     1     0     0
SMALL
USER_CHARGES
****
Generated from the CSD

@<TRIPOS>ATOM
     1 C1      18.2717  52.3785  16.6387   C.3       1 RES1   0.0000
     2 C2      17.3374  53.3594  17.3514   C.3       1 RES1   0.0000
     3 C3      18.1157  54.6659  17.5902   C.3       1 RES1   0.0000
     4 C4      16.8605  52.7008  18.6711   C.3       1 RES1   0.0000
     5 C5      15.9305  51.4797  18.4919   C.3       1 RES1   0.0000
     6 C6      15.5289  50.9192  19.8617   C.2       1 RES1   0.0000
     7 O7      15.9512  51.4516  20.9033   O.2       1 RES1   0.0000
     8 N8      14.7046  49.8494  19.8648   N.am      1 RES1   0.0000
     9 C9      14.2147  49.1944  21.0913   C.3       1 RES1   0.0000
    10 C10     15.3685  48.5138  21.8253   C.2       1 RES1   0.0000
    11 O11     15.4997  48.5954  23.0510   O.2       1 RES1   0.0000
    12 N12     16.2059  47.8387  21.0494   N.am      1 RES1   0.0000
    13 C13     17.3683  47.1179  21.5048   C.3       1 RES1   0.0000
    14 C14     17.2547  45.6898  20.9333   C.3       1 RES1   0.0000
    15 C15     15.9146  45.0489  21.3315   C.3       1 RES1   0.0000
    16 C16     15.7873  43.6338  20.7726   C.3       1 RES1   0.0000
    17 N17     14.4916  43.0890  21.1906   N.2       1 RES1   0.0000
    18 C18     14.2101  42.5117  22.3728   C.2       1 RES1   0.0000
    19 N19     12.9690  42.0641  22.6015   N.pl3     1 RES1   0.0000
    20 N20     15.1583  42.3859  23.3142   N.pl3     1 RES1   1.0000
    21 C21     18.6497  47.8271  21.0190   C.3       1 RES1   0.0000
    22 O22     19.7559  47.1801  21.6234   O.3       1 RES1   0.0000
    23 C23     18.7139  49.3156  21.4056   C.2       1 RES1   0.0000
    24 N24     19.3007  50.1444  20.6130   N.2       1 RES1   0.0000
    25 C25     19.2511  51.4268  21.1409   C.2       1 RES1   0.0000
    26 C26     18.5930  51.4771  22.3616   C.2       1 RES1   0.0000
    27 S27     18.0318  49.9423  22.8600   S.3       1 RES1   0.0000
    28 C28     13.0669  48.2039  20.7753   C.3       1 RES1   0.0000
    29 C29     11.8228  48.8517  20.1308   C.3       1 RES1   0.0000
    30 C30     12.6532  47.4713  22.0565   C.3       1 RES1   0.0000
@<TRIPOS>BOND
     1     1     2    1
     2     2     3    1
     3     2     4    1
     4     4     5    1
     5     5     6    1
     6     6     7    2
     7     6     8   am
     8     9     8    1
     9     9    10    1
    10    10    11    2
    11    10    12   am
    12    12    13    1
    13    13    14    1
    14    14    15    1
    15    15    16    1
    16    16    17    1
    17    17    18    1
    18    18    19    1
    19    18    20    2
    20    13    21    1
    21    21    22    1
    22    21    23    1
    23    23    24    2
    24    24    25    1
    25    25    26    2
    26    26    27    1
    27     9    28    1
    28    28    29    1
    29    28    30    1
    30    27    23    1
@<TRIPOS>SUBSTRUCTURE
     1 RES1        1 GROUP             0 ****  ****    0  
@<TRIPOS>MOLECULE
ligand_47
    30    30     1     0     0
SMALL
USER_CHARGES
****
Generated from the CSD

@<TRIPOS>ATOM
     1 C1      18.2670  52.3300  16.6000   C.3       1 RES1   0.0000
     2 C2      17.3410  53.3200  17.3110   C.3       1 RES1   0.0000
     3 C3      18.1270  54.6240  17.5380   C.3       1 RES1   0.0000
     4 C4      16.8670  52.6720  18.6370   C.3       1 RES1   0.0000
     5 C5      15.9301  51.4545  18.4697   C.3       1 RES1   0.0000
     6 C6      15.5321  50.9045  19.8449   C.2       1 RES1   0.0000
     7 O7      15.0108  51.6528  20.6905   O.2       1 RES1   0.0000
     8 N8      15.7676  49.5937  20.0685   N.am      1 RES1   0.0000
     9 C9      15.4371  48.9039  21.3289   C.3       1 RES1   0.0000
    10 C10     16.6630  48.1691  21.8676   C.2       1 RES1   0.0000
    11 O11     17.2935  47.3608  21.1781   O.2       1 RES1   0.0000
    12 N12     16.9894  48.4653  23.1185   N.am      1 RES1   0.0000
    13 C13     18.1003  47.9045  23.8461   C.3       1 RES1   0.0000
    14 C14     19.1690  49.0124  23.9436   C.3       1 RES1   0.0000
    15 C15     19.5304  49.5448  22.5469   C.3       1 RES1   0.0000
    16 C16     20.5881  50.6430  22.6271   C.3       1 RES1   0.0000
    17 N17     20.0078  51.7898  23.3331   N.2       1 RES1   0.0000
    18 C18     19.2327  52.7504  22.7978   C.2       1 RES1   0.0000
    19 N19     18.7780  53.7352  23.5829   N.pl3     1 RES1   0.0000
    20 N20     18.9155  52.7242  21.4940   N.pl3     1 RES1   1.0000
    21 C21     17.6328  47.4378  25.2406   C.3       1 RES1   0.0000
    22 O22     17.2739  48.5900  25.9829   O.3       1 RES1   0.0000
    23 C23     18.7189  46.6919  26.0365   C.2       1 RES1   0.0000
    24 N24     19.1255  45.5435  25.6180   N.2       1 RES1   0.0000
    25 C25     20.0985  45.0416  26.4706   C.2       1 RES1   0.0000
    26 C26     20.3727  45.8949  27.5300   C.2       1 RES1   0.0000
    27 S27     19.4319  47.3200  27.4754   S.3       1 RES1   0.0000
    28 C28     14.2285  47.9532  21.1451   C.3       1 RES1   0.0000
    29 C29     12.9258  48.6534  20.7027   C.3       1 RES1   0.0000
    30 C30     13.9764  47.1851  22.4473   C.3       1 RES1   0.0000
@<TRIPOS>BOND
     1     1     2    1
     2     2     3    1
     3     2     4    1
     4     4     5    1
     5     5     6    1
     6     6     7    2
     7     6     8   am
     8     9     8    1
     9     9    10    1
    10    10    11    2
    11    10    12   am
    12    12    13    1
    13    13    14    1
    14    14    15    1
    15    15    16    1
    16    16    17    1
    17    17    18    1
    18    18    19    1
    19    18    20    2
    20    13    21    1
    21    21    22    1
    22    21    23    1
    23    23    24    2
    24    24    25    1
    25    25    26    2
    26    26    27    1
    27     9    28    1
    28    28    29    1
    29    28    30    1
    30    27    23    1
@<TRIPOS>SUBSTRUCTURE
     1 RES1        1 GROUP             0 ****  ****    0  
@<TRIPOS>MOLECULE
ligand_48
    30    30     1     0     0
SMALL
USER_CHARGES
****
Generated from the CSD

@<TRIPOS>ATOM
     1 C1      18.2670  52.3300  16.6000   C.3       1 RES1   0.0000
     2 C2      17.3410  53.3200  17.3110   C.3       1 RES1   0.0000
     3 C3      18.1270  54.6240  17.5380   C.3       1 RES1   0.0000
     4 C4      16.8670  52.6720  18.6370   C.3       1 RES1   0.0000
     5 C5      15.9301  51.4545  18.4697   C.3       1 RES1   0.0000
     6 C6      15.5321  50.9045  19.8449   C.2       1 RES1   0.0000
     7 O7      15.0108  51.6528  20.6905   O.2       1 RES1   0.0000
     8 N8      15.7676  49.5937  20.0685   N.am      1 RES1   0.0000
     9 C9      15.4371  48.9039  21.3289   C.3       1 RES1   0.0000
    10 C10     16.6630  48.1691  21.8676   C.2       1 RES1   0.0000
    11 O11     17.2935  47.3608  21.1781   O.2       1 RES1   0.0000
    12 N12     16.9894  48.4653  23.1185   N.am      1 RES1   0.0000
    13 C13     18.1003  47.9045  23.8461   C.3       1 RES1   0.0000
    14 C14     19.1689  49.0124  23.9439   C.3       1 RES1   0.0000
    15 C15     19.5319  49.5436  22.5470   C.3       1 RES1   0.0000
    16 C16     20.5653  50.6645  22.6297   C.3       1 RES1   0.0000
    17 N17     21.8201  50.0971  23.1336   N.2       1 RES1   0.0000
    18 C18     22.1767  49.9637  24.4240   C.2       1 RES1   0.0000
    19 N19     23.3468  49.3844  24.7212   N.pl3     1 RES1   0.0000
    20 N20     21.3716  50.4028  25.4039   N.pl3     1 RES1   1.0000
    21 C21     17.6328  47.4376  25.2405   C.3       1 RES1   0.0000
    22 O22     17.2755  48.5898  25.9836   O.3       1 RES1   0.0000
    23 C23     18.7182  46.6899  26.0356   C.2       1 RES1   0.0000
    24 N24     19.1232  45.5412  25.6163   N.2       1 RES1   0.0000
    25 C25     20.0959  45.0376  26.4682   C.2       1 RES1   0.0000
    26 C26     20.3716  45.8900  27.5280   C.2       1 RES1   0.0000
    27 S27     19.4326  47.3163  27.4746   S.3       1 RES1   0.0000
    28 C28     14.2285  47.9532  21.1451   C.3       1 RES1   0.0000
    29 C29     12.9255  48.6536  20.7041   C.3       1 RES1   0.0000
    30 C30     13.9774  47.1840  22.4468   C.3       1 RES1   0.0000
@<TRIPOS>BOND
     1     1     2    1
     2     2     3    1
     3     2     4    1
     4     4     5    1
     5     5     6    1
     6     6     7    2
     7     6     8   am
     8     9     8    1
     9     9    10    1
    10    10    11    2
    11    10    12   am
    12    12    13    1
    13    13    14    1
    14    14    15    1
    15    15    16    1
    16    16    17    1
    17    17    18    1
    18    18    19    1
    19    18    20    2
    20    13    21    1
    21    21    22    1
    22    21    23    1
    23    23    24    2
    24    24    25    1
    25    25    26    2
    26    26    27    1
    27     9    28    1
    28    28    29    1
    29    28    30    1
    30    27    23    1
@<TRIPOS>SUBSTRUCTURE
     1 RES1        1 GROUP             0 ****  ****    0  
@<TRIPOS>MOLECULE
ligand_49
    30    30     1     0     0
SMALL
USER_CHARGES
****
Generated from the CSD

@<TRIPOS>ATOM
     1 C1      18.6839  52.5250  17.1373   C.3       1 RES1   0.0000
     2 C2      17.6582  53.4784  17.7555   C.3       1 RES1   0.0000
     3 C3      18.3759  54.8016  18.0776   C.3       1 RES1   0.0000
     4 C4      17.0662  52.7997  19.0172   C.3       1 RES1   0.0000
     5 C5      16.1896  51.5578  18.7392   C.3       1 RES1   0.0000
     6 C6      15.6649  50.9786  20.0588   C.2       1 RES1   0.0000
     7 O7      16.4584  50.6698  20.9653   O.2       1 RES1   0.0000
     8 N8      14.3266  50.8390  20.1739   N.am      1 RES1   0.0000
     9 C9      13.6572  50.3094  21.3759   C.3       1 RES1   0.0000
    10 C10     13.9679  48.8233  21.5438   C.2       1 RES1   0.0000
    11 O11     13.7996  48.2398  22.6196   O.2       1 RES1   0.0000
    12 N12     14.4274  48.2203  20.4556   N.am      1 RES1   0.0000
    13 C13     14.8335  46.8395  20.3753   C.3       1 RES1   0.0000
    14 C14     14.0907  46.2299  19.1689   C.3       1 RES1   0.0000
    15 C15     12.5728  46.4379  19.3021   C.3       1 RES1   0.0000
    16 C16     11.8231  45.8392  18.1144   C.3       1 RES1   0.0000
    17 N17     10.3890  46.0746  18.3096   N.2       1 RES1   0.0000
    18 C18      9.5499  45.3302  19.0526   C.2       1 RES1   0.0000
    19 N19      8.2603  45.6821  19.1305   N.pl3     1 RES1   0.0000
    20 N20      9.9965  44.2490  19.7103   N.pl3     1 RES1   1.0000
    21 C21     16.3648  46.7514  20.2070   C.3       1 RES1   0.0000
    22 O22     16.6902  47.2856  18.9356   O.3       1 RES1   0.0000
    23 C23     16.9083  45.3122  20.2592   C.2       1 RES1   0.0000
    24 N24     16.8368  44.6548  21.3647   N.2       1 RES1   0.0000
    25 C25     17.3784  43.3875  21.2027   C.2       1 RES1   0.0000
    26 C26     17.8450  43.1664  19.9146   C.2       1 RES1   0.0000
    27 S27     17.6145  44.5212  18.8995   S.3       1 RES1   0.0000
    28 C28     12.1328  50.5791  21.3308   C.3       1 RES1   0.0000
    29 C29     11.7501  52.0721  21.2448   C.3       1 RES1   0.0000
    30 C30     11.4636  49.9521  22.5590   C.3       1 RES1   0.0000
@<TRIPOS>BOND
     1     1     2    1
     2     2     3    1
     3     2     4    1
     4     4     5    1
     5     5     6    1
     6     6     7    2
     7     6     8   am
     8     9     8    1
     9     9    10    1
    10    10    11    2
    11    10    12   am
    12    12    13    1
    13    13    14    1
    14    14    15    1
    15    15    16    1
    16    16    17    1
    17    17    18    1
    18    18    19    1
    19    18    20    2
    20    13    21    1
    21    21    22    1
    22    21    23    1
    23    23    24    2
    24    24    25    1
    25    25    26    2
    26    26    27    1
    27     9    28    1
    28    28    29    1
    29    28    30    1
    30    27    23    1
@<TRIPOS>SUBSTRUCTURE
     1 RES1        1 GROUP             0 ****  ****    0  
@<TRIPOS>MOLECULE
ligand_50
    30    30     1     0     0
SMALL
USER_CHARGES
****
Generated from the CSD

@<TRIPOS>ATOM
     1 C1      18.3085  52.4415  16.7084   C.3       1 RES1   0.0000
     2 C2      17.3834  53.4167  17.4408   C.3       1 RES1   0.0000
     3 C3      18.1744  54.7103  17.7068   C.3       1 RES1   0.0000
     4 C4      16.8992  52.7357  18.7465   C.3       1 RES1   0.0000
     5 C5      15.9575  51.5277  18.5417   C.3       1 RES1   0.0000
     6 C6      15.5496  50.9431  19.8996   C.2       1 RES1   0.0000
     7 O7      15.0273  51.6710  20.7621   O.2       1 RES1   0.0000
     8 N8      15.7776  49.6255  20.0892   N.am      1 RES1   0.0000
     9 C9      15.4371  48.9039  21.3289   C.3       1 RES1   0.0000
    10 C10     16.6630  48.1691  21.8676   C.2       1 RES1   0.0000
    11 O11     16.9629  48.1931  23.0658   O.2       1 RES1   0.0000
    12 N12     17.3690  47.5135  20.9562   N.am      1 RES1   0.0000
    13 C13     18.5857  46.7831  21.2098   C.3       1 RES1   0.0000
    14 C14     18.2332  45.2856  21.1002   C.3       1 RES1   0.0000
    15 C15     17.0655  44.9311  22.0361   C.3       1 RES1   0.0000
    16 C16     16.7115  43.4486  21.9465   C.3       1 RES1   0.0000
    17 N17     15.5959  43.1860  22.8614   N.2       1 RES1   0.0000
    18 C18     15.6831  42.9557  24.1840   C.2       1 RES1   0.0000
    19 N19     14.5628  42.7334  24.8830   N.pl3     1 RES1   0.0000
    20 N20     16.8759  42.9498  24.7990   N.pl3     1 RES1   1.0000
    21 C21     19.6664  47.1917  20.1869   C.3       1 RES1   0.0000
    22 O22     19.2465  46.7383  18.9119   O.3       1 RES1   0.0000
    23 C23     21.0469  46.5721  20.4690   C.2       1 RES1   0.0000
    24 N24     21.6137  45.8618  19.5560   N.2       1 RES1   0.0000
    25 C25     22.8415  45.3973  20.0058   C.2       1 RES1   0.0000
    26 C26     23.1301  45.8140  21.2976   C.2       1 RES1   0.0000
    27 S27     21.8878  46.7821  21.9597   S.3       1 RES1   0.0000
    28 C28     14.2408  47.9458  21.1069   C.3       1 RES1   0.0000
    29 C29     12.9494  48.6376  20.6205   C.3       1 RES1   0.0000
    30 C30     13.9504  47.1781  22.4013   C.3       1 RES1   0.0000
@<TRIPOS>BOND
     1     1     2    1
     2     2     3    1
     3     2     4    1
     4     4     5    1
     5     5     6    1
     6     6     7    2
     7     6     8   am
     8     9     8    1
     9     9    10    1
    10    10    11    2
    11    10    12   am
    12    12    13    1
    13    13    14    1
    14    14    15    1
    15    15    16    1
    16    16    17    1
    17    17    18    1
    18    18    19    1
    19    18    20    2
    20    13    21    1
    21    21    22    1
    22    21    23    1
    23    23    24    2
    24    24    25    1
    25    25    26    2
    26    26    27    1
    27     9    28    1
    28    28    29    1
    29    28    30    1
    30    27    23    1
@<TRIPOS>SUBSTRUCTURE
     1 RES1        1 GROUP             0 ****  ****    0  
@<TRIPOS>MOLECULE
ligand_51
    30    30     1     0     0
SMALL
USER_CHARGES
****
Generated from the CSD

@<TRIPOS>ATOM
     1 C1      18.2836  52.3434  16.6309   C.3       1 RES1   0.0000
     2 C2      17.3095  53.3237  17.2891   C.3       1 RES1   0.0000
     3 C3      18.0507  54.6559  17.5027   C.3       1 RES1   0.0000
     4 C4      16.8169  52.6967  18.6184   C.3       1 RES1   0.0000
     5 C5      15.9207  51.4480  18.4580   C.3       1 RES1   0.0000
     6 C6      15.4999  50.9224  19.8359   C.2       1 RES1   0.0000
     7 O7      15.8844  51.4985  20.8688   O.2       1 RES1   0.0000
     8 N8      14.7014  49.8335  19.8551   N.am      1 RES1   0.0000
     9 C9      14.2147  49.1944  21.0913   C.3       1 RES1   0.0000
    10 C10     15.3685  48.5138  21.8253   C.2       1 RES1   0.0000
    11 O11     16.1034  47.6936  21.2655   O.2       1 RES1   0.0000
    12 N12     15.5135  48.8701  23.0945   N.am      1 RES1   0.0000
    13 C13     16.4921  48.3317  24.0058   C.3       1 RES1   0.0000
    14 C14     17.5651  49.4231  24.1972   C.3       1 RES1   0.0000
    15 C15     18.1613  49.8440  22.8436   C.3       1 RES1   0.0000
    16 C16     19.2218  50.9287  23.0164   C.3       1 RES1   0.0000
    17 N17     19.7428  51.2780  21.6908   N.2       1 RES1   0.0000
    18 C18     20.7027  50.6249  21.0109   C.2       1 RES1   0.0000
    19 N19     21.0666  51.0733  19.8028   N.pl3     1 RES1   0.0000
    20 N20     21.2890  49.5364  21.5328   N.pl3     1 RES1   1.0000
    21 C21     15.8158  47.9555  25.3406   C.3       1 RES1   0.0000
    22 O22     15.5768  49.1549  26.0559   O.3       1 RES1   0.0000
    23 C23     16.6790  47.0461  26.2335   C.2       1 RES1   0.0000
    24 N24     16.0990  46.2165  27.0302   N.2       1 RES1   0.0000
    25 C25     17.0472  45.4962  27.7427   C.2       1 RES1   0.0000
    26 C26     18.3474  45.8529  27.4141   C.2       1 RES1   0.0000
    27 S27     18.4031  47.0767  26.2232   S.3       1 RES1   0.0000
    28 C28     13.0586  48.2083  20.7925   C.3       1 RES1   0.0000
    29 C29     11.8149  48.8576  20.1486   C.3       1 RES1   0.0000
    30 C30     12.6477  47.4919  22.0838   C.3       1 RES1   0.0000
@<TRIPOS>BOND
     1     1     2    1
     2     2     3    1
     3     2     4    1
     4     4     5    1
     5     5     6    1
     6     6     7    2
     7     6     8   am
     8     9     8    1
     9     9    10    1
    10    10    11    2
    11    10    12   am
    12    12    13    1
    13    13    14    1
    14    14    15    1
    15    15    16    1
    16    16    17    1
    17    17    18    1
    18    18    19    1
    19    18    20    2
    20    13    21    1
    21    21    22    1
    22    21    23    1
    23    23    24    2
    24    24    25    1
    25    25    26    2
    26    26    27    1
    27     9    28    1
    28    28    29    1
    29    28    30    1
    30    27    23    1
@<TRIPOS>SUBSTRUCTURE
     1 RES1        1 GROUP             0 ****  ****    0  
@<TRIPOS>MOLECULE
ligand_52
    30    30     1     0     0
SMALL
USER_CHARGES
****
Generated from the CSD

@<TRIPOS>ATOM
     1 C1      18.4168  52.3196  16.7324   C.3       1 RES1   0.0000
     2 C2      17.4888  53.3152  17.4329   C.3       1 RES1   0.0000
     3 C3      18.2881  54.6048  17.6932   C.3       1 RES1   0.0000
     4 C4      16.9743  52.6596  18.7399   C.3       1 RES1   0.0000
     5 C5      16.0240  51.4580  18.5367   C.3       1 RES1   0.0000
     6 C6      15.5858  50.8987  19.8958   C.2       1 RES1   0.0000
     7 O7      15.9989  51.4174  20.9479   O.2       1 RES1   0.0000
     8 N8      14.7408  49.8454  19.8777   N.am      1 RES1   0.0000
     9 C9      14.2147  49.1944  21.0913   C.3       1 RES1   0.0000
    10 C10     14.4889  47.6924  21.0478   C.2       1 RES1   0.0000
    11 O11     14.9213  47.0802  22.0299   O.2       1 RES1   0.0000
    12 N12     14.2293  47.1086  19.8857   N.am      1 RES1   0.0000
    13 C13     14.4433  45.7149  19.5857   C.3       1 RES1   0.0000
    14 C14     13.0491  45.0592  19.5138   C.3       1 RES1   0.0000
    15 C15     12.2568  45.3212  20.8055   C.3       1 RES1   0.0000
    16 C16     10.8767  44.6703  20.7529   C.3       1 RES1   0.0000
    17 N17     10.1827  44.9610  22.0116   N.2       1 RES1   0.0000
    18 C18     10.3149  44.2917  23.1712   C.2       1 RES1   0.0000
    19 N19      9.6072  44.6867  24.2371   N.pl3     1 RES1   0.0000
    20 N20     11.1461  43.2420  23.2629   N.pl3     1 RES1   1.0000
    21 C21     15.2091  45.5761  18.2534   C.3       1 RES1   0.0000
    22 O22     15.5773  44.2157  18.1075   O.3       1 RES1   0.0000
    23 C23     16.4981  46.4153  18.1935   C.2       1 RES1   0.0000
    24 N24     16.8918  46.8797  17.0583   N.2       1 RES1   0.0000
    25 C25     18.0655  47.6022  17.2189   C.2       1 RES1   0.0000
    26 C26     18.4974  47.6341  18.5373   C.2       1 RES1   0.0000
    27 S27     17.4547  46.7742  19.5826   S.3       1 RES1   0.0000
    28 C28     12.7087  49.5012  21.2816   C.3       1 RES1   0.0000
    29 C29     12.3716  51.0034  21.3944   C.3       1 RES1   0.0000
    30 C30     12.1879  48.7681  22.5229   C.3       1 RES1   0.0000
@<TRIPOS>BOND
     1     1     2    1
     2     2     3    1
     3     2     4    1
     4     4     5    1
     5     5     6    1
     6     6     7    2
     7     6     8   am
     8     9     8    1
     9     9    10    1
    10    10    11    2
    11    10    12   am
    12    12    13    1
    13    13    14    1
    14    14    15    1
    15    15    16    1
    16    16    17    1
    17    17    18    1
    18    18    19    1
    19    18    20    2
    20    13    21    1
    21    21    22    1
    22    21    23    1
    23    23    24    2
    24    24    25    1
    25    25    26    2
    26    26    27    1
    27     9    28    1
    28    28    29    1
    29    28    30    1
    30    27    23    1
@<TRIPOS>SUBSTRUCTURE
     1 RES1        1 GROUP             0 ****  ****    0  
@<TRIPOS>MOLECULE
ligand_53
    30    30     1     0     0
SMALL
USER_CHARGES
****
Generated from the CSD

@<TRIPOS>ATOM
     1 C1      18.3070  52.1442  16.5889   C.3       1 RES1   0.0000
     2 C2      17.3965  53.1652  17.2757   C.3       1 RES1   0.0000
     3 C3      18.2050  54.4595  17.4783   C.3       1 RES1   0.0000
     4 C4      16.9067  52.5537  18.6133   C.3       1 RES1   0.0000
     5 C5      15.9487  51.3499  18.4680   C.3       1 RES1   0.0000
     6 C6      15.5365  50.8360  19.8530   C.2       1 RES1   0.0000
     7 O7      16.2301  49.9839  20.4355   O.2       1 RES1   0.0000
     8 N8      14.4121  51.3593  20.3874   N.am      1 RES1   0.0000
     9 C9      13.8813  50.9848  21.7109   C.3       1 RES1   0.0000
    10 C10     12.4219  50.5496  21.5924   C.2       1 RES1   0.0000
    11 O11     11.9929  49.5442  22.1680   O.2       1 RES1   0.0000
    12 N12     11.6648  51.3282  20.8312   N.am      1 RES1   0.0000
    13 C13     10.2727  51.1034  20.5320   C.3       1 RES1   0.0000
    14 C14      9.4750  52.1647  21.3169   C.3       1 RES1   0.0000
    15 C15      9.8258  52.1130  22.8134   C.3       1 RES1   0.0000
    16 C16      9.0357  53.1516  23.6059   C.3       1 RES1   0.0000
    17 N17      9.4204  53.0439  25.0168   N.2       1 RES1   0.0000
    18 C18      8.9304  52.1706  25.9153   C.2       1 RES1   0.0000
    19 N19      9.3906  52.2004  27.1724   N.pl3     1 RES1   0.0000
    20 N20      7.9934  51.2781  25.5594   N.pl3     1 RES1   1.0000
    21 C21     10.0367  51.2206  19.0116   C.3       1 RES1   0.0000
    22 O22     10.2590  52.5707  18.6437   O.3       1 RES1   0.0000
    23 C23      8.6061  50.8510  18.5802   C.2       1 RES1   0.0000
    24 N24      8.2092  49.6318  18.7040   N.2       1 RES1   0.0000
    25 C25      6.9000  49.5083  18.2609   C.2       1 RES1   0.0000
    26 C26      6.3727  50.7102  17.8101   C.2       1 RES1   0.0000
    27 S27      7.4907  51.9963  17.9339   S.3       1 RES1   0.0000
    28 C28     14.0594  52.1368  22.7305   C.3       1 RES1   0.0000
    29 C29     15.5221  52.5823  22.9426   C.3       1 RES1   0.0000
    30 C30     13.4510  51.7296  24.0771   C.3       1 RES1   0.0000
@<TRIPOS>BOND
     1     1     2    1
     2     2     3    1
     3     2     4    1
     4     4     5    1
     5     5     6    1
     6     6     7    2
     7     6     8   am
     8     9     8    1
     9     9    10    1
    10    10    11    2
    11    10    12   am
    12    12    13    1
    13    13    14    1
    14    14    15    1
    15    15    16    1
    16    16    17    1
    17    17    18    1
    18    18    19    1
    19    18    20    2
    20    13    21    1
    21    21    22    1
    22    21    23    1
    23    23    24    2
    24    24    25    1
    25    25    26    2
    26    26    27    1
    27     9    28    1
    28    28    29    1
    29    28    30    1
    30    27    23    1
@<TRIPOS>SUBSTRUCTURE
     1 RES1        1 GROUP             0 ****  ****    0  
@<TRIPOS>MOLECULE
ligand_54
    30    30     1     0     0
SMALL
USER_CHARGES
****
Generated from the CSD

@<TRIPOS>ATOM
     1 C1      18.2417  52.3579  16.5870   C.3       1 RES1   0.0000
     2 C2      17.2756  53.3370  17.2586   C.3       1 RES1   0.0000
     3 C3      18.0146  54.6736  17.4517   C.3       1 RES1   0.0000
     4 C4      16.8109  52.7144  18.6000   C.3       1 RES1   0.0000
     5 C5      15.9177  51.4609  18.4625   C.3       1 RES1   0.0000
     6 C6      15.5251  50.9404  19.8507   C.2       1 RES1   0.0000
     7 O7      16.4036  50.6724  20.6892   O.2       1 RES1   0.0000
     8 N8      14.2048  50.8052  20.1000   N.am      1 RES1   0.0000
     9 C9      13.6572  50.3094  21.3759   C.3       1 RES1   0.0000
    10 C10     13.9679  48.8233  21.5438   C.2       1 RES1   0.0000
    11 O11     13.6666  47.9930  20.6801   O.2       1 RES1   0.0000
    12 N12     14.5780  48.5027  22.6768   N.am      1 RES1   0.0000
    13 C13     14.9292  47.1658  23.0861   C.3       1 RES1   0.0000
    14 C14     16.4578  47.0410  22.9228   C.3       1 RES1   0.0000
    15 C15     16.8794  47.3630  21.4793   C.3       1 RES1   0.0000
    16 C16     18.3947  47.2804  21.3111   C.3       1 RES1   0.0000
    17 N17     18.8030  45.8847  21.5002   N.2       1 RES1   0.0000
    18 C18     19.1143  45.2932  22.6679   C.2       1 RES1   0.0000
    19 N19     19.4290  43.9918  22.6767   N.pl3     1 RES1   0.0000
    20 N20     19.1087  45.9952  23.8117   N.pl3     1 RES1   1.0000
    21 C21     14.4899  46.9312  24.5465   C.3       1 RES1   0.0000
    22 O22     15.2788  47.7683  25.3738   O.3       1 RES1   0.0000
    23 C23     14.6914  45.4821  25.0250   C.2       1 RES1   0.0000
    24 N24     13.9830  44.5438  24.4985   N.2       1 RES1   0.0000
    25 C25     14.3138  43.3208  25.0645   C.2       1 RES1   0.0000
    26 C26     15.3039  43.4293  26.0307   C.2       1 RES1   0.0000
    27 S27     15.8307  45.0408  26.2418   S.3       1 RES1   0.0000
    28 C28     12.1392  50.5975  21.4818   C.3       1 RES1   0.0000
    29 C29     11.7675  52.0948  21.4289   C.3       1 RES1   0.0000
    30 C30     11.5882  49.9816  22.7727   C.3       1 RES1   0.0000
@<TRIPOS>BOND
     1     1     2    1
     2     2     3    1
     3     2     4    1
     4     4     5    1
     5     5     6    1
     6     6     7    2
     7     6     8   am
     8     9     8    1
     9     9    10    1
    10    10    11    2
    11    10    12   am
    12    12    13    1
    13    13    14    1
    14    14    15    1
    15    15    16    1
    16    16    17    1
    17    17    18    1
    18    18    19    1
    19    18    20    2
    20    13    21    1
    21    21    22    1
    22    21    23    1
    23    23    24    2
    24    24    25    1
    25    25    26    2
    26    26    27    1
    27     9    28    1
    28    28    29    1
    29    28    30    1
    30    27    23    1
@<TRIPOS>SUBSTRUCTURE
     1 RES1        1 GROUP             0 ****  ****    0  
@<TRIPOS>MOLECULE
ligand_55
    30    30     1     0     0
SMALL
USER_CHARGES
****
Generated from the CSD

@<TRIPOS>ATOM
     1 C1      18.2516  52.6897  16.8550   C.3       1 RES1   0.0000
     2 C2      17.2015  53.5795  17.5248   C.3       1 RES1   0.0000
     3 C3      17.8522  54.9445  17.8133   C.3       1 RES1   0.0000
     4 C4      16.7151  52.8677  18.8130   C.3       1 RES1   0.0000
     5 C5      15.9031  51.5743  18.5766   C.3       1 RES1   0.0000
     6 C6      15.4909  50.9595  19.9198   C.2       1 RES1   0.0000
     7 O7      14.9052  51.6519  20.7707   O.2       1 RES1   0.0000
     8 N8      15.7865  49.6555  20.1097   N.am      1 RES1   0.0000
     9 C9      15.4371  48.9039  21.3289   C.3       1 RES1   0.0000
    10 C10     16.6630  48.1691  21.8676   C.2       1 RES1   0.0000
    11 O11     16.9629  48.1931  23.0658   O.2       1 RES1   0.0000
    12 N12     17.3690  47.5135  20.9562   N.am      1 RES1   0.0000
    13 C13     18.5236  46.6936  21.2260   C.3       1 RES1   0.0000
    14 C14     18.0885  45.2307  21.0039   C.3       1 RES1   0.0000
    15 C15     16.8478  44.8972  21.8492   C.3       1 RES1   0.0000
    16 C16     16.4130  43.4472  21.6505   C.3       1 RES1   0.0000
    17 N17     15.9806  43.2833  20.2589   N.2       1 RES1   0.0000
    18 C18     14.7688  43.5830  19.7570   C.2       1 RES1   0.0000
    19 N19     14.5317  43.3748  18.4557   N.pl3     1 RES1   0.0000
    20 N20     13.8078  44.0861  20.5472   N.pl3     1 RES1   1.0000
    21 C21     19.6822  47.0934  20.2887   C.3       1 RES1   0.0000
    22 O22     20.8221  46.3420  20.6676   O.3       1 RES1   0.0000
    23 C23     20.0582  48.5835  20.3751   C.2       1 RES1   0.0000
    24 N24     19.2219  49.4668  19.9509   N.2       1 RES1   0.0000
    25 C25     19.7480  50.7403  20.1152   C.2       1 RES1   0.0000
    26 C26     21.0136  50.7265  20.6841   C.2       1 RES1   0.0000
    27 S27     21.5569  49.1418  21.0197   S.3       1 RES1   0.0000
    28 C28     14.2531  47.9396  21.0706   C.3       1 RES1   0.0000
    29 C29     12.9686  48.6269  20.5599   C.3       1 RES1   0.0000
    30 C30     13.9378  47.1587  22.3512   C.3       1 RES1   0.0000
@<TRIPOS>BOND
     1     1     2    1
     2     2     3    1
     3     2     4    1
     4     4     5    1
     5     5     6    1
     6     6     7    2
     7     6     8   am
     8     9     8    1
     9     9    10    1
    10    10    11    2
    11    10    12   am
    12    12    13    1
    13    13    14    1
    14    14    15    1
    15    15    16    1
    16    16    17    1
    17    17    18    1
    18    18    19    1
    19    18    20    2
    20    13    21    1
    21    21    22    1
    22    21    23    1
    23    23    24    2
    24    24    25    1
    25    25    26    2
    26    26    27    1
    27     9    28    1
    28    28    29    1
    29    28    30    1
    30    27    23    1
@<TRIPOS>SUBSTRUCTURE
     1 RES1        1 GROUP             0 ****  ****    0  
@<TRIPOS>MOLECULE
ligand_56
    30    30     1     0     0
SMALL
USER_CHARGES
****
Generated from the CSD

@<TRIPOS>ATOM
     1 C1      18.2478  52.6841  16.8469   C.3       1 RES1   0.0000
     2 C2      17.2007  53.5755  17.5191   C.3       1 RES1   0.0000
     3 C3      17.8541  54.9396  17.8057   C.3       1 RES1   0.0000
     4 C4      16.7165  52.8646  18.8087   C.3       1 RES1   0.0000
     5 C5      15.9021  51.5724  18.5746   C.3       1 RES1   0.0000
     6 C6      15.4917  50.9589  19.9189   C.2       1 RES1   0.0000
     7 O7      14.9083  51.6525  20.7705   O.2       1 RES1   0.0000
     8 N8      15.7863  49.6547  20.1091   N.am      1 RES1   0.0000
     9 C9      15.4371  48.9039  21.3289   C.3       1 RES1   0.0000
    10 C10     16.6630  48.1691  21.8676   C.2       1 RES1   0.0000
    11 O11     16.9629  48.1931  23.0658   O.2       1 RES1   0.0000
    12 N12     17.3690  47.5135  20.9562   N.am      1 RES1   0.0000
    13 C13     18.5232  46.6931  21.2261   C.3       1 RES1   0.0000
    14 C14     18.0883  45.2306  21.0003   C.3       1 RES1   0.0000
    15 C15     16.8468  44.8952  21.8436   C.3       1 RES1   0.0000
    16 C16     16.3917  43.4558  21.6151   C.3       1 RES1   0.0000
    17 N17     17.4294  42.5578  22.1318   N.2       1 RES1   0.0000
    18 C18     18.4992  42.0990  21.4571   C.2       1 RES1   0.0000
    19 N19     19.3817  41.3144  22.0884   N.pl3     1 RES1   0.0000
    20 N20     18.6837  42.4230  20.1678   N.pl3     1 RES1   1.0000
    21 C21     19.6832  47.0947  20.2913   C.3       1 RES1   0.0000
    22 O22     20.8224  46.3422  20.6702   O.3       1 RES1   0.0000
    23 C23     20.0594  48.5846  20.3817   C.2       1 RES1   0.0000
    24 N24     19.2237  49.4690  19.9589   N.2       1 RES1   0.0000
    25 C25     19.7498  50.7420  20.1267   C.2       1 RES1   0.0000
    26 C26     21.0149  50.7266  20.6968   C.2       1 RES1   0.0000
    27 S27     21.5576  49.1410  21.0291   S.3       1 RES1   0.0000
    28 C28     14.2528  47.9398  21.0715   C.3       1 RES1   0.0000
    29 C29     12.9691  48.6267  20.5584   C.3       1 RES1   0.0000
    30 C30     13.9359  47.1616  22.3535   C.3       1 RES1   0.0000
@<TRIPOS>BOND
     1     1     2    1
     2     2     3    1
     3     2     4    1
     4     4     5    1
     5     5     6    1
     6     6     7    2
     7     6     8   am
     8     9     8    1
     9     9    10    1
    10    10    11    2
    11    10    12   am
    12    12    13    1
    13    13    14    1
    14    14    15    1
    15    15    16    1
    16    16    17    1
    17    17    18    1
    18    18    19    1
    19    18    20    2
    20    13    21    1
    21    21    22    1
    22    21    23    1
    23    23    24    2
    24    24    25    1
    25    25    26    2
    26    26    27    1
    27     9    28    1
    28    28    29    1
    29    28    30    1
    30    27    23    1
@<TRIPOS>SUBSTRUCTURE
     1 RES1        1 GROUP             0 ****  ****    0  
@<TRIPOS>MOLECULE
ligand_57
    30    30     1     0     0
SMALL
USER_CHARGES
****
Generated from the CSD

@<TRIPOS>ATOM
     1 C1      18.2101  52.3213  16.5433   C.3       1 RES1   0.0000
     2 C2      17.2926  53.3125  17.2634   C.3       1 RES1   0.0000
     3 C3      18.0808  54.6173  17.4777   C.3       1 RES1   0.0000
     4 C4      16.8352  52.6674  18.5966   C.3       1 RES1   0.0000
     5 C5      15.8968  51.4492  18.4436   C.3       1 RES1   0.0000
     6 C6      15.5160  50.9022  19.8249   C.2       1 RES1   0.0000
     7 O7      15.9584  51.4414  20.8545   O.2       1 RES1   0.0000
     8 N8      14.6870  49.8364  19.8511   N.am      1 RES1   0.0000
     9 C9      14.2147  49.1944  21.0913   C.3       1 RES1   0.0000
    10 C10     14.4889  47.6924  21.0478   C.2       1 RES1   0.0000
    11 O11     14.1088  46.9875  20.1072   O.2       1 RES1   0.0000
    12 N12     15.1581  47.2144  22.0883   N.am      1 RES1   0.0000
    13 C13     15.5750  45.8445  22.2544   C.3       1 RES1   0.0000
    14 C14     17.0784  45.8784  22.5971   C.3       1 RES1   0.0000
    15 C15     17.8634  46.6553  21.5269   C.3       1 RES1   0.0000
    16 C16     19.3545  46.6977  21.8525   C.3       1 RES1   0.0000
    17 N17     20.0352  47.4506  20.7941   N.2       1 RES1   0.0000
    18 C18     20.4377  46.9711  19.6032   C.2       1 RES1   0.0000
    19 N19     21.0476  47.7939  18.7407   N.pl3     1 RES1   0.0000
    20 N20     20.2305  45.6852  19.2795   N.pl3     1 RES1   1.0000
    21 C21     14.7492  45.1763  23.3736   C.3       1 RES1   0.0000
    22 O22     15.1097  43.8067  23.4163   O.3       1 RES1   0.0000
    23 C23     13.2288  45.2496  23.1447   C.2       1 RES1   0.0000
    24 N24     12.4460  45.3567  24.1621   N.2       1 RES1   0.0000
    25 C25     11.1237  45.4057  23.7443   C.2       1 RES1   0.0000
    26 C26     10.9959  45.3289  22.3646   C.2       1 RES1   0.0000
    27 S27     12.5076  45.1981  21.5793   S.3       1 RES1   0.0000
    28 C28     12.7178  49.5011  21.3440   C.3       1 RES1   0.0000
    29 C29     12.3859  51.0031  21.4729   C.3       1 RES1   0.0000
    30 C30     12.2485  48.7661  22.6044   C.3       1 RES1   0.0000
@<TRIPOS>BOND
     1     1     2    1
     2     2     3    1
     3     2     4    1
     4     4     5    1
     5     5     6    1
     6     6     7    2
     7     6     8   am
     8     9     8    1
     9     9    10    1
    10    10    11    2
    11    10    12   am
    12    12    13    1
    13    13    14    1
    14    14    15    1
    15    15    16    1
    16    16    17    1
    17    17    18    1
    18    18    19    1
    19    18    20    2
    20    13    21    1
    21    21    22    1
    22    21    23    1
    23    23    24    2
    24    24    25    1
    25    25    26    2
    26    26    27    1
    27     9    28    1
    28    28    29    1
    29    28    30    1
    30    27    23    1
@<TRIPOS>SUBSTRUCTURE
     1 RES1        1 GROUP             0 ****  ****    0  
@<TRIPOS>MOLECULE
ligand_58
    30    30     1     0     0
SMALL
USER_CHARGES
****
Generated from the CSD

@<TRIPOS>ATOM
     1 C1      18.4879  52.3354  16.8136   C.3       1 RES1   0.0000
     2 C2      17.5461  53.3281  17.4997   C.3       1 RES1   0.0000
     3 C3      18.3386  54.6184  17.7767   C.3       1 RES1   0.0000
     4 C4      17.0097  52.6688  18.7961   C.3       1 RES1   0.0000
     5 C5      16.0651  51.4662  18.5737   C.3       1 RES1   0.0000
     6 C6      15.6039  50.9033  19.9237   C.2       1 RES1   0.0000
     7 O7      15.9976  51.4205  20.9840   O.2       1 RES1   0.0000
     8 N8      14.7610  49.8488  19.8885   N.am      1 RES1   0.0000
     9 C9      14.2147  49.1944  21.0913   C.3       1 RES1   0.0000
    10 C10     14.4889  47.6924  21.0478   C.2       1 RES1   0.0000
    11 O11     14.9213  47.0802  22.0299   O.2       1 RES1   0.0000
    12 N12     14.2293  47.1086  19.8857   N.am      1 RES1   0.0000
    13 C13     14.4315  45.7123  19.5897   C.3       1 RES1   0.0000
    14 C14     13.1074  45.1903  18.9955   C.3       1 RES1   0.0000
    15 C15     11.9340  45.4731  19.9484   C.3       1 RES1   0.0000
    16 C16     10.6152  44.9617  19.3736   C.3       1 RES1   0.0000
    17 N17     10.3139  45.7288  18.1607   N.2       1 RES1   0.0000
    18 C18      9.7245  46.9369  18.1038   C.2       1 RES1   0.0000
    19 N19      9.5203  47.5078  16.9099   N.pl3     1 RES1   0.0000
    20 N20      9.3462  47.5657  19.2274   N.pl3     1 RES1   1.0000
    21 C21     15.6046  45.5497  18.6005   C.3       1 RES1   0.0000
    22 O22     15.2070  46.1149  17.3636   O.3       1 RES1   0.0000
    23 C23     15.9904  44.0828  18.3386   C.2       1 RES1   0.0000
    24 N24     15.9803  43.6382  17.1296   N.2       1 RES1   0.0000
    25 C25     16.3548  42.3022  17.1089   C.2       1 RES1   0.0000
    26 C26     16.6374  41.8066  18.3740   C.2       1 RES1   0.0000
    27 S27     16.4437  42.9889  19.5921   S.3       1 RES1   0.0000
    28 C28     12.7059  49.5014  21.2577   C.3       1 RES1   0.0000
    29 C29     12.3723  51.0001  21.4176   C.3       1 RES1   0.0000
    30 C30     12.1532  48.7260  22.4588   C.3       1 RES1   0.0000
@<TRIPOS>BOND
     1     1     2    1
     2     2     3    1
     3     2     4    1
     4     4     5    1
     5     5     6    1
     6     6     7    2
     7     6     8   am
     8     9     8    1
     9     9    10    1
    10    10    11    2
    11    10    12   am
    12    12    13    1
    13    13    14    1
    14    14    15    1
    15    15    16    1
    16    16    17    1
    17    17    18    1
    18    18    19    1
    19    18    20    2
    20    13    21    1
    21    21    22    1
    22    21    23    1
    23    23    24    2
    24    24    25    1
    25    25    26    2
    26    26    27    1
    27     9    28    1
    28    28    29    1
    29    28    30    1
    30    27    23    1
@<TRIPOS>SUBSTRUCTURE
     1 RES1        1 GROUP             0 ****  ****    0  
@<TRIPOS>MOLECULE
ligand_59
    30    30     1     0     0
SMALL
USER_CHARGES
****
Generated from the CSD

@<TRIPOS>ATOM
     1 C1      18.4937  52.3360  16.8198   C.3       1 RES1   0.0000
     2 C2      17.5512  53.3286  17.5050   C.3       1 RES1   0.0000
     3 C3      18.3435  54.6187  17.7834   C.3       1 RES1   0.0000
     4 C4      17.0131  52.6690  18.8005   C.3       1 RES1   0.0000
     5 C5      16.0686  51.4667  18.5766   C.3       1 RES1   0.0000
     6 C6      15.6057  50.9034  19.9259   C.2       1 RES1   0.0000
     7 O7      15.9981  51.4203  20.9868   O.2       1 RES1   0.0000
     8 N8      14.7626  49.8491  19.8893   N.am      1 RES1   0.0000
     9 C9      14.2147  49.1944  21.0913   C.3       1 RES1   0.0000
    10 C10     14.4889  47.6924  21.0478   C.2       1 RES1   0.0000
    11 O11     14.9213  47.0802  22.0299   O.2       1 RES1   0.0000
    12 N12     14.2293  47.1086  19.8857   N.am      1 RES1   0.0000
    13 C13     14.4321  45.7125  19.5895   C.3       1 RES1   0.0000
    14 C14     13.1081  45.1898  18.9956   C.3       1 RES1   0.0000
    15 C15     11.9352  45.4695  19.9501   C.3       1 RES1   0.0000
    16 C16     10.6119  44.9863  19.3614   C.3       1 RES1   0.0000
    17 N17     10.6565  43.5235  19.2689   N.2       1 RES1   0.0000
    18 C18     11.1327  42.8010  18.2386   C.2       1 RES1   0.0000
    19 N19     11.1401  41.4649  18.3268   N.pl3     1 RES1   0.0000
    20 N20     11.5968  43.4083  17.1355   N.pl3     1 RES1   1.0000
    21 C21     15.6050  45.5506  18.6000   C.3       1 RES1   0.0000
    22 O22     15.2068  46.1156  17.3632   O.3       1 RES1   0.0000
    23 C23     15.9915  44.0838  18.3378   C.2       1 RES1   0.0000
    24 N24     15.9813  43.6393  17.1288   N.2       1 RES1   0.0000
    25 C25     16.3565  42.3035  17.1079   C.2       1 RES1   0.0000
    26 C26     16.6396  41.8080  18.3728   C.2       1 RES1   0.0000
    27 S27     16.4457  42.9900  19.5911   S.3       1 RES1   0.0000
    28 C28     12.7057  49.5014  21.2558   C.3       1 RES1   0.0000
    29 C29     12.3718  51.0002  21.4144   C.3       1 RES1   0.0000
    30 C30     12.1518  48.7267  22.4568   C.3       1 RES1   0.0000
@<TRIPOS>BOND
     1     1     2    1
     2     2     3    1
     3     2     4    1
     4     4     5    1
     5     5     6    1
     6     6     7    2
     7     6     8   am
     8     9     8    1
     9     9    10    1
    10    10    11    2
    11    10    12   am
    12    12    13    1
    13    13    14    1
    14    14    15    1
    15    15    16    1
    16    16    17    1
    17    17    18    1
    18    18    19    1
    19    18    20    2
    20    13    21    1
    21    21    22    1
    22    21    23    1
    23    23    24    2
    24    24    25    1
    25    25    26    2
    26    26    27    1
    27     9    28    1
    28    28    29    1
    29    28    30    1
    30    27    23    1
@<TRIPOS>SUBSTRUCTURE
     1 RES1        1 GROUP             0 ****  ****    0  
@<TRIPOS>MOLECULE
ligand_60
    30    30     1     0     0
SMALL
USER_CHARGES
****
Generated from the CSD

@<TRIPOS>ATOM
     1 C1      18.4511  52.1106  16.6944   C.3       1 RES1   0.0000
     2 C2      17.5246  53.1374  17.3505   C.3       1 RES1   0.0000
     3 C3      18.3302  54.4310  17.5680   C.3       1 RES1   0.0000
     4 C4      16.9971  52.5343  18.6775   C.3       1 RES1   0.0000
     5 C5      16.0407  51.3317  18.5128   C.3       1 RES1   0.0000
     6 C6      15.5898  50.8263  19.8888   C.2       1 RES1   0.0000
     7 O7      16.4335  50.5071  20.7448   O.2       1 RES1   0.0000
     8 N8      14.2588  50.7617  20.1082   N.am      1 RES1   0.0000
     9 C9      13.6572  50.3094  21.3759   C.3       1 RES1   0.0000
    10 C10     12.6510  49.1902  21.1150   C.2       1 RES1   0.0000
    11 O11     12.6285  48.1616  21.7990   O.2       1 RES1   0.0000
    12 N12     11.8165  49.4101  20.1080   N.am      1 RES1   0.0000
    13 C13     10.7997  48.4957  19.6519   C.3       1 RES1   0.0000
    14 C14      9.5926  49.3549  19.2235   C.3       1 RES1   0.0000
    15 C15      9.1473  50.2783  20.3698   C.3       1 RES1   0.0000
    16 C16      7.9522  51.1359  19.9605   C.3       1 RES1   0.0000
    17 N17      8.3804  52.0398  18.8882   N.2       1 RES1   0.0000
    18 C18      9.0130  53.2176  19.0394   C.2       1 RES1   0.0000
    19 N19      9.3395  53.9273  17.9519   N.pl3     1 RES1   0.0000
    20 N20      9.3163  53.6776  20.2631   N.pl3     1 RES1   1.0000
    21 C21     11.3418  47.6487  18.4815   C.3       1 RES1   0.0000
    22 O22     11.5497  48.5168  17.3812   O.3       1 RES1   0.0000
    23 C23     10.3758  46.5412  18.0236   C.2       1 RES1   0.0000
    24 N24     10.1240  45.5603  18.8198   N.2       1 RES1   0.0000
    25 C25      9.2376  44.6756  18.2221   C.2       1 RES1   0.0000
    26 C26      8.8622  45.0746  16.9471   C.2       1 RES1   0.0000
    27 S27      9.6006  46.5439  16.4834   S.3       1 RES1   0.0000
    28 C28     13.0184  51.4926  22.1444   C.3       1 RES1   0.0000
    29 C29     14.0089  52.6102  22.5352   C.3       1 RES1   0.0000
    30 C30     12.3189  50.9693  23.4038   C.3       1 RES1   0.0000
@<TRIPOS>BOND
     1     1     2    1
     2     2     3    1
     3     2     4    1
     4     4     5    1
     5     5     6    1
     6     6     7    2
     7     6     8   am
     8     9     8    1
     9     9    10    1
    10    10    11    2
    11    10    12   am
    12    12    13    1
    13    13    14    1
    14    14    15    1
    15    15    16    1
    16    16    17    1
    17    17    18    1
    18    18    19    1
    19    18    20    2
    20    13    21    1
    21    21    22    1
    22    21    23    1
    23    23    24    2
    24    24    25    1
    25    25    26    2
    26    26    27    1
    27     9    28    1
    28    28    29    1
    29    28    30    1
    30    27    23    1
@<TRIPOS>SUBSTRUCTURE
     1 RES1        1 GROUP             0 ****  ****    0  
@<TRIPOS>MOLECULE
ligand_61
    30    30     1     0     0
SMALL
USER_CHARGES
****
Generated from the CSD

@<TRIPOS>ATOM
     1 C1      18.4560  52.1052  16.6973   C.3       1 RES1   0.0000
     2 C2      17.5293  53.1327  17.3518   C.3       1 RES1   0.0000
     3 C3      18.3351  54.4263  17.5690   C.3       1 RES1   0.0000
     4 C4      17.0004  52.5309  18.6788   C.3       1 RES1   0.0000
     5 C5      16.0437  51.3285  18.5142   C.3       1 RES1   0.0000
     6 C6      15.5913  50.8244  19.8902   C.2       1 RES1   0.0000
     7 O7      16.4342  50.5056  20.7472   O.2       1 RES1   0.0000
     8 N8      14.2601  50.7604  20.1084   N.am      1 RES1   0.0000
     9 C9      13.6572  50.3094  21.3759   C.3       1 RES1   0.0000
    10 C10     12.6510  49.1902  21.1150   C.2       1 RES1   0.0000
    11 O11     12.6285  48.1616  21.7990   O.2       1 RES1   0.0000
    12 N12     11.8165  49.4101  20.1080   N.am      1 RES1   0.0000
    13 C13     10.8002  48.4954  19.6514   C.3       1 RES1   0.0000
    14 C14      9.5927  49.3543  19.2232   C.3       1 RES1   0.0000
    15 C15      9.1451  50.2751  20.3708   C.3       1 RES1   0.0000
    16 C16      7.9701  51.1552  19.9513   C.3       1 RES1   0.0000
    17 N17      6.8098  50.2906  19.7133   N.2       1 RES1   0.0000
    18 C18      6.4894  49.6818  18.5572   C.2       1 RES1   0.0000
    19 N19      5.4124  48.8872  18.5147   N.pl3     1 RES1   0.0000
    20 N20      7.2383  49.8647  17.4586   N.pl3     1 RES1   1.0000
    21 C21     11.3427  47.6491  18.4809   C.3       1 RES1   0.0000
    22 O22     11.5503  48.5177  17.3809   O.3       1 RES1   0.0000
    23 C23     10.3773  46.5413  18.0225   C.2       1 RES1   0.0000
    24 N24     10.1258  45.5601  18.8182   N.2       1 RES1   0.0000
    25 C25      9.2398  44.6752  18.2202   C.2       1 RES1   0.0000
    26 C26      8.8644  45.0745  16.9453   C.2       1 RES1   0.0000
    27 S27      9.6021  46.5443  16.4821   S.3       1 RES1   0.0000
    28 C28     13.0179  51.4934  22.1428   C.3       1 RES1   0.0000
    29 C29     14.0081  52.6118  22.5324   C.3       1 RES1   0.0000
    30 C30     12.3182  50.9715  23.4027   C.3       1 RES1   0.0000
@<TRIPOS>BOND
     1     1     2    1
     2     2     3    1
     3     2     4    1
     4     4     5    1
     5     5     6    1
     6     6     7    2
     7     6     8   am
     8     9     8    1
     9     9    10    1
    10    10    11    2
    11    10    12   am
    12    12    13    1
    13    13    14    1
    14    14    15    1
    15    15    16    1
    16    16    17    1
    17    17    18    1
    18    18    19    1
    19    18    20    2
    20    13    21    1
    21    21    22    1
    22    21    23    1
    23    23    24    2
    24    24    25    1
    25    25    26    2
    26    26    27    1
    27     9    28    1
    28    28    29    1
    29    28    30    1
    30    27    23    1
@<TRIPOS>SUBSTRUCTURE
     1 RES1        1 GROUP             0 ****  ****    0  
@<TRIPOS>MOLECULE
ligand_62
    30    30     1     0     0
SMALL
USER_CHARGES
****
Generated from the CSD

@<TRIPOS>ATOM
     1 C1      18.2339  52.3190  16.5636   C.3       1 RES1   0.0000
     2 C2      17.3138  53.3108  17.2798   C.3       1 RES1   0.0000
     3 C3      18.1025  54.6145  17.4991   C.3       1 RES1   0.0000
     4 C4      16.8490  52.6652  18.6102   C.3       1 RES1   0.0000
     5 C5      15.9099  51.4483  18.4515   C.3       1 RES1   0.0000
     6 C6      15.5215  50.9007  19.8304   C.2       1 RES1   0.0000
     7 O7      16.4032  50.5775  20.6457   O.2       1 RES1   0.0000
     8 N8      14.2013  50.8043  20.0982   N.am      1 RES1   0.0000
     9 C9      13.6572  50.3094  21.3759   C.3       1 RES1   0.0000
    10 C10     13.9679  48.8233  21.5438   C.2       1 RES1   0.0000
    11 O11     14.3486  48.3549  22.6217   O.2       1 RES1   0.0000
    12 N12     13.7986  48.0885  20.4528   N.am      1 RES1   0.0000
    13 C13     14.0401  46.6707  20.3559   C.3       1 RES1   0.0000
    14 C14     12.6577  45.9917  20.2717   C.3       1 RES1   0.0000
    15 C15     11.7725  46.4098  21.4577   C.3       1 RES1   0.0000
    16 C16     10.4023  45.7396  21.3921   C.3       1 RES1   0.0000
    17 N17      9.6174  46.1831  22.5487   N.2       1 RES1   0.0000
    18 C18      9.6673  45.6728  23.7926   C.2       1 RES1   0.0000
    19 N19      8.8824  46.1944  24.7439   N.pl3     1 RES1   0.0000
    20 N20     10.4934  44.6551  24.0806   N.pl3     1 RES1   1.0000
    21 C21     14.9015  46.3684  19.1119   C.3       1 RES1   0.0000
    22 O22     14.1237  46.6673  17.9660   O.3       1 RES1   0.0000
    23 C23     15.3363  44.8955  19.0071   C.2       1 RES1   0.0000
    24 N24     15.0324  44.2259  17.9495   N.2       1 RES1   0.0000
    25 C25     15.5111  42.9275  18.0523   C.2       1 RES1   0.0000
    26 C26     16.1801  42.6974  19.2461   C.2       1 RES1   0.0000
    27 S27     16.2220  44.0836  20.2439   S.3       1 RES1   0.0000
    28 C28     12.1396  50.5981  21.4859   C.3       1 RES1   0.0000
    29 C29     11.7655  52.0934  21.4019   C.3       1 RES1   0.0000
    30 C30     11.5985  50.0108  22.7942   C.3       1 RES1   0.0000
@<TRIPOS>BOND
     1     1     2    1
     2     2     3    1
     3     2     4    1
     4     4     5    1
     5     5     6    1
     6     6     7    2
     7     6     8   am
     8     9     8    1
     9     9    10    1
    10    10    11    2
    11    10    12   am
    12    12    13    1
    13    13    14    1
    14    14    15    1
    15    15    16    1
    16    16    17    1
    17    17    18    1
    18    18    19    1
    19    18    20    2
    20    13    21    1
    21    21    22    1
    22    21    23    1
    23    23    24    2
    24    24    25    1
    25    25    26    2
    26    26    27    1
    27     9    28    1
    28    28    29    1
    29    28    30    1
    30    27    23    1
@<TRIPOS>SUBSTRUCTURE
     1 RES1        1 GROUP             0 ****  ****    0  
@<TRIPOS>MOLECULE
ligand_63
    30    30     1     0     0
SMALL
USER_CHARGES
****
Generated from the CSD

@<TRIPOS>ATOM
     1 C1      18.3499  52.2647  16.6060   C.3       1 RES1   0.0000
     2 C2      17.4135  53.2650  17.2883   C.3       1 RES1   0.0000
     3 C3      18.1980  54.5704  17.5130   C.3       1 RES1   0.0000
     4 C4      16.9151  52.6343  18.6136   C.3       1 RES1   0.0000
     5 C5      15.9788  51.4165  18.4449   C.3       1 RES1   0.0000
     6 C6      15.5557  50.8843  19.8196   C.2       1 RES1   0.0000
     7 O7      15.0211  51.6438  20.6466   O.2       1 RES1   0.0000
     8 N8      15.7846  49.5758  20.0635   N.am      1 RES1   0.0000
     9 C9      15.4371  48.9039  21.3289   C.3       1 RES1   0.0000
    10 C10     16.3165  49.4248  22.4640   C.2       1 RES1   0.0000
    11 O11     17.5491  49.4362  22.3808   O.2       1 RES1   0.0000
    12 N12     15.6575  49.8567  23.5307   N.am      1 RES1   0.0000
    13 C13     16.2626  50.3754  24.7319   C.3       1 RES1   0.0000
    14 C14     15.5721  51.7224  25.0284   C.3       1 RES1   0.0000
    15 C15     15.6643  52.6606  23.8133   C.3       1 RES1   0.0000
    16 C16     14.9893  54.0011  24.0935   C.3       1 RES1   0.0000
    17 N17     15.1162  54.8390  22.8967   N.2       1 RES1   0.0000
    18 C18     16.1792  55.5892  22.5543   C.2       1 RES1   0.0000
    19 N19     16.1381  56.3004  21.4205   N.pl3     1 RES1   0.0000
    20 N20     17.2697  55.6254  23.3357   N.pl3     1 RES1   1.0000
    21 C21     16.0769  49.3718  25.8891   C.3       1 RES1   0.0000
    22 O22     14.7339  49.4664  26.3305   O.3       1 RES1   0.0000
    23 C23     16.9849  49.6531  27.0999   C.2       1 RES1   0.0000
    24 N24     17.3734  48.6687  27.8343   N.2       1 RES1   0.0000
    25 C25     18.1772  49.1311  28.8667   C.2       1 RES1   0.0000
    26 C26     18.3480  50.5079  28.8354   C.2       1 RES1   0.0000
    27 S27     17.5189  51.2351  27.5305   S.3       1 RES1   0.0000
    28 C28     15.5287  47.3644  21.1874   C.3       1 RES1   0.0000
    29 C29     14.5803  46.7623  20.1287   C.3       1 RES1   0.0000
    30 C30     15.2589  46.7067  22.5453   C.3       1 RES1   0.0000
@<TRIPOS>BOND
     1     1     2    1
     2     2     3    1
     3     2     4    1
     4     4     5    1
     5     5     6    1
     6     6     7    2
     7     6     8   am
     8     9     8    1
     9     9    10    1
    10    10    11    2
    11    10    12   am
    12    12    13    1
    13    13    14    1
    14    14    15    1
    15    15    16    1
    16    16    17    1
    17    17    18    1
    18    18    19    1
    19    18    20    2
    20    13    21    1
    21    21    22    1
    22    21    23    1
    23    23    24    2
    24    24    25    1
    25    25    26    2
    26    26    27    1
    27     9    28    1
    28    28    29    1
    29    28    30    1
    30    27    23    1
@<TRIPOS>SUBSTRUCTURE
     1 RES1        1 GROUP             0 ****  ****    0  
@<TRIPOS>MOLECULE
ligand_64
    30    30     1     0     0
SMALL
USER_CHARGES
****
Generated from the CSD

@<TRIPOS>ATOM
     1 C1      18.2359  52.3264  16.5721   C.3       1 RES1   0.0000
     2 C2      17.3209  53.3178  17.2953   C.3       1 RES1   0.0000
     3 C3      18.1129  54.6194  17.5151   C.3       1 RES1   0.0000
     4 C4      16.8606  52.6690  18.6257   C.3       1 RES1   0.0000
     5 C5      15.9186  51.4542  18.4675   C.3       1 RES1   0.0000
     6 C6      15.5319  50.9058  19.8466   C.2       1 RES1   0.0000
     7 O7      15.0192  51.6554  20.6961   O.2       1 RES1   0.0000
     8 N8      15.7673  49.5947  20.0690   N.am      1 RES1   0.0000
     9 C9      15.4371  48.9039  21.3289   C.3       1 RES1   0.0000
    10 C10     16.6710  48.8187  22.2252   C.2       1 RES1   0.0000
    11 O11     16.6117  49.0427  23.4387   O.2       1 RES1   0.0000
    12 N12     17.7948  48.4901  21.6023   N.am      1 RES1   0.0000
    13 C13     19.0834  48.3385  22.2304   C.3       1 RES1   0.0000
    14 C14     19.6380  46.9726  21.7769   C.3       1 RES1   0.0000
    15 C15     18.6404  45.8466  22.0960   C.3       1 RES1   0.0000
    16 C16     19.1757  44.4872  21.6526   C.3       1 RES1   0.0000
    17 N17     19.2891  44.4922  20.1906   N.2       1 RES1   0.0000
    18 C18     18.3010  44.2487  19.3105   C.2       1 RES1   0.0000
    19 N19     18.5690  44.2938  17.9994   N.pl3     1 RES1   0.0000
    20 N20     17.0606  43.9657  19.7376   N.pl3     1 RES1   1.0000
    21 C21     20.0110  49.4986  21.8127   C.3       1 RES1   0.0000
    22 O22     21.1928  49.4065  22.5890   O.3       1 RES1   0.0000
    23 C23     19.4028  50.8916  22.0559   C.2       1 RES1   0.0000
    24 N24     18.3847  51.2615  21.3588   N.2       1 RES1   0.0000
    25 C25     17.9925  52.5404  21.7278   C.2       1 RES1   0.0000
    26 C26     18.7861  53.0736  22.7336   C.2       1 RES1   0.0000
    27 S27     20.0172  51.9970  23.2281   S.3       1 RES1   0.0000
    28 C28     14.8237  47.5082  21.0565   C.3       1 RES1   0.0000
    29 C29     13.5102  47.5343  20.2461   C.3       1 RES1   0.0000
    30 C30     14.5872  46.7827  22.3858   C.3       1 RES1   0.0000
@<TRIPOS>BOND
     1     1     2    1
     2     2     3    1
     3     2     4    1
     4     4     5    1
     5     5     6    1
     6     6     7    2
     7     6     8   am
     8     9     8    1
     9     9    10    1
    10    10    11    2
    11    10    12   am
    12    12    13    1
    13    13    14    1
    14    14    15    1
    15    15    16    1
    16    16    17    1
    17    17    18    1
    18    18    19    1
    19    18    20    2
    20    13    21    1
    21    21    22    1
    22    21    23    1
    23    23    24    2
    24    24    25    1
    25    25    26    2
    26    26    27    1
    27     9    28    1
    28    28    29    1
    29    28    30    1
    30    27    23    1
@<TRIPOS>SUBSTRUCTURE
     1 RES1        1 GROUP             0 ****  ****    0  
@<TRIPOS>MOLECULE
ligand_65
    30    30     1     0     0
SMALL
USER_CHARGES
****
Generated from the CSD

@<TRIPOS>ATOM
     1 C1      18.2351  52.3285  16.5730   C.3       1 RES1   0.0000
     2 C2      17.3200  53.3194  17.2967   C.3       1 RES1   0.0000
     3 C3      18.1119  54.6211  17.5169   C.3       1 RES1   0.0000
     4 C4      16.8600  52.6701  18.6269   C.3       1 RES1   0.0000
     5 C5      15.9181  51.4553  18.4684   C.3       1 RES1   0.0000
     6 C6      15.5316  50.9063  19.8472   C.2       1 RES1   0.0000
     7 O7      15.0188  51.6556  20.6971   O.2       1 RES1   0.0000
     8 N8      15.7671  49.5952  20.0692   N.am      1 RES1   0.0000
     9 C9      15.4371  48.9039  21.3289   C.3       1 RES1   0.0000
    10 C10     16.6710  48.8187  22.2252   C.2       1 RES1   0.0000
    11 O11     16.6117  49.0427  23.4387   O.2       1 RES1   0.0000
    12 N12     17.7948  48.4901  21.6023   N.am      1 RES1   0.0000
    13 C13     19.0834  48.3388  22.2303   C.3       1 RES1   0.0000
    14 C14     19.6384  46.9731  21.7769   C.3       1 RES1   0.0000
    15 C15     18.6418  45.8466  22.0977   C.3       1 RES1   0.0000
    16 C16     19.1638  44.4915  21.6261   C.3       1 RES1   0.0000
    17 N17     20.3514  44.1551  22.4178   N.2       1 RES1   0.0000
    18 C18     21.6218  44.5009  22.1411   C.2       1 RES1   0.0000
    19 N19     22.5940  44.1489  22.9919   N.pl3     1 RES1   0.0000
    20 N20     21.9146  45.1915  21.0283   N.pl3     1 RES1   1.0000
    21 C21     20.0108  49.4992  21.8126   C.3       1 RES1   0.0000
    22 O22     21.1926  49.4074  22.5888   O.3       1 RES1   0.0000
    23 C23     19.4022  50.8920  22.0557   C.2       1 RES1   0.0000
    24 N24     18.3839  51.2616  21.3587   N.2       1 RES1   0.0000
    25 C25     17.9913  52.5404  21.7277   C.2       1 RES1   0.0000
    26 C26     18.7850  53.0739  22.7333   C.2       1 RES1   0.0000
    27 S27     20.0164  51.9977  23.2277   S.3       1 RES1   0.0000
    28 C28     14.8241  47.5081  21.0561   C.3       1 RES1   0.0000
    29 C29     13.5103  47.5342  20.2459   C.3       1 RES1   0.0000
    30 C30     14.5881  46.7820  22.3851   C.3       1 RES1   0.0000
@<TRIPOS>BOND
     1     1     2    1
     2     2     3    1
     3     2     4    1
     4     4     5    1
     5     5     6    1
     6     6     7    2
     7     6     8   am
     8     9     8    1
     9     9    10    1
    10    10    11    2
    11    10    12   am
    12    12    13    1
    13    13    14    1
    14    14    15    1
    15    15    16    1
    16    16    17    1
    17    17    18    1
    18    18    19    1
    19    18    20    2
    20    13    21    1
    21    21    22    1
    22    21    23    1
    23    23    24    2
    24    24    25    1
    25    25    26    2
    26    26    27    1
    27     9    28    1
    28    28    29    1
    29    28    30    1
    30    27    23    1
@<TRIPOS>SUBSTRUCTURE
     1 RES1        1 GROUP             0 ****  ****    0  
@<TRIPOS>MOLECULE
ligand_66
    30    30     1     0     0
SMALL
USER_CHARGES
****
Generated from the CSD

@<TRIPOS>ATOM
     1 C1      18.3263  52.5442  16.8001   C.3       1 RES1   0.0000
     2 C2      17.3834  53.4982  17.5375   C.3       1 RES1   0.0000
     3 C3      18.1586  54.7948  17.8337   C.3       1 RES1   0.0000
     4 C4      16.8911  52.7914  18.8263   C.3       1 RES1   0.0000
     5 C5      15.9636  51.5779  18.5909   C.3       1 RES1   0.0000
     6 C6      15.5459  50.9672  19.9343   C.2       1 RES1   0.0000
     7 O7      15.0067  51.6758  20.8025   O.2       1 RES1   0.0000
     8 N8      15.7846  49.6490  20.1051   N.am      1 RES1   0.0000
     9 C9      15.4371  48.9039  21.3289   C.3       1 RES1   0.0000
    10 C10     16.6630  48.1691  21.8676   C.2       1 RES1   0.0000
    11 O11     16.9629  48.1931  23.0658   O.2       1 RES1   0.0000
    12 N12     17.3690  47.5135  20.9562   N.am      1 RES1   0.0000
    13 C13     18.5777  46.7709  21.2124   C.3       1 RES1   0.0000
    14 C14     18.5241  45.5166  20.3163   C.3       1 RES1   0.0000
    15 C15     17.2291  44.7251  20.5643   C.3       1 RES1   0.0000
    16 C16     17.1614  43.4797  19.6837   C.3       1 RES1   0.0000
    17 N17     15.9062  42.7791  19.9735   N.2       1 RES1   0.0000
    18 C18     15.6840  41.9212  20.9858   C.2       1 RES1   0.0000
    19 N19     14.4737  41.3631  21.1146   N.pl3     1 RES1   0.0000
    20 N20     16.6602  41.6274  21.8587   N.pl3     1 RES1   1.0000
    21 C21     19.8087  47.6460  20.8967   C.3       1 RES1   0.0000
    22 O22     20.9600  46.8284  21.0128   O.3       1 RES1   0.0000
    23 C23     19.9832  48.8338  21.8600   C.2       1 RES1   0.0000
    24 N24     19.1266  49.7955  21.8312   N.2       1 RES1   0.0000
    25 C25     19.4615  50.7617  22.7691   C.2       1 RES1   0.0000
    26 C26     20.6103  50.4421  23.4789   C.2       1 RES1   0.0000
    27 S27     21.2790  48.9471  22.9920   S.3       1 RES1   0.0000
    28 C28     14.2504  47.9409  21.0785   C.3       1 RES1   0.0000
    29 C29     12.9458  48.6361  20.6339   C.3       1 RES1   0.0000
    30 C30     13.9824  47.1163  22.3424   C.3       1 RES1   0.0000
@<TRIPOS>BOND
     1     1     2    1
     2     2     3    1
     3     2     4    1
     4     4     5    1
     5     5     6    1
     6     6     7    2
     7     6     8   am
     8     9     8    1
     9     9    10    1
    10    10    11    2
    11    10    12   am
    12    12    13    1
    13    13    14    1
    14    14    15    1
    15    15    16    1
    16    16    17    1
    17    17    18    1
    18    18    19    1
    19    18    20    2
    20    13    21    1
    21    21    22    1
    22    21    23    1
    23    23    24    2
    24    24    25    1
    25    25    26    2
    26    26    27    1
    27     9    28    1
    28    28    29    1
    29    28    30    1
    30    27    23    1
@<TRIPOS>SUBSTRUCTURE
     1 RES1        1 GROUP             0 ****  ****    0  
@<TRIPOS>MOLECULE
ligand_67
    30    30     1     0     0
SMALL
USER_CHARGES
****
Generated from the CSD

@<TRIPOS>ATOM
     1 C1      18.2228  52.2959  16.5290   C.3       1 RES1   0.0000
     2 C2      17.2982  53.2867  17.2405   C.3       1 RES1   0.0000
     3 C3      18.0784  54.5975  17.4473   C.3       1 RES1   0.0000
     4 C4      16.8421  52.6481  18.5773   C.3       1 RES1   0.0000
     5 C5      15.9113  51.4232  18.4310   C.3       1 RES1   0.0000
     6 C6      15.5249  50.8883  19.8154   C.2       1 RES1   0.0000
     7 O7      15.9605  51.4385  20.8421   O.2       1 RES1   0.0000
     8 N8      14.6986  49.8205  19.8474   N.am      1 RES1   0.0000
     9 C9      14.2147  49.1944  21.0913   C.3       1 RES1   0.0000
    10 C10     15.3685  48.5138  21.8253   C.2       1 RES1   0.0000
    11 O11     15.4997  48.5954  23.0510   O.2       1 RES1   0.0000
    12 N12     16.2059  47.8387  21.0494   N.am      1 RES1   0.0000
    13 C13     17.3409  47.0785  21.5096   C.3       1 RES1   0.0000
    14 C14     16.9863  45.5906  21.3109   C.3       1 RES1   0.0000
    15 C15     15.6603  45.2487  22.0108   C.3       1 RES1   0.0000
    16 C16     15.2986  43.7767  21.8280   C.3       1 RES1   0.0000
    17 N17     15.0496  43.5378  20.4027   N.2       1 RES1   0.0000
    18 C18     13.9020  43.7719  19.7407   C.2       1 RES1   0.0000
    19 N19     13.8366  43.4995  18.4313   N.pl3     1 RES1   0.0000
    20 N20     12.8346  44.2738  20.3809   N.pl3     1 RES1   1.0000
    21 C21     18.5991  47.4773  20.7103   C.3       1 RES1   0.0000
    22 O22     19.6336  46.5726  21.0551   O.3       1 RES1   0.0000
    23 C23     19.1018  48.8984  21.0218   C.2       1 RES1   0.0000
    24 N24     18.3730  49.9078  20.6908   N.2       1 RES1   0.0000
    25 C25     19.0011  51.0903  21.0552   C.2       1 RES1   0.0000
    26 C26     20.2267  50.8770  21.6701   C.2       1 RES1   0.0000
    27 S27     20.6062  49.2164  21.8022   S.3       1 RES1   0.0000
    28 C28     13.0519  48.2120  20.8065   C.3       1 RES1   0.0000
    29 C29     11.8162  48.8587  20.1448   C.3       1 RES1   0.0000
    30 C30     12.6298  47.5239  22.1094   C.3       1 RES1   0.0000
@<TRIPOS>BOND
     1     1     2    1
     2     2     3    1
     3     2     4    1
     4     4     5    1
     5     5     6    1
     6     6     7    2
     7     6     8   am
     8     9     8    1
     9     9    10    1
    10    10    11    2
    11    10    12   am
    12    12    13    1
    13    13    14    1
    14    14    15    1
    15    15    16    1
    16    16    17    1
    17    17    18    1
    18    18    19    1
    19    18    20    2
    20    13    21    1
    21    21    22    1
    22    21    23    1
    23    23    24    2
    24    24    25    1
    25    25    26    2
    26    26    27    1
    27     9    28    1
    28    28    29    1
    29    28    30    1
    30    27    23    1
@<TRIPOS>SUBSTRUCTURE
     1 RES1        1 GROUP             0 ****  ****    0  
@<TRIPOS>MOLECULE
ligand_68
    30    30     1     0     0
SMALL
USER_CHARGES
****
Generated from the CSD

@<TRIPOS>ATOM
     1 C1      18.2244  52.2910  16.5272   C.3       1 RES1   0.0000
     2 C2      17.2992  53.2826  17.2370   C.3       1 RES1   0.0000
     3 C3      18.0792  54.5938  17.4425   C.3       1 RES1   0.0000
     4 C4      16.8424  52.6457  18.5743   C.3       1 RES1   0.0000
     5 C5      15.9116  51.4207  18.4291   C.3       1 RES1   0.0000
     6 C6      15.5244  50.8876  19.8140   C.2       1 RES1   0.0000
     7 O7      15.9592  51.4393  20.8402   O.2       1 RES1   0.0000
     8 N8      14.6984  49.8196  19.8469   N.am      1 RES1   0.0000
     9 C9      14.2147  49.1944  21.0913   C.3       1 RES1   0.0000
    10 C10     15.3685  48.5138  21.8253   C.2       1 RES1   0.0000
    11 O11     15.4997  48.5954  23.0510   O.2       1 RES1   0.0000
    12 N12     16.2059  47.8387  21.0494   N.am      1 RES1   0.0000
    13 C13     17.3411  47.0788  21.5096   C.3       1 RES1   0.0000
    14 C14     16.9872  45.5909  21.3100   C.3       1 RES1   0.0000
    15 C15     15.6626  45.2473  22.0116   C.3       1 RES1   0.0000
    16 C16     15.2849  43.7832  21.8002   C.3       1 RES1   0.0000
    17 N17     16.2790  42.9485  22.4824   N.2       1 RES1   0.0000
    18 C18     17.4382  42.5015  21.9661   C.2       1 RES1   0.0000
    19 N19     18.2609  41.7796  22.7375   N.pl3     1 RES1   0.0000
    20 N20     17.7701  42.7752  20.6949   N.pl3     1 RES1   1.0000
    21 C21     18.5994  47.4785  20.7109   C.3       1 RES1   0.0000
    22 O22     19.6344  46.5746  21.0561   O.3       1 RES1   0.0000
    23 C23     19.1008  48.9000  21.0227   C.2       1 RES1   0.0000
    24 N24     18.3716  49.9089  20.6912   N.2       1 RES1   0.0000
    25 C25     18.9987  51.0918  21.0559   C.2       1 RES1   0.0000
    26 C26     20.2240  50.8794  21.6717   C.2       1 RES1   0.0000
    27 S27     20.6045  49.2191  21.8041   S.3       1 RES1   0.0000
    28 C28     13.0514  48.2123  20.8074   C.3       1 RES1   0.0000
    29 C29     11.8171  48.8584  20.1427   C.3       1 RES1   0.0000
    30 C30     12.6272  47.5277  22.1116   C.3       1 RES1   0.0000
@<TRIPOS>BOND
     1     1     2    1
     2     2     3    1
     3     2     4    1
     4     4     5    1
     5     5     6    1
     6     6     7    2
     7     6     8   am
     8     9     8    1
     9     9    10    1
    10    10    11    2
    11    10    12   am
    12    12    13    1
    13    13    14    1
    14    14    15    1
    15    15    16    1
    16    16    17    1
    17    17    18    1
    18    18    19    1
    19    18    20    2
    20    13    21    1
    21    21    22    1
    22    21    23    1
    23    23    24    2
    24    24    25    1
    25    25    26    2
    26    26    27    1
    27     9    28    1
    28    28    29    1
    29    28    30    1
    30    27    23    1
@<TRIPOS>SUBSTRUCTURE
     1 RES1        1 GROUP             0 ****  ****    0  
@<TRIPOS>MOLECULE
ligand_69
    30    30     1     0     0
SMALL
USER_CHARGES
****
Generated from the CSD

@<TRIPOS>ATOM
     1 C1      18.3995  52.1342  16.5891   C.3       1 RES1   0.0000
     2 C2      17.5888  53.1735  17.3675   C.3       1 RES1   0.0000
     3 C3      18.4965  54.3915  17.6173   C.3       1 RES1   0.0000
     4 C4      17.0976  52.5172  18.6831   C.3       1 RES1   0.0000
     5 C5      16.0494  51.3964  18.5012   C.3       1 RES1   0.0000
     6 C6      15.6443  50.8289  19.8672   C.2       1 RES1   0.0000
     7 O7      16.1518  51.2824  20.9080   O.2       1 RES1   0.0000
     8 N8      14.7221  49.8423  19.8681   N.am      1 RES1   0.0000
     9 C9      14.2147  49.1944  21.0913   C.3       1 RES1   0.0000
    10 C10     14.4889  47.6924  21.0478   C.2       1 RES1   0.0000
    11 O11     14.3699  46.9790  22.0494   O.2       1 RES1   0.0000
    12 N12     14.8607  47.2245  19.8639   N.am      1 RES1   0.0000
    13 C13     15.1664  45.8468  19.5696   C.3       1 RES1   0.0000
    14 C14     14.6530  45.5758  18.1407   C.3       1 RES1   0.0000
    15 C15     13.1624  45.9345  18.0204   C.3       1 RES1   0.0000
    16 C16     12.6392  45.6714  16.6104   C.3       1 RES1   0.0000
    17 N17     11.2191  46.0347  16.5714   N.2       1 RES1   0.0000
    18 C18     10.1857  45.2667  16.9619   C.2       1 RES1   0.0000
    19 N19      8.9404  45.7489  16.8633   N.pl3     1 RES1   0.0000
    20 N20     10.3965  44.0330  17.4463   N.pl3     1 RES1   1.0000
    21 C21     16.6868  45.6100  19.6846   C.3       1 RES1   0.0000
    22 O22     17.3162  46.3372  18.6442   O.3       1 RES1   0.0000
    23 C23     17.0933  44.1333  19.5313   C.2       1 RES1   0.0000
    24 N24     16.7370  43.2878  20.4355   N.2       1 RES1   0.0000
    25 C25     17.2008  42.0202  20.1133   C.2       1 RES1   0.0000
    26 C26     17.9128  41.9983  18.9224   C.2       1 RES1   0.0000
    27 S27     18.0099  43.5416  18.1959   S.3       1 RES1   0.0000
    28 C28     12.7116  49.5011  21.3035   C.3       1 RES1   0.0000
    29 C29     12.3767  51.0030  21.4266   C.3       1 RES1   0.0000
    30 C30     12.2076  48.7635  22.5490   C.3       1 RES1   0.0000
@<TRIPOS>BOND
     1     1     2    1
     2     2     3    1
     3     2     4    1
     4     4     5    1
     5     5     6    1
     6     6     7    2
     7     6     8   am
     8     9     8    1
     9     9    10    1
    10    10    11    2
    11    10    12   am
    12    12    13    1
    13    13    14    1
    14    14    15    1
    15    15    16    1
    16    16    17    1
    17    17    18    1
    18    18    19    1
    19    18    20    2
    20    13    21    1
    21    21    22    1
    22    21    23    1
    23    23    24    2
    24    24    25    1
    25    25    26    2
    26    26    27    1
    27     9    28    1
    28    28    29    1
    29    28    30    1
    30    27    23    1
@<TRIPOS>SUBSTRUCTURE
     1 RES1        1 GROUP             0 ****  ****    0  
@<TRIPOS>MOLECULE
ligand_70
    30    30     1     0     0
SMALL
USER_CHARGES
****
Generated from the CSD

@<TRIPOS>ATOM
     1 C1      18.2534  52.1465  16.4675   C.3       1 RES1   0.0000
     2 C2      17.3376  53.1671  17.1479   C.3       1 RES1   0.0000
     3 C3      18.1329  54.4734  17.3236   C.3       1 RES1   0.0000
     4 C4      16.8676  52.5699  18.4989   C.3       1 RES1   0.0000
     5 C5      15.9223  51.3532  18.3807   C.3       1 RES1   0.0000
     6 C6      15.5292  50.8552  19.7769   C.2       1 RES1   0.0000
     7 O7      15.9684  51.4260  20.7908   O.2       1 RES1   0.0000
     8 N8      14.6932  49.7961  19.8333   N.am      1 RES1   0.0000
     9 C9      14.2147  49.1944  21.0913   C.3       1 RES1   0.0000
    10 C10     15.3685  48.5138  21.8253   C.2       1 RES1   0.0000
    11 O11     16.1034  47.6936  21.2655   O.2       1 RES1   0.0000
    12 N12     15.5135  48.8701  23.0945   N.am      1 RES1   0.0000
    13 C13     16.5405  48.3888  23.9842   C.3       1 RES1   0.0000
    14 C14     17.1782  49.6323  24.6368   C.3       1 RES1   0.0000
    15 C15     17.6790  50.6139  23.5640   C.3       1 RES1   0.0000
    16 C16     18.3196  51.8478  24.1950   C.3       1 RES1   0.0000
    17 N17     18.7710  52.7337  23.1172   N.2       1 RES1   0.0000
    18 C18     19.9264  52.6388  22.4343   C.2       1 RES1   0.0000
    19 N19     20.1909  53.5314  21.4719   N.pl3     1 RES1   0.0000
    20 N20     20.8043  51.6620  22.7103   N.pl3     1 RES1   1.0000
    21 C21     15.9231  47.4447  25.0371   C.3       1 RES1   0.0000
    22 O22     16.9829  46.9089  25.8099   O.3       1 RES1   0.0000
    23 C23     15.1498  46.2624  24.4260   C.2       1 RES1   0.0000
    24 N24     14.1106  45.8095  25.0379   N.2       1 RES1   0.0000
    25 C25     13.5624  44.7504  24.3285   C.2       1 RES1   0.0000
    26 C26     14.2655  44.4642  23.1669   C.2       1 RES1   0.0000
    27 S27     15.6038  45.5030  22.9459   S.3       1 RES1   0.0000
    28 C28     13.0396  48.2194  20.8326   C.3       1 RES1   0.0000
    29 C29     11.8097  48.8650  20.1592   C.3       1 RES1   0.0000
    30 C30     12.6133  47.5670  22.1525   C.3       1 RES1   0.0000
@<TRIPOS>BOND
     1     1     2    1
     2     2     3    1
     3     2     4    1
     4     4     5    1
     5     5     6    1
     6     6     7    2
     7     6     8   am
     8     9     8    1
     9     9    10    1
    10    10    11    2
    11    10    12   am
    12    12    13    1
    13    13    14    1
    14    14    15    1
    15    15    16    1
    16    16    17    1
    17    17    18    1
    18    18    19    1
    19    18    20    2
    20    13    21    1
    21    21    22    1
    22    21    23    1
    23    23    24    2
    24    24    25    1
    25    25    26    2
    26    26    27    1
    27     9    28    1
    28    28    29    1
    29    28    30    1
    30    27    23    1
@<TRIPOS>SUBSTRUCTURE
     1 RES1        1 GROUP             0 ****  ****    0  
@<TRIPOS>MOLECULE
ligand_71
    30    30     1     0     0
SMALL
USER_CHARGES
****
Generated from the CSD

@<TRIPOS>ATOM
     1 C1      18.1687  52.3779  16.5284   C.3       1 RES1   0.0000
     2 C2      17.2398  53.3573  17.2503   C.3       1 RES1   0.0000
     3 C3      18.0102  54.6735  17.4596   C.3       1 RES1   0.0000
     4 C4      16.7965  52.7079  18.5862   C.3       1 RES1   0.0000
     5 C5      15.8749  51.4763  18.4386   C.3       1 RES1   0.0000
     6 C6      15.5070  50.9263  19.8222   C.2       1 RES1   0.0000
     7 O7      16.2391  50.0875  20.3763   O.2       1 RES1   0.0000
     8 N8      14.3772  51.4038  20.3873   N.am      1 RES1   0.0000
     9 C9      13.8813  50.9848  21.7109   C.3       1 RES1   0.0000
    10 C10     13.4237  49.5281  21.6682   C.2       1 RES1   0.0000
    11 O11     12.6135  49.1240  20.8276   O.2       1 RES1   0.0000
    12 N12     13.9593  48.7449  22.5947   N.am      1 RES1   0.0000
    13 C13     13.6723  47.3431  22.7700   C.3       1 RES1   0.0000
    14 C14     15.0322  46.6179  22.8309   C.3       1 RES1   0.0000
    15 C15     15.8765  46.9383  21.5861   C.3       1 RES1   0.0000
    16 C16     17.2247  46.2230  21.6296   C.3       1 RES1   0.0000
    17 N17     17.9709  46.5740  20.4170   N.2       1 RES1   0.0000
    18 C18     17.8474  45.9991  19.2069   C.2       1 RES1   0.0000
    19 N19     18.6057  46.4392  18.1948   N.pl3     1 RES1   0.0000
    20 N20     16.9749  44.9982  19.0123   N.pl3     1 RES1   1.0000
    21 C21     12.8542  47.1319  24.0611   C.3       1 RES1   0.0000
    22 O22     13.6892  47.4573  25.1586   O.3       1 RES1   0.0000
    23 C23     12.3744  45.6824  24.2560   C.2       1 RES1   0.0000
    24 N24     11.5041  45.1951  23.4409   N.2       1 RES1   0.0000
    25 C25     11.2059  43.8850  23.7876   C.2       1 RES1   0.0000
    26 C26     11.9125  43.4528  24.9010   C.2       1 RES1   0.0000
    27 S27     12.9483  44.6615  25.5216   S.3       1 RES1   0.0000
    28 C28     12.7595  51.9281  22.2113   C.3       1 RES1   0.0000
    29 C29     13.1904  53.4008  22.3798   C.3       1 RES1   0.0000
    30 C30     12.2036  51.4052  23.5405   C.3       1 RES1   0.0000
@<TRIPOS>BOND
     1     1     2    1
     2     2     3    1
     3     2     4    1
     4     4     5    1
     5     5     6    1
     6     6     7    2
     7     6     8   am
     8     9     8    1
     9     9    10    1
    10    10    11    2
    11    10    12   am
    12    12    13    1
    13    13    14    1
    14    14    15    1
    15    15    16    1
    16    16    17    1
    17    17    18    1
    18    18    19    1
    19    18    20    2
    20    13    21    1
    21    21    22    1
    22    21    23    1
    23    23    24    2
    24    24    25    1
    25    25    26    2
    26    26    27    1
    27     9    28    1
    28    28    29    1
    29    28    30    1
    30    27    23    1
@<TRIPOS>SUBSTRUCTURE
     1 RES1        1 GROUP             0 ****  ****    0  
@<TRIPOS>MOLECULE
ligand_72
    30    30     1     0     0
SMALL
USER_CHARGES
****
Generated from the CSD

@<TRIPOS>ATOM
     1 C1      18.2700  52.3637  16.6265   C.3       1 RES1   0.0000
     2 C2      17.3390  53.3475  17.3396   C.3       1 RES1   0.0000
     3 C3      18.1204  54.6528  17.5750   C.3       1 RES1   0.0000
     4 C4      16.8633  52.6917  18.6611   C.3       1 RES1   0.0000
     5 C5      15.9306  51.4722  18.4854   C.3       1 RES1   0.0000
     6 C6      15.5304  50.9145  19.8568   C.2       1 RES1   0.0000
     7 O7      15.9557  51.4476  20.8968   O.2       1 RES1   0.0000
     8 N8      14.7040  49.8464  19.8629   N.am      1 RES1   0.0000
     9 C9      14.2147  49.1944  21.0913   C.3       1 RES1   0.0000
    10 C10     15.3685  48.5138  21.8253   C.2       1 RES1   0.0000
    11 O11     15.4997  48.5954  23.0510   O.2       1 RES1   0.0000
    12 N12     16.2059  47.8387  21.0494   N.am      1 RES1   0.0000
    13 C13     17.3687  47.1186  21.5047   C.3       1 RES1   0.0000
    14 C14     17.2713  45.6995  20.9083   C.3       1 RES1   0.0000
    15 C15     15.9319  45.0426  21.2819   C.3       1 RES1   0.0000
    16 C16     15.8205  43.6362  20.6982   C.3       1 RES1   0.0000
    17 N17     15.7960  43.7455  19.2361   N.2       1 RES1   0.0000
    18 C18     14.7214  44.0113  18.4715   C.2       1 RES1   0.0000
    19 N19     14.8671  44.0797  17.1422   N.pl3     1 RES1   0.0000
    20 N20     13.5173  44.2079  19.0306   N.pl3     1 RES1   1.0000
    21 C21     18.6499  47.8448  21.0441   C.3       1 RES1   0.0000
    22 O22     18.7132  47.7531  19.6317   O.3       1 RES1   0.0000
    23 C23     19.9432  47.2296  21.6082   C.2       1 RES1   0.0000
    24 N24     20.8560  46.8310  20.7914   N.2       1 RES1   0.0000
    25 C25     21.9326  46.3104  21.4954   C.2       1 RES1   0.0000
    26 C26     21.7454  46.3568  22.8696   C.2       1 RES1   0.0000
    27 S27     20.2410  47.0449  23.2966   S.3       1 RES1   0.0000
    28 C28     13.0653  48.2047  20.7786   C.3       1 RES1   0.0000
    29 C29     11.8214  48.8527  20.1339   C.3       1 RES1   0.0000
    30 C30     12.6519  47.4754  22.0618   C.3       1 RES1   0.0000
@<TRIPOS>BOND
     1     1     2    1
     2     2     3    1
     3     2     4    1
     4     4     5    1
     5     5     6    1
     6     6     7    2
     7     6     8   am
     8     9     8    1
     9     9    10    1
    10    10    11    2
    11    10    12   am
    12    12    13    1
    13    13    14    1
    14    14    15    1
    15    15    16    1
    16    16    17    1
    17    17    18    1
    18    18    19    1
    19    18    20    2
    20    13    21    1
    21    21    22    1
    22    21    23    1
    23    23    24    2
    24    24    25    1
    25    25    26    2
    26    26    27    1
    27     9    28    1
    28    28    29    1
    29    28    30    1
    30    27    23    1
@<TRIPOS>SUBSTRUCTURE
     1 RES1        1 GROUP             0 ****  ****    0  
@<TRIPOS>MOLECULE
ligand_73
    30    30     1     0     0
SMALL
USER_CHARGES
****
Generated from the CSD

@<TRIPOS>ATOM
     1 C1      18.2713  52.3779  16.6377   C.3       1 RES1   0.0000
     2 C2      17.3382  53.3590  17.3517   C.3       1 RES1   0.0000
     3 C3      18.1176  54.6648  17.5907   C.3       1 RES1   0.0000
     4 C4      16.8617  52.7000  18.6713   C.3       1 RES1   0.0000
     5 C5      15.9307  51.4797  18.4920   C.3       1 RES1   0.0000
     6 C6      15.5297  50.9186  19.8618   C.2       1 RES1   0.0000
     7 O7      15.9531  51.4502  20.9034   O.2       1 RES1   0.0000
     8 N8      14.7047  49.8495  19.8648   N.am      1 RES1   0.0000
     9 C9      14.2147  49.1944  21.0913   C.3       1 RES1   0.0000
    10 C10     15.3685  48.5138  21.8253   C.2       1 RES1   0.0000
    11 O11     15.4997  48.5954  23.0510   O.2       1 RES1   0.0000
    12 N12     16.2059  47.8387  21.0494   N.am      1 RES1   0.0000
    13 C13     17.3695  47.1197  21.5046   C.3       1 RES1   0.0000
    14 C14     17.2726  45.7001  20.9092   C.3       1 RES1   0.0000
    15 C15     15.9347  45.0419  21.2856   C.3       1 RES1   0.0000
    16 C16     15.8105  43.6473  20.6768   C.3       1 RES1   0.0000
    17 N17     16.8210  42.7835  21.2957   N.2       1 RES1   0.0000
    18 C18     18.0912  42.6165  20.8846   C.2       1 RES1   0.0000
    19 N19     18.9051  41.8189  21.5876   N.pl3     1 RES1   0.0000
    20 N20     18.5409  43.2415  19.7853   N.pl3     1 RES1   1.0000
    21 C21     18.6498  47.8464  21.0427   C.3       1 RES1   0.0000
    22 O22     18.7125  47.7537  19.6303   O.3       1 RES1   0.0000
    23 C23     19.9439  47.2324  21.6065   C.2       1 RES1   0.0000
    24 N24     20.8565  46.8339  20.7894   N.2       1 RES1   0.0000
    25 C25     21.9339  46.3145  21.4931   C.2       1 RES1   0.0000
    26 C26     21.7474  46.3617  22.8674   C.2       1 RES1   0.0000
    27 S27     20.2428  47.0492  23.2948   S.3       1 RES1   0.0000
    28 C28     13.0670  48.2039  20.7752   C.3       1 RES1   0.0000
    29 C29     11.8230  48.8516  20.1304   C.3       1 RES1   0.0000
    30 C30     12.6530  47.4715  22.0565   C.3       1 RES1   0.0000
@<TRIPOS>BOND
     1     1     2    1
     2     2     3    1
     3     2     4    1
     4     4     5    1
     5     5     6    1
     6     6     7    2
     7     6     8   am
     8     9     8    1
     9     9    10    1
    10    10    11    2
    11    10    12   am
    12    12    13    1
    13    13    14    1
    14    14    15    1
    15    15    16    1
    16    16    17    1
    17    17    18    1
    18    18    19    1
    19    18    20    2
    20    13    21    1
    21    21    22    1
    22    21    23    1
    23    23    24    2
    24    24    25    1
    25    25    26    2
    26    26    27    1
    27     9    28    1
    28    28    29    1
    29    28    30    1
    30    27    23    1
@<TRIPOS>SUBSTRUCTURE
     1 RES1        1 GROUP             0 ****  ****    0  
@<TRIPOS>MOLECULE
ligand_74
    30    30     1     0     0
SMALL
USER_CHARGES
****
Generated from the CSD

@<TRIPOS>ATOM
     1 C1      18.2406  52.3605  16.6065   C.3       1 RES1   0.0000
     2 C2      17.3115  53.3435  17.3231   C.3       1 RES1   0.0000
     3 C3      18.0919  54.6503  17.5531   C.3       1 RES1   0.0000
     4 C4      16.8435  52.6885  18.6477   C.3       1 RES1   0.0000
     5 C5      15.9119  51.4672  18.4779   C.3       1 RES1   0.0000
     6 C6      15.5195  50.9103  19.8520   C.2       1 RES1   0.0000
     7 O7      14.9966  51.6531  20.7014   O.2       1 RES1   0.0000
     8 N8      15.7616  49.5998  20.0703   N.am      1 RES1   0.0000
     9 C9      15.4371  48.9039  21.3289   C.3       1 RES1   0.0000
    10 C10     16.3165  49.4248  22.4640   C.2       1 RES1   0.0000
    11 O11     15.8572  49.6702  23.5842   O.2       1 RES1   0.0000
    12 N12     17.5949  49.5904  22.1519   N.am      1 RES1   0.0000
    13 C13     18.6167  50.0725  23.0472   C.3       1 RES1   0.0000
    14 C14     19.9062  49.2992  22.7034   C.3       1 RES1   0.0000
    15 C15     19.6662  47.7818  22.7730   C.3       1 RES1   0.0000
    16 C16     20.9347  47.0022  22.4349   C.3       1 RES1   0.0000
    17 N17     21.2791  47.2692  21.0347   N.2       1 RES1   0.0000
    18 C18     20.7652  46.6556  19.9533   C.2       1 RES1   0.0000
    19 N19     21.1865  47.0184  18.7352   N.pl3     1 RES1   0.0000
    20 N20     19.8402  45.6927  20.0897   N.pl3     1 RES1   1.0000
    21 C21     18.7979  51.5941  22.8666   C.3       1 RES1   0.0000
    22 O22     19.3344  51.8139  21.5738   O.3       1 RES1   0.0000
    23 C23     19.7656  52.2242  23.8845   C.2       1 RES1   0.0000
    24 N24     19.4337  52.2553  25.1288   N.2       1 RES1   0.0000
    25 C25     20.4347  52.8610  25.8750   C.2       1 RES1   0.0000
    26 C26     21.5107  53.2653  25.0975   C.2       1 RES1   0.0000
    27 S27     21.2908  52.8971  23.4437   S.3       1 RES1   0.0000
    28 C28     15.5555  47.3685  21.1648   C.3       1 RES1   0.0000
    29 C29     14.6093  46.7641  20.1053   C.3       1 RES1   0.0000
    30 C30     15.3089  46.6870  22.5153   C.3       1 RES1   0.0000
@<TRIPOS>BOND
     1     1     2    1
     2     2     3    1
     3     2     4    1
     4     4     5    1
     5     5     6    1
     6     6     7    2
     7     6     8   am
     8     9     8    1
     9     9    10    1
    10    10    11    2
    11    10    12   am
    12    12    13    1
    13    13    14    1
    14    14    15    1
    15    15    16    1
    16    16    17    1
    17    17    18    1
    18    18    19    1
    19    18    20    2
    20    13    21    1
    21    21    22    1
    22    21    23    1
    23    23    24    2
    24    24    25    1
    25    25    26    2
    26    26    27    1
    27     9    28    1
    28    28    29    1
    29    28    30    1
    30    27    23    1
@<TRIPOS>SUBSTRUCTURE
     1 RES1        1 GROUP             0 ****  ****    0  
@<TRIPOS>MOLECULE
ligand_75
    30    30     1     0     0
SMALL
USER_CHARGES
****
Generated from the CSD

@<TRIPOS>ATOM
     1 C1      18.2295  52.3733  16.6092   C.3       1 RES1   0.0000
     2 C2      17.2991  53.3533  17.3282   C.3       1 RES1   0.0000
     3 C3      18.0771  54.6614  17.5595   C.3       1 RES1   0.0000
     4 C4      16.8335  52.6953  18.6522   C.3       1 RES1   0.0000
     5 C5      15.9042  51.4725  18.4815   C.3       1 RES1   0.0000
     6 C6      15.5142  50.9128  19.8550   C.2       1 RES1   0.0000
     7 O7      14.9905  51.6532  20.7060   O.2       1 RES1   0.0000
     8 N8      15.7591  49.6024  20.0711   N.am      1 RES1   0.0000
     9 C9      15.4371  48.9039  21.3289   C.3       1 RES1   0.0000
    10 C10     16.3165  49.4248  22.4640   C.2       1 RES1   0.0000
    11 O11     15.8572  49.6702  23.5842   O.2       1 RES1   0.0000
    12 N12     17.5949  49.5904  22.1519   N.am      1 RES1   0.0000
    13 C13     18.6164  50.0737  23.0468   C.3       1 RES1   0.0000
    14 C14     19.9062  49.3005  22.7040   C.3       1 RES1   0.0000
    15 C15     19.6671  47.7831  22.7771   C.3       1 RES1   0.0000
    16 C16     20.9272  47.0033  22.4092   C.3       1 RES1   0.0000
    17 N17     21.9412  47.2560  23.4380   N.2       1 RES1   0.0000
    18 C18     22.8295  48.2663  23.4548   C.2       1 RES1   0.0000
    19 N19     23.6670  48.3817  24.4932   N.pl3     1 RES1   0.0000
    20 N20     22.8773  49.1504  22.4462   N.pl3     1 RES1   1.0000
    21 C21     18.7973  51.5952  22.8646   C.3       1 RES1   0.0000
    22 O22     19.3339  51.8137  21.5716   O.3       1 RES1   0.0000
    23 C23     19.7646  52.2266  23.8819   C.2       1 RES1   0.0000
    24 N24     19.4326  52.2591  25.1261   N.2       1 RES1   0.0000
    25 C25     20.4333  52.8658  25.8718   C.2       1 RES1   0.0000
    26 C26     21.5093  53.2696  25.0940   C.2       1 RES1   0.0000
    27 S27     21.2897  52.8995  23.4406   S.3       1 RES1   0.0000
    28 C28     15.5583  47.3690  21.1623   C.3       1 RES1   0.0000
    29 C29     14.6124  46.7643  20.1028   C.3       1 RES1   0.0000
    30 C30     15.3144  46.6849  22.5120   C.3       1 RES1   0.0000
@<TRIPOS>BOND
     1     1     2    1
     2     2     3    1
     3     2     4    1
     4     4     5    1
     5     5     6    1
     6     6     7    2
     7     6     8   am
     8     9     8    1
     9     9    10    1
    10    10    11    2
    11    10    12   am
    12    12    13    1
    13    13    14    1
    14    14    15    1
    15    15    16    1
    16    16    17    1
    17    17    18    1
    18    18    19    1
    19    18    20    2
    20    13    21    1
    21    21    22    1
    22    21    23    1
    23    23    24    2
    24    24    25    1
    25    25    26    2
    26    26    27    1
    27     9    28    1
    28    28    29    1
    29    28    30    1
    30    27    23    1
@<TRIPOS>SUBSTRUCTURE
     1 RES1        1 GROUP             0 ****  ****    0  
@<TRIPOS>MOLECULE
ligand_76
    30    30     1     0     0
SMALL
USER_CHARGES
****
Generated from the CSD

@<TRIPOS>ATOM
     1 C1      18.2670  52.3300  16.6000   C.3       1 RES1   0.0000
     2 C2      17.3410  53.3200  17.3110   C.3       1 RES1   0.0000
     3 C3      18.1270  54.6240  17.5380   C.3       1 RES1   0.0000
     4 C4      16.8670  52.6720  18.6370   C.3       1 RES1   0.0000
     5 C5      15.9301  51.4545  18.4697   C.3       1 RES1   0.0000
     6 C6      15.5321  50.9045  19.8449   C.2       1 RES1   0.0000
     7 O7      16.4082  50.5808  20.6661   O.2       1 RES1   0.0000
     8 N8      14.2101  50.8066  20.1029   N.am      1 RES1   0.0000
     9 C9      13.6572  50.3094  21.3759   C.3       1 RES1   0.0000
    10 C10     12.6510  49.1902  21.1150   C.2       1 RES1   0.0000
    11 O11     11.6933  49.3403  20.3491   O.2       1 RES1   0.0000
    12 N12     12.8864  48.0610  21.7695   N.am      1 RES1   0.0000
    13 C13     12.0823  46.8672  21.6898   C.3       1 RES1   0.0000
    14 C14     12.8877  45.8465  20.8601   C.3       1 RES1   0.0000
    15 C15     13.2826  46.4421  19.4983   C.3       1 RES1   0.0000
    16 C16     14.0805  45.4424  18.6646   C.3       1 RES1   0.0000
    17 N17     14.4202  46.0767  17.3869   N.2       1 RES1   0.0000
    18 C18     13.6311  46.1608  16.3004   C.2       1 RES1   0.0000
    19 N19     14.0919  46.7782  15.2053   N.pl3     1 RES1   0.0000
    20 N20     12.3963  45.6352  16.3111   N.pl3     1 RES1   1.0000
    21 C21     11.7826  46.3401  23.1087   C.3       1 RES1   0.0000
    22 O22     12.9572  45.7128  23.5926   O.3       1 RES1   0.0000
    23 C23     10.6486  45.3002  23.1526   C.2       1 RES1   0.0000
    24 N24      9.9191  45.2123  24.2107   N.2       1 RES1   0.0000
    25 C25      8.9619  44.2206  24.0498   C.2       1 RES1   0.0000
    26 C26      9.0411  43.5969  22.8127   C.2       1 RES1   0.0000
    27 S27     10.2959  44.2341  21.8439   S.3       1 RES1   0.0000
    28 C28     13.0369  51.4621  22.2036   C.3       1 RES1   0.0000
    29 C29     14.0321  52.5755  22.5949   C.3       1 RES1   0.0000
    30 C30     12.3862  50.8933  23.4694   C.3       1 RES1   0.0000
@<TRIPOS>BOND
     1     1     2    1
     2     2     3    1
     3     2     4    1
     4     4     5    1
     5     5     6    1
     6     6     7    2
     7     6     8   am
     8     9     8    1
     9     9    10    1
    10    10    11    2
    11    10    12   am
    12    12    13    1
    13    13    14    1
    14    14    15    1
    15    15    16    1
    16    16    17    1
    17    17    18    1
    18    18    19    1
    19    18    20    2
    20    13    21    1
    21    21    22    1
    22    21    23    1
    23    23    24    2
    24    24    25    1
    25    25    26    2
    26    26    27    1
    27     9    28    1
    28    28    29    1
    29    28    30    1
    30    27    23    1
@<TRIPOS>SUBSTRUCTURE
     1 RES1        1 GROUP             0 ****  ****    0  
@<TRIPOS>MOLECULE
ligand_77
    30    30     1     0     0
SMALL
USER_CHARGES
****
Generated from the CSD

@<TRIPOS>ATOM
     1 C1      18.2670  52.3300  16.6000   C.3       1 RES1   0.0000
     2 C2      17.3410  53.3200  17.3110   C.3       1 RES1   0.0000
     3 C3      18.1270  54.6240  17.5380   C.3       1 RES1   0.0000
     4 C4      16.8670  52.6720  18.6370   C.3       1 RES1   0.0000
     5 C5      15.9301  51.4545  18.4697   C.3       1 RES1   0.0000
     6 C6      15.5321  50.9045  19.8449   C.2       1 RES1   0.0000
     7 O7      15.0108  51.6528  20.6905   O.2       1 RES1   0.0000
     8 N8      15.7676  49.5937  20.0685   N.am      1 RES1   0.0000
     9 C9      15.4371  48.9039  21.3289   C.3       1 RES1   0.0000
    10 C10     16.6630  48.1691  21.8676   C.2       1 RES1   0.0000
    11 O11     17.2935  47.3608  21.1781   O.2       1 RES1   0.0000
    12 N12     16.9894  48.4653  23.1185   N.am      1 RES1   0.0000
    13 C13     18.1003  47.9045  23.8461   C.3       1 RES1   0.0000
    14 C14     19.1690  49.0124  23.9436   C.3       1 RES1   0.0000
    15 C15     19.5304  49.5448  22.5469   C.3       1 RES1   0.0000
    16 C16     20.5881  50.6430  22.6271   C.3       1 RES1   0.0000
    17 N17     20.8809  51.0999  21.2648   N.2       1 RES1   0.0000
    18 C18     21.7272  50.5235  20.3921   C.2       1 RES1   0.0000
    19 N19     21.8827  51.0666  19.1780   N.pl3     1 RES1   0.0000
    20 N20     22.4074  49.4169  20.7298   N.pl3     1 RES1   1.0000
    21 C21     17.6328  47.4378  25.2406   C.3       1 RES1   0.0000
    22 O22     17.2739  48.5900  25.9829   O.3       1 RES1   0.0000
    23 C23     18.7189  46.6919  26.0365   C.2       1 RES1   0.0000
    24 N24     19.0583  47.1322  27.1985   N.2       1 RES1   0.0000
    25 C25     20.0462  46.3255  27.7452   C.2       1 RES1   0.0000
    26 C26     20.4009  45.2751  26.9106   C.2       1 RES1   0.0000
    27 S27     19.5146  45.2790  25.4500   S.3       1 RES1   0.0000
    28 C28     14.2285  47.9532  21.1451   C.3       1 RES1   0.0000
    29 C29     12.9258  48.6534  20.7027   C.3       1 RES1   0.0000
    30 C30     13.9764  47.1851  22.4473   C.3       1 RES1   0.0000
@<TRIPOS>BOND
     1     1     2    1
     2     2     3    1
     3     2     4    1
     4     4     5    1
     5     5     6    1
     6     6     7    2
     7     6     8   am
     8     9     8    1
     9     9    10    1
    10    10    11    2
    11    10    12   am
    12    12    13    1
    13    13    14    1
    14    14    15    1
    15    15    16    1
    16    16    17    1
    17    17    18    1
    18    18    19    1
    19    18    20    2
    20    13    21    1
    21    21    22    1
    22    21    23    1
    23    23    24    2
    24    24    25    1
    25    25    26    2
    26    26    27    1
    27     9    28    1
    28    28    29    1
    29    28    30    1
    30    27    23    1
@<TRIPOS>SUBSTRUCTURE
     1 RES1        1 GROUP             0 ****  ****    0  
@<TRIPOS>MOLECULE
ligand_78
    30    30     1     0     0
SMALL
USER_CHARGES
****
Generated from the CSD

@<TRIPOS>ATOM
     1 C1      18.2372  52.4571  16.6842   C.3       1 RES1   0.0000
     2 C2      17.2480  53.4039  17.3683   C.3       1 RES1   0.0000
     3 C3      17.9692  54.7403  17.6207   C.3       1 RES1   0.0000
     4 C4      16.7630  52.7324  18.6785   C.3       1 RES1   0.0000
     5 C5      15.8855  51.4757  18.4813   C.3       1 RES1   0.0000
     6 C6      15.4707  50.9052  19.8432   C.2       1 RES1   0.0000
     7 O7      14.8922  51.6279  20.6737   O.2       1 RES1   0.0000
     8 N8      15.7562  49.6053  20.0720   N.am      1 RES1   0.0000
     9 C9      15.4371  48.9039  21.3289   C.3       1 RES1   0.0000
    10 C10     16.3165  49.4248  22.4640   C.2       1 RES1   0.0000
    11 O11     15.8572  49.6702  23.5842   O.2       1 RES1   0.0000
    12 N12     17.5949  49.5904  22.1519   N.am      1 RES1   0.0000
    13 C13     18.6260  50.0255  23.0605   C.3       1 RES1   0.0000
    14 C14     19.8990  49.2349  22.6955   C.3       1 RES1   0.0000
    15 C15     19.6264  47.7216  22.7214   C.3       1 RES1   0.0000
    16 C16     20.8783  46.9249  22.3619   C.3       1 RES1   0.0000
    17 N17     20.5440  45.4978  22.4070   N.2       1 RES1   0.0000
    18 C18     20.5150  44.7170  23.5023   C.2       1 RES1   0.0000
    19 N19     20.1863  43.4253  23.3744   N.pl3     1 RES1   0.0000
    20 N20     20.8096  45.2233  24.7098   N.pl3     1 RES1   1.0000
    21 C21     18.8397  51.5474  22.9223   C.3       1 RES1   0.0000
    22 O22     19.9885  51.8917  23.6768   O.3       1 RES1   0.0000
    23 C23     17.6644  52.3854  23.4568   C.2       1 RES1   0.0000
    24 N24     16.5366  52.3516  22.8354   N.2       1 RES1   0.0000
    25 C25     15.6155  53.1711  23.4724   C.2       1 RES1   0.0000
    26 C26     16.1431  53.7991  24.5918   C.2       1 RES1   0.0000
    27 S27     17.7767  53.3780  24.8624   S.3       1 RES1   0.0000
    28 C28     15.5616  47.3696  21.1595   C.3       1 RES1   0.0000
    29 C29     14.6160  46.7646  20.0999   C.3       1 RES1   0.0000
    30 C30     15.3206  46.6826  22.5083   C.3       1 RES1   0.0000
@<TRIPOS>BOND
     1     1     2    1
     2     2     3    1
     3     2     4    1
     4     4     5    1
     5     5     6    1
     6     6     7    2
     7     6     8   am
     8     9     8    1
     9     9    10    1
    10    10    11    2
    11    10    12   am
    12    12    13    1
    13    13    14    1
    14    14    15    1
    15    15    16    1
    16    16    17    1
    17    17    18    1
    18    18    19    1
    19    18    20    2
    20    13    21    1
    21    21    22    1
    22    21    23    1
    23    23    24    2
    24    24    25    1
    25    25    26    2
    26    26    27    1
    27     9    28    1
    28    28    29    1
    29    28    30    1
    30    27    23    1
@<TRIPOS>SUBSTRUCTURE
     1 RES1        1 GROUP             0 ****  ****    0  
@<TRIPOS>MOLECULE
ligand_79
    30    30     1     0     0
SMALL
USER_CHARGES
****
Generated from the CSD

@<TRIPOS>ATOM
     1 C1      18.3143  52.3830  16.6686   C.3       1 RES1   0.0000
     2 C2      17.3348  53.3579  17.3269   C.3       1 RES1   0.0000
     3 C3      18.0671  54.6958  17.5357   C.3       1 RES1   0.0000
     4 C4      16.8498  52.7304  18.6588   C.3       1 RES1   0.0000
     5 C5      15.9621  51.4751  18.5033   C.3       1 RES1   0.0000
     6 C6      15.5482  50.9497  19.8834   C.2       1 RES1   0.0000
     7 O7      16.4135  50.6816  20.7355   O.2       1 RES1   0.0000
     8 N8      14.2243  50.8105  20.1107   N.am      1 RES1   0.0000
     9 C9      13.6572  50.3094  21.3759   C.3       1 RES1   0.0000
    10 C10     13.9679  48.8233  21.5438   C.2       1 RES1   0.0000
    11 O11     14.3486  48.3549  22.6217   O.2       1 RES1   0.0000
    12 N12     13.7986  48.0885  20.4528   N.am      1 RES1   0.0000
    13 C13     13.9826  46.6611  20.3713   C.3       1 RES1   0.0000
    14 C14     12.8883  46.1279  19.4242   C.3       1 RES1   0.0000
    15 C15     11.4934  46.5624  19.9043   C.3       1 RES1   0.0000
    16 C16     10.3987  46.0417  18.9762   C.3       1 RES1   0.0000
    17 N17      9.1032  46.4930  19.4943   N.2       1 RES1   0.0000
    18 C18      8.3822  45.9063  20.4669   C.2       1 RES1   0.0000
    19 N19      7.2120  46.4475  20.8286   N.pl3     1 RES1   0.0000
    20 N20      8.8277  44.7936  21.0707   N.pl3     1 RES1   1.0000
    21 C21     15.3978  46.3432  19.8449   C.3       1 RES1   0.0000
    22 O22     15.4605  44.9508  19.5906   O.3       1 RES1   0.0000
    23 C23     16.5176  46.6838  20.8447   C.2       1 RES1   0.0000
    24 N24     16.7534  47.9187  21.1253   N.2       1 RES1   0.0000
    25 C25     17.7938  48.0107  22.0389   C.2       1 RES1   0.0000
    26 C26     18.2962  46.7696  22.4035   C.2       1 RES1   0.0000
    27 S27     17.4845  45.4857  21.6214   S.3       1 RES1   0.0000
    28 C28     12.1371  50.5944  21.4583   C.3       1 RES1   0.0000
    29 C29     11.7636  52.0913  21.4049   C.3       1 RES1   0.0000
    30 C30     11.5665  49.9728  22.7379   C.3       1 RES1   0.0000
@<TRIPOS>BOND
     1     1     2    1
     2     2     3    1
     3     2     4    1
     4     4     5    1
     5     5     6    1
     6     6     7    2
     7     6     8   am
     8     9     8    1
     9     9    10    1
    10    10    11    2
    11    10    12   am
    12    12    13    1
    13    13    14    1
    14    14    15    1
    15    15    16    1
    16    16    17    1
    17    17    18    1
    18    18    19    1
    19    18    20    2
    20    13    21    1
    21    21    22    1
    22    21    23    1
    23    23    24    2
    24    24    25    1
    25    25    26    2
    26    26    27    1
    27     9    28    1
    28    28    29    1
    29    28    30    1
    30    27    23    1
@<TRIPOS>SUBSTRUCTURE
     1 RES1        1 GROUP             0 ****  ****    0  
@<TRIPOS>MOLECULE
ligand_80
    30    30     1     0     0
SMALL
USER_CHARGES
****
Generated from the CSD

@<TRIPOS>ATOM
     1 C1      18.4139  52.1482  16.6711   C.3       1 RES1   0.0000
     2 C2      17.4911  53.1693  17.3411   C.3       1 RES1   0.0000
     3 C3      18.2967  54.4625  17.5613   C.3       1 RES1   0.0000
     4 C4      16.9743  52.5566  18.6679   C.3       1 RES1   0.0000
     5 C5      16.0181  51.3540  18.5021   C.3       1 RES1   0.0000
     6 C6      15.5780  50.8388  19.8780   C.2       1 RES1   0.0000
     7 O7      16.4285  50.5148  20.7255   O.2       1 RES1   0.0000
     8 N8      14.2488  50.7710  20.1069   N.am      1 RES1   0.0000
     9 C9      13.6572  50.3094  21.3759   C.3       1 RES1   0.0000
    10 C10     12.6510  49.1902  21.1150   C.2       1 RES1   0.0000
    11 O11     12.6285  48.1616  21.7990   O.2       1 RES1   0.0000
    12 N12     11.8165  49.4101  20.1080   N.am      1 RES1   0.0000
    13 C13     10.8119  48.4882  19.6402   C.3       1 RES1   0.0000
    14 C14      9.4492  49.0545  20.0889   C.3       1 RES1   0.0000
    15 C15      9.2849  48.9344  21.6132   C.3       1 RES1   0.0000
    16 C16      7.9393  49.4905  22.0729   C.3       1 RES1   0.0000
    17 N17      7.8539  49.3430  23.5294   N.2       1 RES1   0.0000
    18 C18      7.4840  48.2377  24.2014   C.2       1 RES1   0.0000
    19 N19      7.4595  48.2653  25.5399   N.pl3     1 RES1   0.0000
    20 N20      7.1448  47.1191  23.5420   N.pl3     1 RES1   1.0000
    21 C21     10.8967  48.3532  18.1054   C.3       1 RES1   0.0000
    22 O22      9.8077  47.5516  17.6823   O.3       1 RES1   0.0000
    23 C23     12.1897  47.6755  17.6174   C.2       1 RES1   0.0000
    24 N24     13.3151  48.2807  17.7811   N.2       1 RES1   0.0000
    25 C25     14.3508  47.5080  17.2754   C.2       1 RES1   0.0000
    26 C26     13.9088  46.3078  16.7371   C.2       1 RES1   0.0000
    27 S27     12.2138  46.1288  16.8555   S.3       1 RES1   0.0000
    28 C28     13.0221  51.4864  22.1568   C.3       1 RES1   0.0000
    29 C29     14.0087  52.6146  22.5265   C.3       1 RES1   0.0000
    30 C30     12.3540  50.9568  23.4306   C.3       1 RES1   0.0000
@<TRIPOS>BOND
     1     1     2    1
     2     2     3    1
     3     2     4    1
     4     4     5    1
     5     5     6    1
     6     6     7    2
     7     6     8   am
     8     9     8    1
     9     9    10    1
    10    10    11    2
    11    10    12   am
    12    12    13    1
    13    13    14    1
    14    14    15    1
    15    15    16    1
    16    16    17    1
    17    17    18    1
    18    18    19    1
    19    18    20    2
    20    13    21    1
    21    21    22    1
    22    21    23    1
    23    23    24    2
    24    24    25    1
    25    25    26    2
    26    26    27    1
    27     9    28    1
    28    28    29    1
    29    28    30    1
    30    27    23    1
@<TRIPOS>SUBSTRUCTURE
     1 RES1        1 GROUP             0 ****  ****    0  
@<TRIPOS>MOLECULE
ligand_81
    30    30     1     0     0
SMALL
USER_CHARGES
****
Generated from the CSD

@<TRIPOS>ATOM
     1 C1      18.2766  52.8955  17.0629   C.3       1 RES1   0.0000
     2 C2      17.2484  53.7707  17.7839   C.3       1 RES1   0.0000
     3 C3      17.9301  55.1034  18.1430   C.3       1 RES1   0.0000
     4 C4      16.7498  53.0012  19.0337   C.3       1 RES1   0.0000
     5 C5      15.9087  51.7406  18.7311   C.3       1 RES1   0.0000
     6 C6      15.4766  51.0701  20.0409   C.2       1 RES1   0.0000
     7 O7      15.8128  51.5587  21.1340   O.2       1 RES1   0.0000
     8 N8      14.7223  49.9549  19.9348   N.am      1 RES1   0.0000
     9 C9      14.2147  49.1944  21.0913   C.3       1 RES1   0.0000
    10 C10     15.3685  48.5138  21.8253   C.2       1 RES1   0.0000
    11 O11     15.2498  48.0979  22.9825   O.2       1 RES1   0.0000
    12 N12     16.4919  48.4085  21.1283   N.am      1 RES1   0.0000
    13 C13     17.7275  47.8491  21.6165   C.3       1 RES1   0.0000
    14 C14     18.3715  47.0993  20.4324   C.3       1 RES1   0.0000
    15 C15     17.3951  46.0657  19.8466   C.3       1 RES1   0.0000
    16 C16     18.0188  45.3147  18.6726   C.3       1 RES1   0.0000
    17 N17     17.0350  44.3514  18.1680   N.2       1 RES1   0.0000
    18 C18     16.7920  43.1233  18.6608   C.2       1 RES1   0.0000
    19 N19     15.8535  42.3625  18.0837   N.pl3     1 RES1   0.0000
    20 N20     17.4784  42.6640  19.7186   N.pl3     1 RES1   1.0000
    21 C21     18.6412  48.9749  22.1444   C.3       1 RES1   0.0000
    22 O22     19.0307  49.7687  21.0374   O.3       1 RES1   0.0000
    23 C23     19.9242  48.4601  22.8214   C.2       1 RES1   0.0000
    24 N24     19.8306  47.8065  23.9274   N.2       1 RES1   0.0000
    25 C25     21.0919  47.4349  24.3709   C.2       1 RES1   0.0000
    26 C26     22.1035  47.8573  23.5201   C.2       1 RES1   0.0000
    27 S27     21.5005  48.7124  22.1694   S.3       1 RES1   0.0000
    28 C28     13.1269  48.1803  20.6591   C.3       1 RES1   0.0000
    29 C29     11.8928  48.8157  19.9837   C.3       1 RES1   0.0000
    30 C30     12.6769  47.3609  21.8738   C.3       1 RES1   0.0000
@<TRIPOS>BOND
     1     1     2    1
     2     2     3    1
     3     2     4    1
     4     4     5    1
     5     5     6    1
     6     6     7    2
     7     6     8   am
     8     9     8    1
     9     9    10    1
    10    10    11    2
    11    10    12   am
    12    12    13    1
    13    13    14    1
    14    14    15    1
    15    15    16    1
    16    16    17    1
    17    17    18    1
    18    18    19    1
    19    18    20    2
    20    13    21    1
    21    21    22    1
    22    21    23    1
    23    23    24    2
    24    24    25    1
    25    25    26    2
    26    26    27    1
    27     9    28    1
    28    28    29    1
    29    28    30    1
    30    27    23    1
@<TRIPOS>SUBSTRUCTURE
     1 RES1        1 GROUP             0 ****  ****    0  
@<TRIPOS>MOLECULE
ligand_82
    30    30     1     0     0
SMALL
USER_CHARGES
****
Generated from the CSD

@<TRIPOS>ATOM
     1 C1      18.4132  52.3193  16.7287   C.3       1 RES1   0.0000
     2 C2      17.4856  53.3149  17.4296   C.3       1 RES1   0.0000
     3 C3      18.2849  54.6047  17.6891   C.3       1 RES1   0.0000
     4 C4      16.9722  52.6594  18.7372   C.3       1 RES1   0.0000
     5 C5      16.0219  51.4577  18.5349   C.3       1 RES1   0.0000
     6 C6      15.5848  50.8986  19.8945   C.2       1 RES1   0.0000
     7 O7      15.9985  51.4176  20.9461   O.2       1 RES1   0.0000
     8 N8      14.7398  49.8452  19.8772   N.am      1 RES1   0.0000
     9 C9      14.2147  49.1944  21.0913   C.3       1 RES1   0.0000
    10 C10     14.4889  47.6924  21.0478   C.2       1 RES1   0.0000
    11 O11     14.9213  47.0802  22.0299   O.2       1 RES1   0.0000
    12 N12     14.2293  47.1086  19.8857   N.am      1 RES1   0.0000
    13 C13     14.4434  45.7150  19.5857   C.3       1 RES1   0.0000
    14 C14     13.0493  45.0589  19.5149   C.3       1 RES1   0.0000
    15 C15     12.2559  45.3254  20.8051   C.3       1 RES1   0.0000
    16 C16     10.8758  44.6744  20.7536   C.3       1 RES1   0.0000
    17 N17     10.1012  45.3218  19.6899   N.2       1 RES1   0.0000
    18 C18      9.4146  46.4746  19.7884   C.2       1 RES1   0.0000
    19 N19      8.7562  46.9356  18.7175   N.pl3     1 RES1   0.0000
    20 N20      9.3889  47.1576  20.9434   N.pl3     1 RES1   1.0000
    21 C21     15.2081  45.5761  18.2528   C.3       1 RES1   0.0000
    22 O22     14.2926  45.8312  17.2019   O.3       1 RES1   0.0000
    23 C23     15.7981  44.1728  18.0246   C.2       1 RES1   0.0000
    24 N24     16.8773  44.0515  17.3317   N.2       1 RES1   0.0000
    25 C25     17.2402  42.7151  17.2430   C.2       1 RES1   0.0000
    26 C26     16.3607  41.8768  17.9133   C.2       1 RES1   0.0000
    27 S27     15.0846  42.7359  18.6566   S.3       1 RES1   0.0000
    28 C28     12.7088  49.5012  21.2828   C.3       1 RES1   0.0000
    29 C29     12.3717  51.0034  21.3951   C.3       1 RES1   0.0000
    30 C30     12.1892  48.7687  22.5249   C.3       1 RES1   0.0000
@<TRIPOS>BOND
     1     1     2    1
     2     2     3    1
     3     2     4    1
     4     4     5    1
     5     5     6    1
     6     6     7    2
     7     6     8   am
     8     9     8    1
     9     9    10    1
    10    10    11    2
    11    10    12   am
    12    12    13    1
    13    13    14    1
    14    14    15    1
    15    15    16    1
    16    16    17    1
    17    17    18    1
    18    18    19    1
    19    18    20    2
    20    13    21    1
    21    21    22    1
    22    21    23    1
    23    23    24    2
    24    24    25    1
    25    25    26    2
    26    26    27    1
    27     9    28    1
    28    28    29    1
    29    28    30    1
    30    27    23    1
@<TRIPOS>SUBSTRUCTURE
     1 RES1        1 GROUP             0 ****  ****    0  
@<TRIPOS>MOLECULE
ligand_83
    30    30     1     0     0
SMALL
USER_CHARGES
****
Generated from the CSD

@<TRIPOS>ATOM
     1 C1      18.4102  52.3178  16.7247   C.3       1 RES1   0.0000
     2 C2      17.4837  53.3137  17.4267   C.3       1 RES1   0.0000
     3 C3      18.2838  54.6032  17.6854   C.3       1 RES1   0.0000
     4 C4      16.9713  52.6584  18.7346   C.3       1 RES1   0.0000
     5 C5      16.0203  51.4571  18.5333   C.3       1 RES1   0.0000
     6 C6      15.5843  50.8981  19.8932   C.2       1 RES1   0.0000
     7 O7      15.9993  51.4169  20.9445   O.2       1 RES1   0.0000
     8 N8      14.7389  49.8451  19.8767   N.am      1 RES1   0.0000
     9 C9      14.2147  49.1944  21.0913   C.3       1 RES1   0.0000
    10 C10     14.4889  47.6924  21.0478   C.2       1 RES1   0.0000
    11 O11     14.9213  47.0802  22.0299   O.2       1 RES1   0.0000
    12 N12     14.2293  47.1086  19.8857   N.am      1 RES1   0.0000
    13 C13     14.4448  45.7153  19.5852   C.3       1 RES1   0.0000
    14 C14     13.0513  45.0583  19.5119   C.3       1 RES1   0.0000
    15 C15     12.2555  45.3239  20.8008   C.3       1 RES1   0.0000
    16 C16     10.8638  44.6998  20.7336   C.3       1 RES1   0.0000
    17 N17     11.0148  43.2415  20.6996   N.2       1 RES1   0.0000
    18 C18     11.1746  42.4790  19.6027   C.2       1 RES1   0.0000
    19 N19     11.3407  41.1580  19.7447   N.pl3     1 RES1   0.0000
    20 N20     11.1700  43.0322  18.3799   N.pl3     1 RES1   1.0000
    21 C21     15.2117  45.5777  18.2534   C.3       1 RES1   0.0000
    22 O22     14.2974  45.8319  17.2012   O.3       1 RES1   0.0000
    23 C23     15.8039  44.1753  18.0257   C.2       1 RES1   0.0000
    24 N24     16.8853  44.0557  17.3360   N.2       1 RES1   0.0000
    25 C25     17.2499  42.7198  17.2472   C.2       1 RES1   0.0000
    26 C26     16.3692  41.8799  17.9141   C.2       1 RES1   0.0000
    27 S27     15.0900  42.7370  18.6543   S.3       1 RES1   0.0000
    28 C28     12.7090  49.5012  21.2839   C.3       1 RES1   0.0000
    29 C29     12.3716  51.0035  21.3935   C.3       1 RES1   0.0000
    30 C30     12.1909  48.7711  22.5280   C.3       1 RES1   0.0000
@<TRIPOS>BOND
     1     1     2    1
     2     2     3    1
     3     2     4    1
     4     4     5    1
     5     5     6    1
     6     6     7    2
     7     6     8   am
     8     9     8    1
     9     9    10    1
    10    10    11    2
    11    10    12   am
    12    12    13    1
    13    13    14    1
    14    14    15    1
    15    15    16    1
    16    16    17    1
    17    17    18    1
    18    18    19    1
    19    18    20    2
    20    13    21    1
    21    21    22    1
    22    21    23    1
    23    23    24    2
    24    24    25    1
    25    25    26    2
    26    26    27    1
    27     9    28    1
    28    28    29    1
    29    28    30    1
    30    27    23    1
@<TRIPOS>SUBSTRUCTURE
     1 RES1        1 GROUP             0 ****  ****    0  
@<TRIPOS>MOLECULE
ligand_84
    30    30     1     0     0
SMALL
USER_CHARGES
****
Generated from the CSD

@<TRIPOS>ATOM
     1 C1      18.4516  52.1100  16.6947   C.3       1 RES1   0.0000
     2 C2      17.5251  53.1369  17.3507   C.3       1 RES1   0.0000
     3 C3      18.3307  54.4305  17.5681   C.3       1 RES1   0.0000
     4 C4      16.9975  52.5339  18.6777   C.3       1 RES1   0.0000
     5 C5      16.0410  51.3314  18.5130   C.3       1 RES1   0.0000
     6 C6      15.5900  50.8261  19.8890   C.2       1 RES1   0.0000
     7 O7      16.4336  50.5069  20.7451   O.2       1 RES1   0.0000
     8 N8      14.2590  50.7615  20.1083   N.am      1 RES1   0.0000
     9 C9      13.6572  50.3094  21.3759   C.3       1 RES1   0.0000
    10 C10     12.6510  49.1902  21.1150   C.2       1 RES1   0.0000
    11 O11     12.6285  48.1616  21.7990   O.2       1 RES1   0.0000
    12 N12     11.8165  49.4101  20.1080   N.am      1 RES1   0.0000
    13 C13     10.7997  48.4957  19.6519   C.3       1 RES1   0.0000
    14 C14      9.4824  49.2955  19.5884   C.3       1 RES1   0.0000
    15 C15      8.9752  49.6225  21.0028   C.3       1 RES1   0.0000
    16 C16      7.6708  50.4147  20.9564   C.3       1 RES1   0.0000
    17 N17      7.2498  50.6888  22.3340   N.2       1 RES1   0.0000
    18 C18      6.5686  49.8571  23.1430   C.2       1 RES1   0.0000
    19 N19      6.2602  50.2596  24.3823   N.pl3     1 RES1   0.0000
    20 N20      6.2028  48.6381  22.7174   N.pl3     1 RES1   1.0000
    21 C21     11.1879  47.9243  18.2721   C.3       1 RES1   0.0000
    22 O22     10.9247  48.9231  17.3023   O.3       1 RES1   0.0000
    23 C23     10.3869  46.6706  17.8773   C.2       1 RES1   0.0000
    24 N24     10.9323  45.7955  17.1051   N.2       1 RES1   0.0000
    25 C25     10.0505  44.7501  16.8703   C.2       1 RES1   0.0000
    26 C26      8.8354  44.9198  17.5187   C.2       1 RES1   0.0000
    27 S27      8.7787  46.3691  18.4217   S.3       1 RES1   0.0000
    28 C28     13.0184  51.4927  22.1443   C.3       1 RES1   0.0000
    29 C29     14.0090  52.6099  22.5358   C.3       1 RES1   0.0000
    30 C30     12.3179  50.9694  23.4032   C.3       1 RES1   0.0000
@<TRIPOS>BOND
     1     1     2    1
     2     2     3    1
     3     2     4    1
     4     4     5    1
     5     5     6    1
     6     6     7    2
     7     6     8   am
     8     9     8    1
     9     9    10    1
    10    10    11    2
    11    10    12   am
    12    12    13    1
    13    13    14    1
    14    14    15    1
    15    15    16    1
    16    16    17    1
    17    17    18    1
    18    18    19    1
    19    18    20    2
    20    13    21    1
    21    21    22    1
    22    21    23    1
    23    23    24    2
    24    24    25    1
    25    25    26    2
    26    26    27    1
    27     9    28    1
    28    28    29    1
    29    28    30    1
    30    27    23    1
@<TRIPOS>SUBSTRUCTURE
     1 RES1        1 GROUP             0 ****  ****    0  
@<TRIPOS>MOLECULE
ligand_85
    30    30     1     0     0
SMALL
USER_CHARGES
****
Generated from the CSD

@<TRIPOS>ATOM
     1 C1      18.4222  52.3536  16.7622   C.3       1 RES1   0.0000
     2 C2      17.4731  53.3402  17.4471   C.3       1 RES1   0.0000
     3 C3      18.2520  54.6419  17.7093   C.3       1 RES1   0.0000
     4 C4      16.9531  52.6844  18.7519   C.3       1 RES1   0.0000
     5 C5      16.0215  51.4690  18.5447   C.3       1 RES1   0.0000
     6 C6      15.5758  50.9109  19.9019   C.2       1 RES1   0.0000
     7 O7      15.9702  51.4406  20.9556   O.2       1 RES1   0.0000
     8 N8      14.7453  49.8462  19.8801   N.am      1 RES1   0.0000
     9 C9      14.2147  49.1944  21.0913   C.3       1 RES1   0.0000
    10 C10     14.4889  47.6924  21.0478   C.2       1 RES1   0.0000
    11 O11     14.1088  46.9875  20.1072   O.2       1 RES1   0.0000
    12 N12     15.1581  47.2144  22.0883   N.am      1 RES1   0.0000
    13 C13     15.5726  45.8439  22.2557   C.3       1 RES1   0.0000
    14 C14     17.0914  45.8059  21.9893   C.3       1 RES1   0.0000
    15 C15     17.4175  46.4030  20.6101   C.3       1 RES1   0.0000
    16 C16     18.9182  46.3708  20.3311   C.3       1 RES1   0.0000
    17 N17     19.5843  47.2528  21.2948   N.2       1 RES1   0.0000
    18 C18     19.7224  48.5874  21.1954   C.2       1 RES1   0.0000
    19 N19     20.3596  49.2519  22.1677   N.pl3     1 RES1   0.0000
    20 N20     19.2276  49.2482  20.1372   N.pl3     1 RES1   1.0000
    21 C21     15.2307  45.3621  23.6811   C.3       1 RES1   0.0000
    22 O22     15.8048  44.0781  23.8515   O.3       1 RES1   0.0000
    23 C23     13.7190  45.2335  23.9416   C.2       1 RES1   0.0000
    24 N24     12.9959  46.2990  23.9760   N.2       1 RES1   0.0000
    25 C25     11.6709  45.9692  24.2231   C.2       1 RES1   0.0000
    26 C26     11.4778  44.6023  24.3646   C.2       1 RES1   0.0000
    27 S27     12.9307  43.7203  24.1908   S.3       1 RES1   0.0000
    28 C28     12.7080  49.5012  21.2762   C.3       1 RES1   0.0000
    29 C29     12.3751  51.0008  21.4297   C.3       1 RES1   0.0000
    30 C30     12.1728  48.7342  22.4905   C.3       1 RES1   0.0000
@<TRIPOS>BOND
     1     1     2    1
     2     2     3    1
     3     2     4    1
     4     4     5    1
     5     5     6    1
     6     6     7    2
     7     6     8   am
     8     9     8    1
     9     9    10    1
    10    10    11    2
    11    10    12   am
    12    12    13    1
    13    13    14    1
    14    14    15    1
    15    15    16    1
    16    16    17    1
    17    17    18    1
    18    18    19    1
    19    18    20    2
    20    13    21    1
    21    21    22    1
    22    21    23    1
    23    23    24    2
    24    24    25    1
    25    25    26    2
    26    26    27    1
    27     9    28    1
    28    28    29    1
    29    28    30    1
    30    27    23    1
@<TRIPOS>SUBSTRUCTURE
     1 RES1        1 GROUP             0 ****  ****    0  
@<TRIPOS>MOLECULE
ligand_86
    30    30     1     0     0
SMALL
USER_CHARGES
****
Generated from the CSD

@<TRIPOS>ATOM
     1 C1      18.4005  52.3503  16.7388   C.3       1 RES1   0.0000
     2 C2      17.4546  53.3374  17.4275   C.3       1 RES1   0.0000
     3 C3      18.2346  54.6394  17.6846   C.3       1 RES1   0.0000
     4 C4      16.9411  52.6827  18.7353   C.3       1 RES1   0.0000
     5 C5      16.0086  51.4670  18.5338   C.3       1 RES1   0.0000
     6 C6      15.5697  50.9100  19.8937   C.2       1 RES1   0.0000
     7 O7      15.9692  51.4408  20.9450   O.2       1 RES1   0.0000
     8 N8      14.7393  49.8452  19.8769   N.am      1 RES1   0.0000
     9 C9      14.2147  49.1944  21.0913   C.3       1 RES1   0.0000
    10 C10     14.4889  47.6924  21.0478   C.2       1 RES1   0.0000
    11 O11     14.1088  46.9875  20.1072   O.2       1 RES1   0.0000
    12 N12     15.1581  47.2144  22.0883   N.am      1 RES1   0.0000
    13 C13     15.5740  45.8442  22.2550   C.3       1 RES1   0.0000
    14 C14     17.0940  45.8091  21.9958   C.3       1 RES1   0.0000
    15 C15     17.4257  46.4080  20.6187   C.3       1 RES1   0.0000
    16 C16     18.9305  46.4091  20.3608   C.3       1 RES1   0.0000
    17 N17     19.3817  45.0172  20.2640   N.2       1 RES1   0.0000
    18 C18     19.7731  44.2302  21.2827   C.2       1 RES1   0.0000
    19 N19     20.1185  42.9612  21.0315   N.pl3     1 RES1   0.0000
    20 N20     19.8162  44.7071  22.5364   N.pl3     1 RES1   1.0000
    21 C21     15.2259  45.3591  23.6778   C.3       1 RES1   0.0000
    22 O22     15.8027  44.0763  23.8490   O.3       1 RES1   0.0000
    23 C23     13.7133  45.2259  23.9302   C.2       1 RES1   0.0000
    24 N24     12.9868  46.2892  23.9609   N.2       1 RES1   0.0000
    25 C25     11.6615  45.9553  24.2009   C.2       1 RES1   0.0000
    26 C26     11.4717  44.5878  24.3410   C.2       1 RES1   0.0000
    27 S27     12.9282  43.7102  24.1748   S.3       1 RES1   0.0000
    28 C28     12.7089  49.5012  21.2834   C.3       1 RES1   0.0000
    29 C29     12.3758  51.0013  21.4304   C.3       1 RES1   0.0000
    30 C30     12.1814  48.7406  22.5051   C.3       1 RES1   0.0000
@<TRIPOS>BOND
     1     1     2    1
     2     2     3    1
     3     2     4    1
     4     4     5    1
     5     5     6    1
     6     6     7    2
     7     6     8   am
     8     9     8    1
     9     9    10    1
    10    10    11    2
    11    10    12   am
    12    12    13    1
    13    13    14    1
    14    14    15    1
    15    15    16    1
    16    16    17    1
    17    17    18    1
    18    18    19    1
    19    18    20    2
    20    13    21    1
    21    21    22    1
    22    21    23    1
    23    23    24    2
    24    24    25    1
    25    25    26    2
    26    26    27    1
    27     9    28    1
    28    28    29    1
    29    28    30    1
    30    27    23    1
@<TRIPOS>SUBSTRUCTURE
     1 RES1        1 GROUP             0 ****  ****    0  
@<TRIPOS>MOLECULE
ligand_87
    30    30     1     0     0
SMALL
USER_CHARGES
****
Generated from the CSD

@<TRIPOS>ATOM
     1 C1      18.4878  52.3354  16.8135   C.3       1 RES1   0.0000
     2 C2      17.5460  53.3281  17.4996   C.3       1 RES1   0.0000
     3 C3      18.3385  54.6184  17.7766   C.3       1 RES1   0.0000
     4 C4      17.0096  52.6688  18.7960   C.3       1 RES1   0.0000
     5 C5      16.0650  51.4662  18.5736   C.3       1 RES1   0.0000
     6 C6      15.6039  50.9033  19.9236   C.2       1 RES1   0.0000
     7 O7      15.9975  51.4205  20.9839   O.2       1 RES1   0.0000
     8 N8      14.7610  49.8488  19.8885   N.am      1 RES1   0.0000
     9 C9      14.2147  49.1944  21.0913   C.3       1 RES1   0.0000
    10 C10     14.4889  47.6924  21.0478   C.2       1 RES1   0.0000
    11 O11     14.9213  47.0802  22.0299   O.2       1 RES1   0.0000
    12 N12     14.2293  47.1086  19.8857   N.am      1 RES1   0.0000
    13 C13     14.4315  45.7123  19.5897   C.3       1 RES1   0.0000
    14 C14     13.1074  45.1903  18.9955   C.3       1 RES1   0.0000
    15 C15     11.9381  45.4491  19.9603   C.3       1 RES1   0.0000
    16 C16     10.6194  44.9374  19.3856   C.3       1 RES1   0.0000
    17 N17      9.5556  45.2173  20.3553   N.2       1 RES1   0.0000
    18 C18      9.2328  44.4704  21.4268   C.2       1 RES1   0.0000
    19 N19      8.2299  44.8669  22.2205   N.pl3     1 RES1   0.0000
    20 N20      9.9064  43.3425  21.7010   N.pl3     1 RES1   1.0000
    21 C21     15.6046  45.5497  18.6006   C.3       1 RES1   0.0000
    22 O22     16.8002  45.8586  19.2952   O.3       1 RES1   0.0000
    23 C23     15.5186  46.4882  17.3835   C.2       1 RES1   0.0000
    24 N24     14.5878  46.3019  16.5127   N.2       1 RES1   0.0000
    25 C25     14.6847  47.2464  15.5006   C.2       1 RES1   0.0000
    26 C26     15.7397  48.1275  15.6910   C.2       1 RES1   0.0000
    27 S27     16.6136  47.7941  17.1208   S.3       1 RES1   0.0000
    28 C28     12.7059  49.5014  21.2577   C.3       1 RES1   0.0000
    29 C29     12.3723  51.0001  21.4176   C.3       1 RES1   0.0000
    30 C30     12.1533  48.7260  22.4588   C.3       1 RES1   0.0000
@<TRIPOS>BOND
     1     1     2    1
     2     2     3    1
     3     2     4    1
     4     4     5    1
     5     5     6    1
     6     6     7    2
     7     6     8   am
     8     9     8    1
     9     9    10    1
    10    10    11    2
    11    10    12   am
    12    12    13    1
    13    13    14    1
    14    14    15    1
    15    15    16    1
    16    16    17    1
    17    17    18    1
    18    18    19    1
    19    18    20    2
    20    13    21    1
    21    21    22    1
    22    21    23    1
    23    23    24    2
    24    24    25    1
    25    25    26    2
    26    26    27    1
    27     9    28    1
    28    28    29    1
    29    28    30    1
    30    27    23    1
@<TRIPOS>SUBSTRUCTURE
     1 RES1        1 GROUP             0 ****  ****    0  
@<TRIPOS>MOLECULE
ligand_88
    30    30     1     0     0
SMALL
USER_CHARGES
****
Generated from the CSD

@<TRIPOS>ATOM
     1 C1      18.2684  52.3284  16.5997   C.3       1 RES1   0.0000
     2 C2      17.3425  53.3188  17.3104   C.3       1 RES1   0.0000
     3 C3      18.1288  54.6226  17.5372   C.3       1 RES1   0.0000
     4 C4      16.8682  52.6711  18.6364   C.3       1 RES1   0.0000
     5 C5      15.9310  51.4539  18.4692   C.3       1 RES1   0.0000
     6 C6      15.5328  50.9042  19.8445   C.2       1 RES1   0.0000
     7 O7      15.0116  51.6528  20.6899   O.2       1 RES1   0.0000
     8 N8      15.7679  49.5933  20.0684   N.am      1 RES1   0.0000
     9 C9      15.4371  48.9039  21.3289   C.3       1 RES1   0.0000
    10 C10     16.3165  49.4248  22.4640   C.2       1 RES1   0.0000
    11 O11     15.8572  49.6702  23.5842   O.2       1 RES1   0.0000
    12 N12     17.5949  49.5904  22.1519   N.am      1 RES1   0.0000
    13 C13     18.6138  50.0862  23.0429   C.3       1 RES1   0.0000
    14 C14     19.4970  48.8792  23.4197   C.3       1 RES1   0.0000
    15 C15     18.7322  47.9099  24.3365   C.3       1 RES1   0.0000
    16 C16     19.5947  46.7099  24.7200   C.3       1 RES1   0.0000
    17 N17     19.8785  45.9401  23.5045   N.2       1 RES1   0.0000
    18 C18     19.0777  45.0220  22.9337   C.2       1 RES1   0.0000
    19 N19     19.4848  44.4048  21.8173   N.pl3     1 RES1   0.0000
    20 N20     17.8845  44.7271  23.4725   N.pl3     1 RES1   1.0000
    21 C21     19.4291  51.1941  22.3437   C.3       1 RES1   0.0000
    22 O22     20.1552  50.5927  21.2861   O.3       1 RES1   0.0000
    23 C23     20.4448  51.8883  23.2688   C.2       1 RES1   0.0000
    24 N24     20.0130  52.6083  24.2458   N.2       1 RES1   0.0000
    25 C25     21.0804  53.1432  24.9531   C.2       1 RES1   0.0000
    26 C26     22.3098  52.7670  24.4308   C.2       1 RES1   0.0000
    27 S27     22.1517  51.7504  23.0668   S.3       1 RES1   0.0000
    28 C28     15.5482  47.3673  21.1709   C.3       1 RES1   0.0000
    29 C29     14.6140  46.7657  20.0993   C.3       1 RES1   0.0000
    30 C30     15.2775  46.6913  22.5196   C.3       1 RES1   0.0000
@<TRIPOS>BOND
     1     1     2    1
     2     2     3    1
     3     2     4    1
     4     4     5    1
     5     5     6    1
     6     6     7    2
     7     6     8   am
     8     9     8    1
     9     9    10    1
    10    10    11    2
    11    10    12   am
    12    12    13    1
    13    13    14    1
    14    14    15    1
    15    15    16    1
    16    16    17    1
    17    17    18    1
    18    18    19    1
    19    18    20    2
    20    13    21    1
    21    21    22    1
    22    21    23    1
    23    23    24    2
    24    24    25    1
    25    25    26    2
    26    26    27    1
    27     9    28    1
    28    28    29    1
    29    28    30    1
    30    27    23    1
@<TRIPOS>SUBSTRUCTURE
     1 RES1        1 GROUP             0 ****  ****    0  
@<TRIPOS>MOLECULE
ligand_89
    30    30     1     0     0
SMALL
USER_CHARGES
****
Generated from the CSD

@<TRIPOS>ATOM
     1 C1      18.2831  52.3387  16.6270   C.3       1 RES1   0.0000
     2 C2      17.3099  53.3199  17.2853   C.3       1 RES1   0.0000
     3 C3      18.0520  54.6518  17.4978   C.3       1 RES1   0.0000
     4 C4      16.8177  52.6938  18.6152   C.3       1 RES1   0.0000
     5 C5      15.9207  51.4456  18.4559   C.3       1 RES1   0.0000
     6 C6      15.5003  50.9210  19.8343   C.2       1 RES1   0.0000
     7 O7      15.8858  51.4973  20.8668   O.2       1 RES1   0.0000
     8 N8      14.7012  49.8325  19.8545   N.am      1 RES1   0.0000
     9 C9      14.2147  49.1944  21.0913   C.3       1 RES1   0.0000
    10 C10     15.3685  48.5138  21.8253   C.2       1 RES1   0.0000
    11 O11     16.1034  47.6936  21.2655   O.2       1 RES1   0.0000
    12 N12     15.5135  48.8701  23.0945   N.am      1 RES1   0.0000
    13 C13     16.4922  48.3318  24.0057   C.3       1 RES1   0.0000
    14 C14     17.5636  49.4243  24.1993   C.3       1 RES1   0.0000
    15 C15     18.1622  49.8457  22.8469   C.3       1 RES1   0.0000
    16 C16     19.2215  50.9313  23.0217   C.3       1 RES1   0.0000
    17 N17     19.7448  51.2810  21.6973   N.2       1 RES1   0.0000
    18 C18     20.7066  50.6288  21.0192   C.2       1 RES1   0.0000
    19 N19     21.0726  51.0774  19.8119   N.pl3     1 RES1   0.0000
    20 N20     21.2928  49.5408  21.5424   N.pl3     1 RES1   1.0000
    21 C21     15.8155  47.9530  25.3397   C.3       1 RES1   0.0000
    22 O22     15.3861  49.1518  25.9609   O.3       1 RES1   0.0000
    23 C23     16.7539  47.2304  26.3229   C.2       1 RES1   0.0000
    24 N24     17.4693  47.9290  27.1350   N.2       1 RES1   0.0000
    25 C25     18.2416  47.0942  27.9302   C.2       1 RES1   0.0000
    26 C26     18.0421  45.7506  27.6463   C.2       1 RES1   0.0000
    27 S27     16.8992  45.5138  26.3986   S.3       1 RES1   0.0000
    28 C28     13.0580  48.2085  20.7936   C.3       1 RES1   0.0000
    29 C29     11.8142  48.8580  20.1503   C.3       1 RES1   0.0000
    30 C30     12.6478  47.4927  22.0854   C.3       1 RES1   0.0000
@<TRIPOS>BOND
     1     1     2    1
     2     2     3    1
     3     2     4    1
     4     4     5    1
     5     5     6    1
     6     6     7    2
     7     6     8   am
     8     9     8    1
     9     9    10    1
    10    10    11    2
    11    10    12   am
    12    12    13    1
    13    13    14    1
    14    14    15    1
    15    15    16    1
    16    16    17    1
    17    17    18    1
    18    18    19    1
    19    18    20    2
    20    13    21    1
    21    21    22    1
    22    21    23    1
    23    23    24    2
    24    24    25    1
    25    25    26    2
    26    26    27    1
    27     9    28    1
    28    28    29    1
    29    28    30    1
    30    27    23    1
@<TRIPOS>SUBSTRUCTURE
     1 RES1        1 GROUP             0 ****  ****    0  
@<TRIPOS>MOLECULE
ligand_90
    30    30     1     0     0
SMALL
USER_CHARGES
****
Generated from the CSD

@<TRIPOS>ATOM
     1 C1      18.2670  52.3300  16.6000   C.3       1 RES1   0.0000
     2 C2      17.3410  53.3200  17.3110   C.3       1 RES1   0.0000
     3 C3      18.1270  54.6240  17.5380   C.3       1 RES1   0.0000
     4 C4      16.8670  52.6720  18.6370   C.3       1 RES1   0.0000
     5 C5      15.9301  51.4545  18.4697   C.3       1 RES1   0.0000
     6 C6      15.5321  50.9045  19.8449   C.2       1 RES1   0.0000
     7 O7      15.9620  51.4413  20.8811   O.2       1 RES1   0.0000
     8 N8      14.7025  49.8390  19.8584   N.am      1 RES1   0.0000
     9 C9      14.2147  49.1944  21.0913   C.3       1 RES1   0.0000
    10 C10     14.4889  47.6924  21.0478   C.2       1 RES1   0.0000
    11 O11     14.1088  46.9875  20.1072   O.2       1 RES1   0.0000
    12 N12     15.1581  47.2144  22.0883   N.am      1 RES1   0.0000
    13 C13     15.5347  45.8356  22.2763   C.3       1 RES1   0.0000
    14 C14     17.0451  45.8287  22.5887   C.3       1 RES1   0.0000
    15 C15     17.8325  46.5567  21.4864   C.3       1 RES1   0.0000
    16 C16     19.3305  46.5581  21.7818   C.3       1 RES1   0.0000
    17 N17     19.5589  47.3468  22.9968   N.2       1 RES1   0.0000
    18 C18     19.6709  48.6854  23.0726   C.2       1 RES1   0.0000
    19 N19     19.8780  49.2565  24.2658   N.pl3     1 RES1   0.0000
    20 N20     19.5750  49.4423  21.9684   N.pl3     1 RES1   1.0000
    21 C21     14.7110  45.2183  23.4258   C.3       1 RES1   0.0000
    22 O22     15.1049  45.8550  24.6287   O.3       1 RES1   0.0000
    23 C23     14.9391  43.7065  23.6039   C.2       1 RES1   0.0000
    24 N24     15.3391  43.2630  24.7453   N.2       1 RES1   0.0000
    25 C25     15.4842  41.8838  24.6976   C.2       1 RES1   0.0000
    26 C26     15.1648  41.3554  23.4548   C.2       1 RES1   0.0000
    27 S27     14.6823  42.5592  22.3425   S.3       1 RES1   0.0000
    28 C28     12.7149  49.5011  21.3261   C.3       1 RES1   0.0000
    29 C29     12.3875  51.0003  21.4932   C.3       1 RES1   0.0000
    30 C30     12.2197  48.7319  22.5560   C.3       1 RES1   0.0000
@<TRIPOS>BOND
     1     1     2    1
     2     2     3    1
     3     2     4    1
     4     4     5    1
     5     5     6    1
     6     6     7    2
     7     6     8   am
     8     9     8    1
     9     9    10    1
    10    10    11    2
    11    10    12   am
    12    12    13    1
    13    13    14    1
    14    14    15    1
    15    15    16    1
    16    16    17    1
    17    17    18    1
    18    18    19    1
    19    18    20    2
    20    13    21    1
    21    21    22    1
    22    21    23    1
    23    23    24    2
    24    24    25    1
    25    25    26    2
    26    26    27    1
    27     9    28    1
    28    28    29    1
    29    28    30    1
    30    27    23    1
@<TRIPOS>SUBSTRUCTURE
     1 RES1        1 GROUP             0 ****  ****    0  
@<TRIPOS>MOLECULE
ligand_91
    30    30     1     0     0
SMALL
USER_CHARGES
****
Generated from the CSD

@<TRIPOS>ATOM
     1 C1      18.2670  52.3300  16.6000   C.3       1 RES1   0.0000
     2 C2      17.3410  53.3200  17.3110   C.3       1 RES1   0.0000
     3 C3      18.1270  54.6240  17.5380   C.3       1 RES1   0.0000
     4 C4      16.8670  52.6720  18.6370   C.3       1 RES1   0.0000
     5 C5      15.9301  51.4545  18.4697   C.3       1 RES1   0.0000
     6 C6      15.5321  50.9045  19.8449   C.2       1 RES1   0.0000
     7 O7      15.9620  51.4413  20.8811   O.2       1 RES1   0.0000
     8 N8      14.7025  49.8390  19.8584   N.am      1 RES1   0.0000
     9 C9      14.2147  49.1944  21.0913   C.3       1 RES1   0.0000
    10 C10     14.4889  47.6924  21.0478   C.2       1 RES1   0.0000
    11 O11     14.1088  46.9875  20.1072   O.2       1 RES1   0.0000
    12 N12     15.1581  47.2144  22.0883   N.am      1 RES1   0.0000
    13 C13     15.5347  45.8356  22.2763   C.3       1 RES1   0.0000
    14 C14     17.0451  45.8287  22.5887   C.3       1 RES1   0.0000
    15 C15     17.8327  46.5548  21.4854   C.3       1 RES1   0.0000
    16 C16     19.3272  46.5837  21.7963   C.3       1 RES1   0.0000
    17 N17     19.8331  45.2080  21.7510   N.2       1 RES1   0.0000
    18 C18     19.8557  44.3299  22.7701   C.2       1 RES1   0.0000
    19 N19     20.3148  43.0908  22.5538   N.pl3     1 RES1   0.0000
    20 N20     19.4225  44.6871  23.9891   N.pl3     1 RES1   1.0000
    21 C21     14.7110  45.2183  23.4258   C.3       1 RES1   0.0000
    22 O22     15.1049  45.8550  24.6287   O.3       1 RES1   0.0000
    23 C23     14.9391  43.7065  23.6039   C.2       1 RES1   0.0000
    24 N24     15.3391  43.2630  24.7453   N.2       1 RES1   0.0000
    25 C25     15.4842  41.8838  24.6976   C.2       1 RES1   0.0000
    26 C26     15.1648  41.3554  23.4548   C.2       1 RES1   0.0000
    27 S27     14.6823  42.5592  22.3425   S.3       1 RES1   0.0000
    28 C28     12.7149  49.5011  21.3261   C.3       1 RES1   0.0000
    29 C29     12.3869  51.0007  21.4889   C.3       1 RES1   0.0000
    30 C30     12.2209  48.7353  22.5586   C.3       1 RES1   0.0000
@<TRIPOS>BOND
     1     1     2    1
     2     2     3    1
     3     2     4    1
     4     4     5    1
     5     5     6    1
     6     6     7    2
     7     6     8   am
     8     9     8    1
     9     9    10    1
    10    10    11    2
    11    10    12   am
    12    12    13    1
    13    13    14    1
    14    14    15    1
    15    15    16    1
    16    16    17    1
    17    17    18    1
    18    18    19    1
    19    18    20    2
    20    13    21    1
    21    21    22    1
    22    21    23    1
    23    23    24    2
    24    24    25    1
    25    25    26    2
    26    26    27    1
    27     9    28    1
    28    28    29    1
    29    28    30    1
    30    27    23    1
@<TRIPOS>SUBSTRUCTURE
     1 RES1        1 GROUP             0 ****  ****    0  
@<TRIPOS>MOLECULE
ligand_92
    30    30     1     0     0
SMALL
USER_CHARGES
****
Generated from the CSD

@<TRIPOS>ATOM
     1 C1      18.2670  52.3300  16.6000   C.3       1 RES1   0.0000
     2 C2      17.3410  53.3200  17.3110   C.3       1 RES1   0.0000
     3 C3      18.1270  54.6240  17.5380   C.3       1 RES1   0.0000
     4 C4      16.8670  52.6720  18.6370   C.3       1 RES1   0.0000
     5 C5      15.9301  51.4545  18.4697   C.3       1 RES1   0.0000
     6 C6      15.5321  50.9045  19.8449   C.2       1 RES1   0.0000
     7 O7      15.0108  51.6528  20.6905   O.2       1 RES1   0.0000
     8 N8      15.7676  49.5937  20.0685   N.am      1 RES1   0.0000
     9 C9      15.4371  48.9039  21.3289   C.3       1 RES1   0.0000
    10 C10     16.6630  48.1691  21.8676   C.2       1 RES1   0.0000
    11 O11     17.2935  47.3608  21.1781   O.2       1 RES1   0.0000
    12 N12     16.9894  48.4653  23.1185   N.am      1 RES1   0.0000
    13 C13     18.1003  47.9045  23.8461   C.3       1 RES1   0.0000
    14 C14     18.6627  49.0340  24.7332   C.3       1 RES1   0.0000
    15 C15     19.0174  50.2670  23.8853   C.3       1 RES1   0.0000
    16 C16     19.5759  51.3945  24.7502   C.3       1 RES1   0.0000
    17 N17     18.5155  51.8478  25.6561   N.2       1 RES1   0.0000
    18 C18     17.5369  52.7246  25.3671   C.2       1 RES1   0.0000
    19 N19     16.6386  53.0344  26.3105   N.pl3     1 RES1   0.0000
    20 N20     17.4576  53.2824  24.1490   N.pl3     1 RES1   1.0000
    21 C21     17.6239  46.7016  24.6869   C.3       1 RES1   0.0000
    22 O22     16.7597  47.1956  25.6952   O.3       1 RES1   0.0000
    23 C23     18.7690  45.9464  25.3854   C.2       1 RES1   0.0000
    24 N24     19.6251  45.3039  24.6688   N.2       1 RES1   0.0000
    25 C25     20.5688  44.6948  25.4837   C.2       1 RES1   0.0000
    26 C26     20.3456  44.9353  26.8321   C.2       1 RES1   0.0000
    27 S27     18.9716  45.9156  27.0975   S.3       1 RES1   0.0000
    28 C28     14.2285  47.9532  21.1451   C.3       1 RES1   0.0000
    29 C29     12.9239  48.6545  20.7102   C.3       1 RES1   0.0000
    30 C30     13.9814  47.1792  22.4448   C.3       1 RES1   0.0000
@<TRIPOS>BOND
     1     1     2    1
     2     2     3    1
     3     2     4    1
     4     4     5    1
     5     5     6    1
     6     6     7    2
     7     6     8   am
     8     9     8    1
     9     9    10    1
    10    10    11    2
    11    10    12   am
    12    12    13    1
    13    13    14    1
    14    14    15    1
    15    15    16    1
    16    16    17    1
    17    17    18    1
    18    18    19    1
    19    18    20    2
    20    13    21    1
    21    21    22    1
    22    21    23    1
    23    23    24    2
    24    24    25    1
    25    25    26    2
    26    26    27    1
    27     9    28    1
    28    28    29    1
    29    28    30    1
    30    27    23    1
@<TRIPOS>SUBSTRUCTURE
     1 RES1        1 GROUP             0 ****  ****    0  
@<TRIPOS>MOLECULE
ligand_93
    30    30     1     0     0
SMALL
USER_CHARGES
****
Generated from the CSD

@<TRIPOS>ATOM
     1 C1      18.2670  52.3300  16.6000   C.3       1 RES1   0.0000
     2 C2      17.3410  53.3200  17.3110   C.3       1 RES1   0.0000
     3 C3      18.1270  54.6240  17.5380   C.3       1 RES1   0.0000
     4 C4      16.8670  52.6720  18.6370   C.3       1 RES1   0.0000
     5 C5      15.9301  51.4545  18.4697   C.3       1 RES1   0.0000
     6 C6      15.5321  50.9045  19.8449   C.2       1 RES1   0.0000
     7 O7      16.4082  50.5808  20.6661   O.2       1 RES1   0.0000
     8 N8      14.2101  50.8066  20.1029   N.am      1 RES1   0.0000
     9 C9      13.6572  50.3094  21.3759   C.3       1 RES1   0.0000
    10 C10     12.6510  49.1902  21.1150   C.2       1 RES1   0.0000
    11 O11     11.6933  49.3403  20.3491   O.2       1 RES1   0.0000
    12 N12     12.8864  48.0610  21.7695   N.am      1 RES1   0.0000
    13 C13     12.0823  46.8672  21.6898   C.3       1 RES1   0.0000
    14 C14     13.0554  45.6730  21.7664   C.3       1 RES1   0.0000
    15 C15     14.1382  45.7822  20.6798   C.3       1 RES1   0.0000
    16 C16     15.1099  44.6062  20.7429   C.3       1 RES1   0.0000
    17 N17     15.8376  44.6786  22.0140   N.2       1 RES1   0.0000
    18 C18     16.9251  45.4277  22.2718   C.2       1 RES1   0.0000
    19 N19     17.4742  45.3827  23.4922   N.pl3     1 RES1   0.0000
    20 N20     17.4546  46.2128  21.3207   N.pl3     1 RES1   1.0000
    21 C21     11.0592  46.8450  22.8446   C.3       1 RES1   0.0000
    22 O22     11.7795  46.7006  24.0561   O.3       1 RES1   0.0000
    23 C23     10.0576  45.6794  22.7577   C.2       1 RES1   0.0000
    24 N24      9.2028  45.6578  21.7943   N.2       1 RES1   0.0000
    25 C25      8.3962  44.5332  21.8966   C.2       1 RES1   0.0000
    26 C26      8.7184  43.7421  22.9902   C.2       1 RES1   0.0000
    27 S27     10.0191  44.3828  23.8939   S.3       1 RES1   0.0000
    28 C28     13.0369  51.4621  22.2036   C.3       1 RES1   0.0000
    29 C29     14.0330  52.5734  22.5985   C.3       1 RES1   0.0000
    30 C30     12.3824  50.8928  23.4673   C.3       1 RES1   0.0000
@<TRIPOS>BOND
     1     1     2    1
     2     2     3    1
     3     2     4    1
     4     4     5    1
     5     5     6    1
     6     6     7    2
     7     6     8   am
     8     9     8    1
     9     9    10    1
    10    10    11    2
    11    10    12   am
    12    12    13    1
    13    13    14    1
    14    14    15    1
    15    15    16    1
    16    16    17    1
    17    17    18    1
    18    18    19    1
    19    18    20    2
    20    13    21    1
    21    21    22    1
    22    21    23    1
    23    23    24    2
    24    24    25    1
    25    25    26    2
    26    26    27    1
    27     9    28    1
    28    28    29    1
    29    28    30    1
    30    27    23    1
@<TRIPOS>SUBSTRUCTURE
     1 RES1        1 GROUP             0 ****  ****    0  
@<TRIPOS>MOLECULE
ligand_94
    30    30     1     0     0
SMALL
USER_CHARGES
****
Generated from the CSD

@<TRIPOS>ATOM
     1 C1      18.2670  52.3300  16.6000   C.3       1 RES1   0.0000
     2 C2      17.3410  53.3200  17.3110   C.3       1 RES1   0.0000
     3 C3      18.1270  54.6240  17.5380   C.3       1 RES1   0.0000
     4 C4      16.8670  52.6720  18.6370   C.3       1 RES1   0.0000
     5 C5      15.9301  51.4545  18.4697   C.3       1 RES1   0.0000
     6 C6      15.5321  50.9045  19.8449   C.2       1 RES1   0.0000
     7 O7      16.4082  50.5808  20.6661   O.2       1 RES1   0.0000
     8 N8      14.2101  50.8066  20.1029   N.am      1 RES1   0.0000
     9 C9      13.6572  50.3094  21.3759   C.3       1 RES1   0.0000
    10 C10     12.6510  49.1902  21.1150   C.2       1 RES1   0.0000
    11 O11     11.6933  49.3403  20.3491   O.2       1 RES1   0.0000
    12 N12     12.8864  48.0610  21.7695   N.am      1 RES1   0.0000
    13 C13     12.0823  46.8672  21.6898   C.3       1 RES1   0.0000
    14 C14     13.0554  45.6730  21.7664   C.3       1 RES1   0.0000
    15 C15     14.1369  45.7811  20.6785   C.3       1 RES1   0.0000
    16 C16     15.1269  44.6217  20.7614   C.3       1 RES1   0.0000
    17 N17     14.4131  43.3831  20.4348   N.2       1 RES1   0.0000
    18 C18     13.7451  42.5938  21.2955   C.2       1 RES1   0.0000
    19 N19     13.1073  41.5127  20.8292   N.pl3     1 RES1   0.0000
    20 N20     13.7147  42.8841  22.6055   N.pl3     1 RES1   1.0000
    21 C21     11.0592  46.8450  22.8446   C.3       1 RES1   0.0000
    22 O22     11.7795  46.7006  24.0561   O.3       1 RES1   0.0000
    23 C23     10.0576  45.6794  22.7577   C.2       1 RES1   0.0000
    24 N24      9.2028  45.6578  21.7943   N.2       1 RES1   0.0000
    25 C25      8.3962  44.5332  21.8966   C.2       1 RES1   0.0000
    26 C26      8.7184  43.7421  22.9902   C.2       1 RES1   0.0000
    27 S27     10.0191  44.3828  23.8939   S.3       1 RES1   0.0000
    28 C28     13.0369  51.4621  22.2036   C.3       1 RES1   0.0000
    29 C29     14.0321  52.5755  22.5948   C.3       1 RES1   0.0000
    30 C30     12.3863  50.8933  23.4695   C.3       1 RES1   0.0000
@<TRIPOS>BOND
     1     1     2    1
     2     2     3    1
     3     2     4    1
     4     4     5    1
     5     5     6    1
     6     6     7    2
     7     6     8   am
     8     9     8    1
     9     9    10    1
    10    10    11    2
    11    10    12   am
    12    12    13    1
    13    13    14    1
    14    14    15    1
    15    15    16    1
    16    16    17    1
    17    17    18    1
    18    18    19    1
    19    18    20    2
    20    13    21    1
    21    21    22    1
    22    21    23    1
    23    23    24    2
    24    24    25    1
    25    25    26    2
    26    26    27    1
    27     9    28    1
    28    28    29    1
    29    28    30    1
    30    27    23    1
@<TRIPOS>SUBSTRUCTURE
     1 RES1        1 GROUP             0 ****  ****    0  
@<TRIPOS>MOLECULE
ligand_95
    30    30     1     0     0
SMALL
USER_CHARGES
****
Generated from the CSD

@<TRIPOS>ATOM
     1 C1      18.4503  52.3954  16.8133   C.3       1 RES1   0.0000
     2 C2      17.5066  53.3740  17.5169   C.3       1 RES1   0.0000
     3 C3      18.2918  54.6673  17.8010   C.3       1 RES1   0.0000
     4 C4      16.9854  52.6976  18.8106   C.3       1 RES1   0.0000
     5 C5      16.0479  51.4903  18.5832   C.3       1 RES1   0.0000
     6 C6      15.6015  50.9102  19.9309   C.2       1 RES1   0.0000
     7 O7      15.9994  51.4196  20.9933   O.2       1 RES1   0.0000
     8 N8      14.7663  49.8497  19.8914   N.am      1 RES1   0.0000
     9 C9      14.2147  49.1944  21.0913   C.3       1 RES1   0.0000
    10 C10     14.4889  47.6924  21.0478   C.2       1 RES1   0.0000
    11 O11     14.9213  47.0802  22.0299   O.2       1 RES1   0.0000
    12 N12     14.2293  47.1086  19.8857   N.am      1 RES1   0.0000
    13 C13     14.3892  45.7040  19.6033   C.3       1 RES1   0.0000
    14 C14     13.0279  45.0379  19.8900   C.3       1 RES1   0.0000
    15 C15     12.5847  45.3059  21.3380   C.3       1 RES1   0.0000
    16 C16     11.2641  44.6075  21.6535   C.3       1 RES1   0.0000
    17 N17     10.9063  44.9067  23.0438   N.2       1 RES1   0.0000
    18 C18     11.3584  44.2721  24.1406   C.2       1 RES1   0.0000
    19 N19     10.9336  44.6701  25.3465   N.pl3     1 RES1   0.0000
    20 N20     12.2258  43.2539  24.0316   N.pl3     1 RES1   1.0000
    21 C21     14.8222  45.5095  18.1351   C.3       1 RES1   0.0000
    22 O22     15.1016  44.1333  17.9469   O.3       1 RES1   0.0000
    23 C23     16.0897  46.2969  17.7574   C.2       1 RES1   0.0000
    24 N24     16.0408  47.5836  17.7203   N.2       1 RES1   0.0000
    25 C25     17.2780  48.0985  17.3602   C.2       1 RES1   0.0000
    26 C26     18.2253  47.1086  17.1398   C.2       1 RES1   0.0000
    27 S27     17.5920  45.5398  17.3786   S.3       1 RES1   0.0000
    28 C28     12.7052  49.5014  21.2514   C.3       1 RES1   0.0000
    29 C29     12.3685  51.0022  21.3825   C.3       1 RES1   0.0000
    30 C30     12.1538  48.7480  22.4669   C.3       1 RES1   0.0000
@<TRIPOS>BOND
     1     1     2    1
     2     2     3    1
     3     2     4    1
     4     4     5    1
     5     5     6    1
     6     6     7    2
     7     6     8   am
     8     9     8    1
     9     9    10    1
    10    10    11    2
    11    10    12   am
    12    12    13    1
    13    13    14    1
    14    14    15    1
    15    15    16    1
    16    16    17    1
    17    17    18    1
    18    18    19    1
    19    18    20    2
    20    13    21    1
    21    21    22    1
    22    21    23    1
    23    23    24    2
    24    24    25    1
    25    25    26    2
    26    26    27    1
    27     9    28    1
    28    28    29    1
    29    28    30    1
    30    27    23    1
@<TRIPOS>SUBSTRUCTURE
     1 RES1        1 GROUP             0 ****  ****    0  
@<TRIPOS>MOLECULE
ligand_96
    30    30     1     0     0
SMALL
USER_CHARGES
****
Generated from the CSD

@<TRIPOS>ATOM
     1 C1      18.3148  52.4455  16.7154   C.3       1 RES1   0.0000
     2 C2      17.3946  53.4218  17.4524   C.3       1 RES1   0.0000
     3 C3      18.1908  54.7115  17.7213   C.3       1 RES1   0.0000
     4 C4      16.9098  52.7384  18.7566   C.3       1 RES1   0.0000
     5 C5      15.9632  51.5347  18.5493   C.3       1 RES1   0.0000
     6 C6      15.5551  50.9472  19.9060   C.2       1 RES1   0.0000
     7 O7      15.0369  51.6743  20.7717   O.2       1 RES1   0.0000
     8 N8      15.7784  49.6282  20.0910   N.am      1 RES1   0.0000
     9 C9      15.4371  48.9039  21.3289   C.3       1 RES1   0.0000
    10 C10     16.6630  48.1691  21.8676   C.2       1 RES1   0.0000
    11 O11     16.9629  48.1931  23.0658   O.2       1 RES1   0.0000
    12 N12     17.3690  47.5135  20.9562   N.am      1 RES1   0.0000
    13 C13     18.5578  46.7413  21.2182   C.3       1 RES1   0.0000
    14 C14     18.1647  45.2581  21.0613   C.3       1 RES1   0.0000
    15 C15     16.9651  44.9146  21.9601   C.3       1 RES1   0.0000
    16 C16     16.5707  43.4459  21.8237   C.3       1 RES1   0.0000
    17 N17     15.4262  43.1932  22.7050   N.2       1 RES1   0.0000
    18 C18     15.4747  42.9271  24.0230   C.2       1 RES1   0.0000
    19 N19     14.3318  42.7203  24.6894   N.pl3     1 RES1   0.0000
    20 N20     16.6516  42.8705  24.6654   N.pl3     1 RES1   1.0000
    21 C21     19.6736  47.1438  20.2314   C.3       1 RES1   0.0000
    22 O22     20.8515  46.4518  20.6071   O.3       1 RES1   0.0000
    23 C23     19.9946  48.6492  20.2454   C.2       1 RES1   0.0000
    24 N24     21.1904  49.0326  20.5327   N.2       1 RES1   0.0000
    25 C25     21.2706  50.4174  20.4922   C.2       1 RES1   0.0000
    26 C26     20.0627  51.0132  20.1579   C.2       1 RES1   0.0000
    27 S27     18.8253  49.8658  19.8904   S.3       1 RES1   0.0000
    28 C28     14.2419  47.9452  21.1036   C.3       1 RES1   0.0000
    29 C29     12.9525  48.6359  20.6103   C.3       1 RES1   0.0000
    30 C30     13.9460  47.1800  22.3983   C.3       1 RES1   0.0000
@<TRIPOS>BOND
     1     1     2    1
     2     2     3    1
     3     2     4    1
     4     4     5    1
     5     5     6    1
     6     6     7    2
     7     6     8   am
     8     9     8    1
     9     9    10    1
    10    10    11    2
    11    10    12   am
    12    12    13    1
    13    13    14    1
    14    14    15    1
    15    15    16    1
    16    16    17    1
    17    17    18    1
    18    18    19    1
    19    18    20    2
    20    13    21    1
    21    21    22    1
    22    21    23    1
    23    23    24    2
    24    24    25    1
    25    25    26    2
    26    26    27    1
    27     9    28    1
    28    28    29    1
    29    28    30    1
    30    27    23    1
@<TRIPOS>SUBSTRUCTURE
     1 RES1        1 GROUP             0 ****  ****    0  
@<TRIPOS>MOLECULE
ligand_97
    30    30     1     0     0
SMALL
USER_CHARGES
****
Generated from the CSD

@<TRIPOS>ATOM
     1 C1      18.2638  52.2961  16.5736   C.3       1 RES1   0.0000
     2 C2      17.3428  53.2923  17.2825   C.3       1 RES1   0.0000
     3 C3      18.1334  54.5950  17.5010   C.3       1 RES1   0.0000
     4 C4      16.8706  52.6521  18.6129   C.3       1 RES1   0.0000
     5 C5      15.9295  51.4367  18.4541   C.3       1 RES1   0.0000
     6 C6      15.5338  50.8945  19.8330   C.2       1 RES1   0.0000
     7 O7      15.9682  51.4349  20.8654   O.2       1 RES1   0.0000
     8 N8      14.7010  49.8316  19.8540   N.am      1 RES1   0.0000
     9 C9      14.2147  49.1944  21.0913   C.3       1 RES1   0.0000
    10 C10     15.3685  48.5138  21.8253   C.2       1 RES1   0.0000
    11 O11     15.4997  48.5954  23.0510   O.2       1 RES1   0.0000
    12 N12     16.2059  47.8387  21.0494   N.am      1 RES1   0.0000
    13 C13     17.3736  47.1259  21.5037   C.3       1 RES1   0.0000
    14 C14     17.0436  45.6230  21.3962   C.3       1 RES1   0.0000
    15 C15     15.7504  45.2934  22.1604   C.3       1 RES1   0.0000
    16 C16     15.4139  43.8070  22.0688   C.3       1 RES1   0.0000
    17 N17     15.1202  43.4874  20.6681   N.2       1 RES1   0.0000
    18 C18     13.9451  43.6631  20.0368   C.2       1 RES1   0.0000
    19 N19     13.8397  43.3200  18.7468   N.pl3     1 RES1   0.0000
    20 N20     12.8902  44.1771  20.6880   N.pl3     1 RES1   1.0000
    21 C21     18.5917  47.5065  20.6363   C.3       1 RES1   0.0000
    22 O22     18.4624  46.8371  19.3942   O.3       1 RES1   0.0000
    23 C23     19.9398  47.0893  21.2509   C.2       1 RES1   0.0000
    24 N24     20.9888  47.7928  20.9976   N.2       1 RES1   0.0000
    25 C25     22.0932  47.2522  21.6409   C.2       1 RES1   0.0000
    26 C26     21.7813  46.1168  22.3752   C.2       1 RES1   0.0000
    27 S27     20.1238  45.7146  22.2755   S.3       1 RES1   0.0000
    28 C28     13.0576  48.2088  20.7945   C.3       1 RES1   0.0000
    29 C29     11.8269  48.8522  20.1204   C.3       1 RES1   0.0000
    30 C30     12.6242  47.5194  22.0931   C.3       1 RES1   0.0000
@<TRIPOS>BOND
     1     1     2    1
     2     2     3    1
     3     2     4    1
     4     4     5    1
     5     5     6    1
     6     6     7    2
     7     6     8   am
     8     9     8    1
     9     9    10    1
    10    10    11    2
    11    10    12   am
    12    12    13    1
    13    13    14    1
    14    14    15    1
    15    15    16    1
    16    16    17    1
    17    17    18    1
    18    18    19    1
    19    18    20    2
    20    13    21    1
    21    21    22    1
    22    21    23    1
    23    23    24    2
    24    24    25    1
    25    25    26    2
    26    26    27    1
    27     9    28    1
    28    28    29    1
    29    28    30    1
    30    27    23    1
@<TRIPOS>SUBSTRUCTURE
     1 RES1        1 GROUP             0 ****  ****    0  
@<TRIPOS>MOLECULE
ligand_98
    30    30     1     0     0
SMALL
USER_CHARGES
****
Generated from the CSD

@<TRIPOS>ATOM
     1 C1      18.2634  52.2925  16.5709   C.3       1 RES1   0.0000
     2 C2      17.3430  53.2894  17.2795   C.3       1 RES1   0.0000
     3 C3      18.1341  54.5919  17.4971   C.3       1 RES1   0.0000
     4 C4      16.8710  52.6500  18.6104   C.3       1 RES1   0.0000
     5 C5      15.9295  51.4348  18.4524   C.3       1 RES1   0.0000
     6 C6      15.5340  50.8935  19.8318   C.2       1 RES1   0.0000
     7 O7      15.9689  51.4343  20.8638   O.2       1 RES1   0.0000
     8 N8      14.7008  49.8308  19.8535   N.am      1 RES1   0.0000
     9 C9      14.2147  49.1944  21.0913   C.3       1 RES1   0.0000
    10 C10     15.3685  48.5138  21.8253   C.2       1 RES1   0.0000
    11 O11     15.4997  48.5954  23.0510   O.2       1 RES1   0.0000
    12 N12     16.2059  47.8387  21.0494   N.am      1 RES1   0.0000
    13 C13     17.3745  47.1272  21.5035   C.3       1 RES1   0.0000
    14 C14     17.0465  45.6240  21.3955   C.3       1 RES1   0.0000
    15 C15     15.7559  45.2918  22.1629   C.3       1 RES1   0.0000
    16 C16     15.4044  43.8107  22.0447   C.3       1 RES1   0.0000
    17 N17     16.4411  43.0355  22.7336   N.2       1 RES1   0.0000
    18 C18     17.5907  42.5846  22.1995   C.2       1 RES1   0.0000
    19 N19     18.4568  41.9234  22.9777   N.pl3     1 RES1   0.0000
    20 N20     17.8702  42.7947  20.9038   N.pl3     1 RES1   1.0000
    21 C21     18.5921  47.5097  20.6362   C.3       1 RES1   0.0000
    22 O22     18.4645  46.8395  19.3945   O.3       1 RES1   0.0000
    23 C23     19.9409  47.0953  21.2514   C.2       1 RES1   0.0000
    24 N24     20.9888  47.8002  20.9974   N.2       1 RES1   0.0000
    25 C25     22.0939  47.2620  21.6414   C.2       1 RES1   0.0000
    26 C26     21.7837  46.1270  22.3770   C.2       1 RES1   0.0000
    27 S27     20.1269  45.7221  22.2777   S.3       1 RES1   0.0000
    28 C28     13.0572  48.2090  20.7954   C.3       1 RES1   0.0000
    29 C29     11.8276  48.8519  20.1189   C.3       1 RES1   0.0000
    30 C30     12.6222  47.5224  22.0948   C.3       1 RES1   0.0000
@<TRIPOS>BOND
     1     1     2    1
     2     2     3    1
     3     2     4    1
     4     4     5    1
     5     5     6    1
     6     6     7    2
     7     6     8   am
     8     9     8    1
     9     9    10    1
    10    10    11    2
    11    10    12   am
    12    12    13    1
    13    13    14    1
    14    14    15    1
    15    15    16    1
    16    16    17    1
    17    17    18    1
    18    18    19    1
    19    18    20    2
    20    13    21    1
    21    21    22    1
    22    21    23    1
    23    23    24    2
    24    24    25    1
    25    25    26    2
    26    26    27    1
    27     9    28    1
    28    28    29    1
    29    28    30    1
    30    27    23    1
@<TRIPOS>SUBSTRUCTURE
     1 RES1        1 GROUP             0 ****  ****    0  
@<TRIPOS>MOLECULE
ligand_99
    30    30     1     0     0
SMALL
USER_CHARGES
****
Generated from the CSD

@<TRIPOS>ATOM
     1 C1      18.2303  52.3723  16.6090   C.3       1 RES1   0.0000
     2 C2      17.3000  53.3526  17.3278   C.3       1 RES1   0.0000
     3 C3      18.0782  54.6605  17.5591   C.3       1 RES1   0.0000
     4 C4      16.8343  52.6948  18.6519   C.3       1 RES1   0.0000
     5 C5      15.9048  51.4721  18.4812   C.3       1 RES1   0.0000
     6 C6      15.5146  50.9126  19.8548   C.2       1 RES1   0.0000
     7 O7      14.9910  51.6532  20.7057   O.2       1 RES1   0.0000
     8 N8      15.7592  49.6022  20.0710   N.am      1 RES1   0.0000
     9 C9      15.4371  48.9039  21.3289   C.3       1 RES1   0.0000
    10 C10     16.3165  49.4248  22.4640   C.2       1 RES1   0.0000
    11 O11     15.8572  49.6702  23.5842   O.2       1 RES1   0.0000
    12 N12     17.5949  49.5904  22.1519   N.am      1 RES1   0.0000
    13 C13     18.6164  50.0736  23.0469   C.3       1 RES1   0.0000
    14 C14     19.7784  49.0616  22.9787   C.3       1 RES1   0.0000
    15 C15     19.3889  47.7386  23.6592   C.3       1 RES1   0.0000
    16 C16     20.5300  46.7259  23.5998   C.3       1 RES1   0.0000
    17 N17     20.0882  45.4958  24.2646   N.2       1 RES1   0.0000
    18 C18     20.1072  45.2499  25.5872   C.2       1 RES1   0.0000
    19 N19     19.6644  44.0693  26.0380   N.pl3     1 RES1   0.0000
    20 N20     20.5618  46.1745  26.4472   N.pl3     1 RES1   1.0000
    21 C21     19.0641  51.4868  22.6187   C.3       1 RES1   0.0000
    22 O22     19.9157  51.3472  21.4949   O.3       1 RES1   0.0000
    23 C23     19.8505  52.2398  23.7068   C.2       1 RES1   0.0000
    24 N24     19.7947  53.5262  23.7438   N.2       1 RES1   0.0000
    25 C25     20.5685  54.0080  24.7901   C.2       1 RES1   0.0000
    26 C26     21.1866  52.9943  25.5086   C.2       1 RES1   0.0000
    27 S27     20.8127  51.4438  24.8959   S.3       1 RES1   0.0000
    28 C28     15.5581  47.3690  21.1625   C.3       1 RES1   0.0000
    29 C29     14.6120  46.7643  20.1032   C.3       1 RES1   0.0000
    30 C30     15.3142  46.6851  22.5123   C.3       1 RES1   0.0000
@<TRIPOS>BOND
     1     1     2    1
     2     2     3    1
     3     2     4    1
     4     4     5    1
     5     5     6    1
     6     6     7    2
     7     6     8   am
     8     9     8    1
     9     9    10    1
    10    10    11    2
    11    10    12   am
    12    12    13    1
    13    13    14    1
    14    14    15    1
    15    15    16    1
    16    16    17    1
    17    17    18    1
    18    18    19    1
    19    18    20    2
    20    13    21    1
    21    21    22    1
    22    21    23    1
    23    23    24    2
    24    24    25    1
    25    25    26    2
    26    26    27    1
    27     9    28    1
    28    28    29    1
    29    28    30    1
    30    27    23    1
@<TRIPOS>SUBSTRUCTURE
     1 RES1        1 GROUP             0 ****  ****    0  
