@<TRIPOS>MOLECULE
native
    18    19     1     0     0
SMALL
USER_CHARGES
****
Generated from the CSD

@<TRIPOS>ATOM
     1 O1      29.0260  63.4440  13.3650   O.3       1 RES1   0.0000
     2 C2      28.9030  64.8450  13.5390   C.3       1 RES1   0.0000
     3 C3      28.7610  65.3820  12.1220   C.3       1 RES1   0.0000
     4 N4      29.9000  65.2630  11.1830   N.2       1 RES1   1.0000
     5 C5      29.8710  65.7140   9.7930   C.3       1 RES1   0.0000
     6 C6      31.0190  65.1920   8.9450   C.3       1 RES1   0.0000
     7 N7      30.7500  65.3810   7.5060   N.2       1 RES1   1.0000
     8 C8      31.2440  66.6410   6.9600   C.3       1 RES1   0.0000
     9 C9      32.6020  66.5920   7.6590   C.3       1 RES1   0.0000
    10 O10     33.6160  65.8690   6.9940   O.3       1 RES1   0.0000
    11 C11     32.2390  66.1040   9.0560   C.3       1 RES1   0.0000
    12 O12     33.2210  65.1740   9.4700   O.3       1 RES1   0.0000
    13 C13     28.5090  66.9010  12.2090   C.2       1 RES1   0.0000
    14 C14     27.3650  67.5130  11.6710   C.2       1 RES1   0.0000
    15 C15     27.1270  68.8950  11.7740   C.2       1 RES1   0.0000
    16 C16     28.0380  69.7160  12.4180   C.2       1 RES1   0.0000
    17 C17     29.1500  69.0950  12.9410   C.2       1 RES1   0.0000
    18 C18     29.4310  67.7270  12.8650   C.2       1 RES1   0.0000
@<TRIPOS>BOND
     1     1     2    1
     2     3     2    1
     3     3     4    1
     4     4     5    1
     5     6     5    1
     6     6     7    1
     7     7     8    1
     8     8     9    1
     9     9    10    1
    10     9    11    1
    11    11    12    1
    12     3    13    1
    13    13    14    2
    14    14    15    1
    15    15    16    2
    16    16    17    1
    17    17    18    2
    18    11     6    1
    19    18    13    1
@<TRIPOS>SUBSTRUCTURE
     1 RES1        1 GROUP             0 ****  ****    0  
@<TRIPOS>MOLECULE
ligand_0
    18    19     1     0     0
SMALL
USER_CHARGES
****
Generated from the CSD

@<TRIPOS>ATOM
     1 O1      26.3861  66.2330  11.6181   O.3       1 RES1   0.0000
     2 C2      26.7458  67.5942  11.4574   C.3       1 RES1   0.0000
     3 C3      28.2675  67.5797  11.4836   C.3       1 RES1   0.0000
     4 N4      29.0033  66.7786  10.4786   N.2       1 RES1   1.0000
     5 C5      30.4460  66.8588  10.2585   C.3       1 RES1   0.0000
     6 C6      30.9625  65.9306   9.1717   C.3       1 RES1   0.0000
     7 N7      30.3425  66.2256   7.8870   N.2       1 RES1   1.0000
     8 C8      31.4374  66.5775   6.9563   C.3       1 RES1   0.0000
     9 C9      32.6276  66.5727   7.6825   C.3       1 RES1   0.0000
    10 O10     33.6399  65.8390   7.0267   O.3       1 RES1   0.0000
    11 C11     32.3594  66.2017   9.0144   C.3       1 RES1   0.0000
    12 O12     32.8989  64.9106   9.2206   O.3       1 RES1   0.0000
    13 C13     28.7170  66.9849  12.8336   C.2       1 RES1   0.0000
    14 C14     28.7127  65.6049  13.0946   C.2       1 RES1   0.0000
    15 C15     29.1467  65.0649  14.3182   C.2       1 RES1   0.0000
    16 C16     29.5957  65.8970  15.3304   C.2       1 RES1   0.0000
    17 C17     29.5950  67.2454  15.0521   C.2       1 RES1   0.0000
    18 C18     29.1745  67.8300  13.8531   C.2       1 RES1   0.0000
@<TRIPOS>BOND
     1     1     2    1
     2     3     2    1
     3     3     4    1
     4     4     5    1
     5     6     5    1
     6     6     7    1
     7     7     8    1
     8     8     9    1
     9     9    10    1
    10     9    11    1
    11    11    12    1
    12     3    13    1
    13    13    14    2
    14    14    15    1
    15    15    16    2
    16    16    17    1
    17    17    18    2
    18    11     6    1
    19    18    13    1
@<TRIPOS>SUBSTRUCTURE
     1 RES1        1 GROUP             0 ****  ****    0  
@<TRIPOS>MOLECULE
ligand_1
    18    19     1     0     0
SMALL
USER_CHARGES
****
Generated from the CSD

@<TRIPOS>ATOM
     1 O1      32.2772  66.5174  14.1627   O.3       1 RES1   0.0000
     2 C2      30.8691  66.6744  14.1900   C.3       1 RES1   0.0000
     3 C3      30.5367  67.2632  12.8265   C.3       1 RES1   0.0000
     4 N4      30.9033  66.5136  11.6031   N.2       1 RES1   1.0000
     5 C5      30.4460  66.8588  10.2585   C.3       1 RES1   0.0000
     6 C6      30.9619  65.9338   9.1687   C.3       1 RES1   0.0000
     7 N7      30.3239  66.2170   7.8902   N.2       1 RES1   1.0000
     8 C8      31.4037  66.5797   6.9462   C.3       1 RES1   0.0000
     9 C9      32.6020  66.5920   7.6590   C.3       1 RES1   0.0000
    10 O10     33.6160  65.8690   6.9940   O.3       1 RES1   0.0000
    11 C11     32.3534  66.2219   8.9949   C.3       1 RES1   0.0000
    12 O12     32.9113  64.9382   9.1988   O.3       1 RES1   0.0000
    13 C13     31.2946  68.5988  12.6844   C.2       1 RES1   0.0000
    14 C14     32.6605  68.6665  12.3643   C.2       1 RES1   0.0000
    15 C15     33.3422  69.8868  12.2114   C.2       1 RES1   0.0000
    16 C16     32.6740  71.0880  12.3827   C.2       1 RES1   0.0000
    17 C17     31.3354  70.9985  12.6923   C.2       1 RES1   0.0000
    18 C18     30.6139  69.8114  12.8544   C.2       1 RES1   0.0000
@<TRIPOS>BOND
     1     1     2    1
     2     3     2    1
     3     3     4    1
     4     4     5    1
     5     6     5    1
     6     6     7    1
     7     7     8    1
     8     8     9    1
     9     9    10    1
    10     9    11    1
    11    11    12    1
    12     3    13    1
    13    13    14    2
    14    14    15    1
    15    15    16    2
    16    16    17    1
    17    17    18    2
    18    11     6    1
    19    18    13    1
@<TRIPOS>SUBSTRUCTURE
     1 RES1        1 GROUP             0 ****  ****    0  
@<TRIPOS>MOLECULE
ligand_2
    18    19     1     0     0
SMALL
USER_CHARGES
****
Generated from the CSD

@<TRIPOS>ATOM
     1 O1      27.3952  69.1645  10.0350   O.3       1 RES1   0.0000
     2 C2      28.0950  69.0758  11.2641   C.3       1 RES1   0.0000
     3 C3      28.2675  67.5797  11.4836   C.3       1 RES1   0.0000
     4 N4      29.0033  66.7786  10.4786   N.2       1 RES1   1.0000
     5 C5      30.4460  66.8588  10.2585   C.3       1 RES1   0.0000
     6 C6      30.9625  65.9307   9.1716   C.3       1 RES1   0.0000
     7 N7      30.3422  66.2253   7.8871   N.2       1 RES1   1.0000
     8 C8      31.4367  66.5774   6.9561   C.3       1 RES1   0.0000
     9 C9      32.6271  66.5730   7.6821   C.3       1 RES1   0.0000
    10 O10     33.6395  65.8395   7.0261   O.3       1 RES1   0.0000
    11 C11     32.3593  66.2021   9.0140   C.3       1 RES1   0.0000
    12 O12     32.8991  64.9111   9.2203   O.3       1 RES1   0.0000
    13 C13     26.8663  66.9364  11.5173   C.2       1 RES1   0.0000
    14 C14     26.1651  66.5822  10.3530   C.2       1 RES1   0.0000
    15 C15     24.8982  65.9733  10.3885   C.2       1 RES1   0.0000
    16 C16     24.2848  65.7039  11.6009   C.2       1 RES1   0.0000
    17 C17     24.9912  66.0557  12.7292   C.2       1 RES1   0.0000
    18 C18     26.2515  66.6618  12.7459   C.2       1 RES1   0.0000
@<TRIPOS>BOND
     1     1     2    1
     2     3     2    1
     3     3     4    1
     4     4     5    1
     5     6     5    1
     6     6     7    1
     7     7     8    1
     8     8     9    1
     9     9    10    1
    10     9    11    1
    11    11    12    1
    12     3    13    1
    13    13    14    2
    14    14    15    1
    15    15    16    2
    16    16    17    1
    17    17    18    2
    18    11     6    1
    19    18    13    1
@<TRIPOS>SUBSTRUCTURE
     1 RES1        1 GROUP             0 ****  ****    0  
@<TRIPOS>MOLECULE
ligand_3
    18    19     1     0     0
SMALL
USER_CHARGES
****
Generated from the CSD

@<TRIPOS>ATOM
     1 O1      28.9147  65.8036  13.6074   O.3       1 RES1   0.0000
     2 C2      29.1101  67.1835  13.3509   C.3       1 RES1   0.0000
     3 C3      30.5367  67.2632  12.8265   C.3       1 RES1   0.0000
     4 N4      30.9033  66.5136  11.6031   N.2       1 RES1   1.0000
     5 C5      30.4460  66.8588  10.2585   C.3       1 RES1   0.0000
     6 C6      30.9619  65.9338   9.1687   C.3       1 RES1   0.0000
     7 N7      30.3239  66.2170   7.8902   N.2       1 RES1   1.0000
     8 C8      31.4037  66.5797   6.9462   C.3       1 RES1   0.0000
     9 C9      32.6020  66.5920   7.6590   C.3       1 RES1   0.0000
    10 O10     33.6160  65.8690   6.9940   O.3       1 RES1   0.0000
    11 C11     32.3534  66.2219   8.9949   C.3       1 RES1   0.0000
    12 O12     32.9113  64.9382   9.1988   O.3       1 RES1   0.0000
    13 C13     31.4765  66.6917  13.9075   C.2       1 RES1   0.0000
    14 C14     31.7155  65.3156  14.0555   C.2       1 RES1   0.0000
    15 C15     32.5922  64.8001  15.0265   C.2       1 RES1   0.0000
    16 C16     33.2574  65.6527  15.8921   C.2       1 RES1   0.0000
    17 C17     33.0114  66.9973  15.7271   C.2       1 RES1   0.0000
    18 C18     32.1505  67.5580  14.7781   C.2       1 RES1   0.0000
@<TRIPOS>BOND
     1     1     2    1
     2     3     2    1
     3     3     4    1
     4     4     5    1
     5     6     5    1
     6     6     7    1
     7     7     8    1
     8     8     9    1
     9     9    10    1
    10     9    11    1
    11    11    12    1
    12     3    13    1
    13    13    14    2
    14    14    15    1
    15    15    16    2
    16    16    17    1
    17    17    18    2
    18    11     6    1
    19    18    13    1
@<TRIPOS>SUBSTRUCTURE
     1 RES1        1 GROUP             0 ****  ****    0  
@<TRIPOS>MOLECULE
ligand_4
    18    19     1     0     0
SMALL
USER_CHARGES
****
Generated from the CSD

@<TRIPOS>ATOM
     1 O1      30.4318  71.0999   9.4009   O.3       1 RES1   0.0000
     2 C2      30.8609  70.7694  10.7104   C.3       1 RES1   0.0000
     3 C3      30.3139  69.3670  10.9353   C.3       1 RES1   0.0000
     4 N4      30.7168  68.2751  10.0195   N.2       1 RES1   1.0000
     5 C5      30.4460  66.8588  10.2585   C.3       1 RES1   0.0000
     6 C6      30.9313  65.9369   9.1522   C.3       1 RES1   0.0000
     7 N7      30.3414  66.2954   7.8695   N.2       1 RES1   1.0000
     8 C8      31.4627  66.6200   6.9606   C.3       1 RES1   0.0000
     9 C9      32.6425  66.5393   7.6992   C.3       1 RES1   0.0000
    10 O10     33.6270  65.7764   7.0344   O.3       1 RES1   0.0000
    11 C11     32.3412  66.1457   9.0174   C.3       1 RES1   0.0000
    12 O12     32.8168  64.8253   9.1938   O.3       1 RES1   0.0000
    13 C13     28.7794  69.4235  10.7929   C.2       1 RES1   0.0000
    14 C14     28.1333  69.4606   9.5463   C.2       1 RES1   0.0000
    15 C15     26.7330  69.4871   9.4204   C.2       1 RES1   0.0000
    16 C16     25.9287  69.4846  10.5481   C.2       1 RES1   0.0000
    17 C17     26.5825  69.4442  11.7592   C.2       1 RES1   0.0000
    18 C18     27.9696  69.4164  11.9361   C.2       1 RES1   0.0000
@<TRIPOS>BOND
     1     1     2    1
     2     3     2    1
     3     3     4    1
     4     4     5    1
     5     6     5    1
     6     6     7    1
     7     7     8    1
     8     8     9    1
     9     9    10    1
    10     9    11    1
    11    11    12    1
    12     3    13    1
    13    13    14    2
    14    14    15    1
    15    15    16    2
    16    16    17    1
    17    17    18    2
    18    11     6    1
    19    18    13    1
@<TRIPOS>SUBSTRUCTURE
     1 RES1        1 GROUP             0 ****  ****    0  
@<TRIPOS>MOLECULE
ligand_5
    18    19     1     0     0
SMALL
USER_CHARGES
****
Generated from the CSD

@<TRIPOS>ATOM
     1 O1      32.3781  69.7097  11.9319   O.3       1 RES1   0.0000
     2 C2      31.0177  69.5134  12.2769   C.3       1 RES1   0.0000
     3 C3      30.3139  69.3670  10.9353   C.3       1 RES1   0.0000
     4 N4      30.7168  68.2751  10.0195   N.2       1 RES1   1.0000
     5 C5      30.4460  66.8588  10.2585   C.3       1 RES1   0.0000
     6 C6      30.9315  65.9368   9.1522   C.3       1 RES1   0.0000
     7 N7      30.3414  66.2951   7.8696   N.2       1 RES1   1.0000
     8 C8      31.4625  66.6199   6.9606   C.3       1 RES1   0.0000
     9 C9      32.6425  66.5395   7.6991   C.3       1 RES1   0.0000
    10 O10     33.6271  65.7769   7.0343   O.3       1 RES1   0.0000
    11 C11     32.3413  66.1460   9.0174   C.3       1 RES1   0.0000
    12 O12     32.8173  64.8258   9.1939   O.3       1 RES1   0.0000
    13 C13     30.5697  70.6498  10.1184   C.2       1 RES1   0.0000
    14 C14     31.7386  70.8506   9.3661   C.2       1 RES1   0.0000
    15 C15     31.9571  72.0111   8.6028   C.2       1 RES1   0.0000
    16 C16     31.0074  73.0190   8.5740   C.2       1 RES1   0.0000
    17 C17     29.8680  72.7999   9.3153   C.2       1 RES1   0.0000
    18 C18     29.6045  71.6648  10.0887   C.2       1 RES1   0.0000
@<TRIPOS>BOND
     1     1     2    1
     2     3     2    1
     3     3     4    1
     4     4     5    1
     5     6     5    1
     6     6     7    1
     7     7     8    1
     8     8     9    1
     9     9    10    1
    10     9    11    1
    11    11    12    1
    12     3    13    1
    13    13    14    2
    14    14    15    1
    15    15    16    2
    16    16    17    1
    17    17    18    2
    18    11     6    1
    19    18    13    1
@<TRIPOS>SUBSTRUCTURE
     1 RES1        1 GROUP             0 ****  ****    0  
@<TRIPOS>MOLECULE
ligand_6
    18    19     1     0     0
SMALL
USER_CHARGES
****
Generated from the CSD

@<TRIPOS>ATOM
     1 O1      32.4877  70.6704   6.4335   O.3       1 RES1   0.0000
     2 C2      32.9308  71.0217   7.7329   C.3       1 RES1   0.0000
     3 C3      31.9088  70.3771   8.6583   C.3       1 RES1   0.0000
     4 N4      31.7110  68.9102   8.6121   N.2       1 RES1   1.0000
     5 C5      30.9355  68.1532   9.5929   C.3       1 RES1   0.0000
     6 C6      30.8324  66.6671   9.2922   C.3       1 RES1   0.0000
     7 N7      29.9873  66.4125   8.0510   N.2       1 RES1   1.0000
     8 C8      30.9047  66.6852   6.8568   C.3       1 RES1   0.0000
     9 C9      32.3208  66.6380   7.4158   C.3       1 RES1   0.0000
    10 O10     33.2324  65.9280   6.6046   O.3       1 RES1   0.0000
    11 C11     32.1897  66.1532   8.8635   C.3       1 RES1   0.0000
    12 O12     31.9554  64.7584   8.8791   O.3       1 RES1   0.0000
    13 C13     30.5199  70.9500   8.3103   C.2       1 RES1   0.0000
    14 C14     29.7735  70.5124   7.2039   C.2       1 RES1   0.0000
    15 C15     28.4968  71.0197   6.9041   C.2       1 RES1   0.0000
    16 C16     27.9252  71.9946   7.7051   C.2       1 RES1   0.0000
    17 C17     28.6723  72.4062   8.7860   C.2       1 RES1   0.0000
    18 C18     29.9438  71.9328   9.1257   C.2       1 RES1   0.0000
@<TRIPOS>BOND
     1     1     2    1
     2     3     2    1
     3     3     4    1
     4     4     5    1
     5     6     5    1
     6     6     7    1
     7     7     8    1
     8     8     9    1
     9     9    10    1
    10     9    11    1
    11    11    12    1
    12     3    13    1
    13    13    14    2
    14    14    15    1
    15    15    16    2
    16    16    17    1
    17    17    18    2
    18    11     6    1
    19    18    13    1
@<TRIPOS>SUBSTRUCTURE
     1 RES1        1 GROUP             0 ****  ****    0  
@<TRIPOS>MOLECULE
ligand_7
    18    19     1     0     0
SMALL
USER_CHARGES
****
Generated from the CSD

@<TRIPOS>ATOM
     1 O1      34.0530  70.3710   9.5378   O.3       1 RES1   0.0000
     2 C2      32.7891  70.9774   9.7452   C.3       1 RES1   0.0000
     3 C3      31.9088  70.3771   8.6583   C.3       1 RES1   0.0000
     4 N4      31.7110  68.9102   8.6121   N.2       1 RES1   1.0000
     5 C5      30.9355  68.1532   9.5929   C.3       1 RES1   0.0000
     6 C6      30.8263  66.6683   9.2884   C.3       1 RES1   0.0000
     7 N7      29.9766  66.4202   8.0491   N.2       1 RES1   1.0000
     8 C8      30.8913  66.6930   6.8529   C.3       1 RES1   0.0000
     9 C9      32.3089  66.6394   7.4073   C.3       1 RES1   0.0000
    10 O10     33.2156  65.9286   6.5914   O.3       1 RES1   0.0000
    11 C11     32.1805  66.1510   8.8540   C.3       1 RES1   0.0000
    12 O12     31.9416  64.7569   8.8664   O.3       1 RES1   0.0000
    13 C13     32.5421  70.7093   7.2919   C.2       1 RES1   0.0000
    14 C14     33.5921  69.9581   6.7388   C.2       1 RES1   0.0000
    15 C15     34.1502  70.2494   5.4815   C.2       1 RES1   0.0000
    16 C16     33.6757  71.3154   4.7351   C.2       1 RES1   0.0000
    17 C17     32.6441  72.0357   5.2943   C.2       1 RES1   0.0000
    18 C18     32.0561  71.7858   6.5384   C.2       1 RES1   0.0000
@<TRIPOS>BOND
     1     1     2    1
     2     3     2    1
     3     3     4    1
     4     4     5    1
     5     6     5    1
     6     6     7    1
     7     7     8    1
     8     8     9    1
     9     9    10    1
    10     9    11    1
    11    11    12    1
    12     3    13    1
    13    13    14    2
    14    14    15    1
    15    15    16    2
    16    16    17    1
    17    17    18    2
    18    11     6    1
    19    18    13    1
@<TRIPOS>SUBSTRUCTURE
     1 RES1        1 GROUP             0 ****  ****    0  
@<TRIPOS>MOLECULE
ligand_8
    18    19     1     0     0
SMALL
USER_CHARGES
****
Generated from the CSD

@<TRIPOS>ATOM
     1 O1      27.4128  70.0810  11.0179   O.3       1 RES1   0.0000
     2 C2      28.0016  70.7969   9.9460   C.3       1 RES1   0.0000
     3 C3      29.4194  70.2486   9.8705   C.3       1 RES1   0.0000
     4 N4      29.6265  68.8026   9.6271   N.2       1 RES1   1.0000
     5 C5      30.9355  68.1532   9.5929   C.3       1 RES1   0.0000
     6 C6      30.8801  66.6525   9.3602   C.3       1 RES1   0.0000
     7 N7      30.2365  66.3254   8.0191   N.2       1 RES1   1.0000
     8 C8      31.3270  66.5420   6.9675   C.3       1 RES1   0.0000
     9 C9      32.6400  66.5364   7.7395   C.3       1 RES1   0.0000
    10 O10     33.6658  65.7920   7.1176   O.3       1 RES1   0.0000
    11 C11     32.2873  66.1279   9.1736   C.3       1 RES1   0.0000
    12 O12     32.0537  64.7340   9.2278   O.3       1 RES1   0.0000
    13 C13     30.1017  70.4974  11.2310   C.2       1 RES1   0.0000
    14 C14     29.9202  69.6514  12.3374   C.2       1 RES1   0.0000
    15 C15     30.5635  69.8679  13.5689   C.2       1 RES1   0.0000
    16 C16     31.4104  70.9514  13.7352   C.2       1 RES1   0.0000
    17 C17     31.5768  71.7652  12.6371   C.2       1 RES1   0.0000
    18 C18     30.9608  71.5920  11.3934   C.2       1 RES1   0.0000
@<TRIPOS>BOND
     1     1     2    1
     2     3     2    1
     3     3     4    1
     4     4     5    1
     5     6     5    1
     6     6     7    1
     7     7     8    1
     8     8     9    1
     9     9    10    1
    10     9    11    1
    11    11    12    1
    12     3    13    1
    13    13    14    2
    14    14    15    1
    15    15    16    2
    16    16    17    1
    17    17    18    2
    18    11     6    1
    19    18    13    1
@<TRIPOS>SUBSTRUCTURE
     1 RES1        1 GROUP             0 ****  ****    0  
@<TRIPOS>MOLECULE
ligand_9
    18    19     1     0     0
SMALL
USER_CHARGES
****
Generated from the CSD

@<TRIPOS>ATOM
     1 O1      26.4307  68.0512  10.1513   O.3       1 RES1   0.0000
     2 C2      26.7458  67.5962  11.4559   C.3       1 RES1   0.0000
     3 C3      28.2675  67.5797  11.4836   C.3       1 RES1   0.0000
     4 N4      29.0033  66.7786  10.4786   N.2       1 RES1   1.0000
     5 C5      30.4460  66.8588  10.2585   C.3       1 RES1   0.0000
     6 C6      30.9625  65.9308   9.1715   C.3       1 RES1   0.0000
     7 N7      30.3413  66.2251   7.8872   N.2       1 RES1   1.0000
     8 C8      31.4353  66.5777   6.9556   C.3       1 RES1   0.0000
     9 C9      32.6260  66.5739   7.6810   C.3       1 RES1   0.0000
    10 O10     33.6384  65.8409   7.0246   O.3       1 RES1   0.0000
    11 C11     32.3591  66.2030   9.0132   C.3       1 RES1   0.0000
    12 O12     32.8997  64.9123   9.2192   O.3       1 RES1   0.0000
    13 C13     28.7150  66.9832  12.8335   C.2       1 RES1   0.0000
    14 C14     29.2168  67.7706  13.8827   C.2       1 RES1   0.0000
    15 C15     29.6006  67.2259  15.1209   C.2       1 RES1   0.0000
    16 C16     29.5002  65.8630  15.3472   C.2       1 RES1   0.0000
    17 C17     29.0025  65.1106  14.3070   C.2       1 RES1   0.0000
    18 C18     28.6076  65.6047  13.0596   C.2       1 RES1   0.0000
@<TRIPOS>BOND
     1     1     2    1
     2     3     2    1
     3     3     4    1
     4     4     5    1
     5     6     5    1
     6     6     7    1
     7     7     8    1
     8     8     9    1
     9     9    10    1
    10     9    11    1
    11    11    12    1
    12     3    13    1
    13    13    14    2
    14    14    15    1
    15    15    16    2
    16    16    17    1
    17    17    18    2
    18    11     6    1
    19    18    13    1
@<TRIPOS>SUBSTRUCTURE
     1 RES1        1 GROUP             0 ****  ****    0  
@<TRIPOS>MOLECULE
ligand_10
    18    19     1     0     0
SMALL
USER_CHARGES
****
Generated from the CSD

@<TRIPOS>ATOM
     1 O1      30.2169  65.4118  14.1833   O.3       1 RES1   0.0000
     2 C2      30.8647  66.6721  14.1901   C.3       1 RES1   0.0000
     3 C3      30.5367  67.2632  12.8265   C.3       1 RES1   0.0000
     4 N4      30.9033  66.5136  11.6031   N.2       1 RES1   1.0000
     5 C5      30.4460  66.8588  10.2585   C.3       1 RES1   0.0000
     6 C6      30.9619  65.9338   9.1687   C.3       1 RES1   0.0000
     7 N7      30.3239  66.2170   7.8902   N.2       1 RES1   1.0000
     8 C8      31.4037  66.5797   6.9462   C.3       1 RES1   0.0000
     9 C9      32.6020  66.5920   7.6590   C.3       1 RES1   0.0000
    10 O10     33.6160  65.8690   6.9940   O.3       1 RES1   0.0000
    11 C11     32.3534  66.2219   8.9949   C.3       1 RES1   0.0000
    12 O12     32.9113  64.9382   9.1988   O.3       1 RES1   0.0000
    13 C13     31.2990  68.5966  12.6871   C.2       1 RES1   0.0000
    14 C14     30.6705  69.8468  12.8075   C.2       1 RES1   0.0000
    15 C15     31.3735  71.0602  12.7042   C.2       1 RES1   0.0000
    16 C16     32.7384  71.0603  12.4679   C.2       1 RES1   0.0000
    17 C17     33.3347  69.8243  12.3570   C.2       1 RES1   0.0000
    18 C18     32.6801  68.5919  12.4523   C.2       1 RES1   0.0000
@<TRIPOS>BOND
     1     1     2    1
     2     3     2    1
     3     3     4    1
     4     4     5    1
     5     6     5    1
     6     6     7    1
     7     7     8    1
     8     8     9    1
     9     9    10    1
    10     9    11    1
    11    11    12    1
    12     3    13    1
    13    13    14    2
    14    14    15    1
    15    15    16    2
    16    16    17    1
    17    17    18    2
    18    11     6    1
    19    18    13    1
@<TRIPOS>SUBSTRUCTURE
     1 RES1        1 GROUP             0 ****  ****    0  
@<TRIPOS>MOLECULE
ligand_11
    18    19     1     0     0
SMALL
USER_CHARGES
****
Generated from the CSD

@<TRIPOS>ATOM
     1 O1      29.3974  69.5685  11.1108   O.3       1 RES1   0.0000
     2 C2      28.0778  69.0723  11.2543   C.3       1 RES1   0.0000
     3 C3      28.2675  67.5797  11.4836   C.3       1 RES1   0.0000
     4 N4      29.0033  66.7786  10.4786   N.2       1 RES1   1.0000
     5 C5      30.4460  66.8588  10.2585   C.3       1 RES1   0.0000
     6 C6      30.9626  65.9305   9.1718   C.3       1 RES1   0.0000
     7 N7      30.3433  66.2260   7.8869   N.2       1 RES1   1.0000
     8 C8      31.4389  66.5774   6.9567   C.3       1 RES1   0.0000
     9 C9      32.6287  66.5719   7.6836   C.3       1 RES1   0.0000
    10 O10     33.6410  65.8377   7.0282   O.3       1 RES1   0.0000
    11 C11     32.3597  66.2009   9.0152   C.3       1 RES1   0.0000
    12 O12     32.8983  64.9094   9.2216   O.3       1 RES1   0.0000
    13 C13     26.8733  66.9223  11.5336   C.2       1 RES1   0.0000
    14 C14     26.2280  66.6011  12.7391   C.2       1 RES1   0.0000
    15 C15     24.9463  66.0244  12.7808   C.2       1 RES1   0.0000
    16 C16     24.2673  65.7419  11.6069   C.2       1 RES1   0.0000
    17 C17     24.9164  66.0683  10.4374   C.2       1 RES1   0.0000
    18 C18     26.1884  66.6424  10.3440   C.2       1 RES1   0.0000
@<TRIPOS>BOND
     1     1     2    1
     2     3     2    1
     3     3     4    1
     4     4     5    1
     5     6     5    1
     6     6     7    1
     7     7     8    1
     8     8     9    1
     9     9    10    1
    10     9    11    1
    11    11    12    1
    12     3    13    1
    13    13    14    2
    14    14    15    1
    15    15    16    2
    16    16    17    1
    17    17    18    2
    18    11     6    1
    19    18    13    1
@<TRIPOS>SUBSTRUCTURE
     1 RES1        1 GROUP             0 ****  ****    0  
@<TRIPOS>MOLECULE
ligand_12
    18    19     1     0     0
SMALL
USER_CHARGES
****
Generated from the CSD

@<TRIPOS>ATOM
     1 O1      28.3090  67.5886  12.2764   O.3       1 RES1   0.0000
     2 C2      29.1155  67.1670  13.3627   C.3       1 RES1   0.0000
     3 C3      30.5367  67.2632  12.8265   C.3       1 RES1   0.0000
     4 N4      30.9033  66.5136  11.6031   N.2       1 RES1   1.0000
     5 C5      30.4460  66.8588  10.2585   C.3       1 RES1   0.0000
     6 C6      30.9622  65.9340   9.1686   C.3       1 RES1   0.0000
     7 N7      30.3242  66.2172   7.8901   N.2       1 RES1   1.0000
     8 C8      31.4040  66.5803   6.9462   C.3       1 RES1   0.0000
     9 C9      32.6023  66.5928   7.6591   C.3       1 RES1   0.0000
    10 O10     33.6165  65.8702   6.9941   O.3       1 RES1   0.0000
    11 C11     32.3537  66.2225   8.9950   C.3       1 RES1   0.0000
    12 O12     32.9119  64.9389   9.1988   O.3       1 RES1   0.0000
    13 C13     31.4924  66.7083  13.9021   C.2       1 RES1   0.0000
    14 C14     32.2135  67.5367  14.7776   C.2       1 RES1   0.0000
    15 C15     33.0651  67.0261  15.7732   C.2       1 RES1   0.0000
    16 C16     33.2287  65.6585  15.9203   C.2       1 RES1   0.0000
    17 C17     32.5099  64.8651  15.0545   C.2       1 RES1   0.0000
    18 C18     31.6516  65.3243  14.0502   C.2       1 RES1   0.0000
@<TRIPOS>BOND
     1     1     2    1
     2     3     2    1
     3     3     4    1
     4     4     5    1
     5     6     5    1
     6     6     7    1
     7     7     8    1
     8     8     9    1
     9     9    10    1
    10     9    11    1
    11    11    12    1
    12     3    13    1
    13    13    14    2
    14    14    15    1
    15    15    16    2
    16    16    17    1
    17    17    18    2
    18    11     6    1
    19    18    13    1
@<TRIPOS>SUBSTRUCTURE
     1 RES1        1 GROUP             0 ****  ****    0  
@<TRIPOS>MOLECULE
ligand_13
    18    19     1     0     0
SMALL
USER_CHARGES
****
Generated from the CSD

@<TRIPOS>ATOM
     1 O1      32.4171  69.3752  13.5113   O.3       1 RES1   0.0000
     2 C2      31.4028  70.1689  12.9204   C.3       1 RES1   0.0000
     3 C3      31.5395  69.8932  11.4299   C.3       1 RES1   0.0000
     4 N4      31.4017  68.5049  10.9328   N.2       1 RES1   1.0000
     5 C5      30.9355  68.1532   9.5929   C.3       1 RES1   0.0000
     6 C6      30.8821  66.6583   9.3247   C.3       1 RES1   0.0000
     7 N7      30.2095  66.3606   7.9911   N.2       1 RES1   1.0000
     8 C8      31.2745  66.6087   6.9205   C.3       1 RES1   0.0000
     9 C9      32.6048  66.5914   7.6619   C.3       1 RES1   0.0000
    10 O10     33.6197  65.8680   6.9987   O.3       1 RES1   0.0000
    11 C11     32.2872  66.1461   9.0933   C.3       1 RES1   0.0000
    12 O12     32.0616  64.7500   9.1186   O.3       1 RES1   0.0000
    13 C13     32.9614  70.3033  10.9958   C.2       1 RES1   0.0000
    14 C14     34.0943  69.5189  11.2678   C.2       1 RES1   0.0000
    15 C15     35.3858  69.8843  10.8488   C.2       1 RES1   0.0000
    16 C16     35.5867  71.0601  10.1447   C.2       1 RES1   0.0000
    17 C17     34.4625  71.8116   9.8858   C.2       1 RES1   0.0000
    18 C18     33.1594  71.4912  10.2801   C.2       1 RES1   0.0000
@<TRIPOS>BOND
     1     1     2    1
     2     3     2    1
     3     3     4    1
     4     4     5    1
     5     6     5    1
     6     6     7    1
     7     7     8    1
     8     8     9    1
     9     9    10    1
    10     9    11    1
    11    11    12    1
    12     3    13    1
    13    13    14    2
    14    14    15    1
    15    15    16    2
    16    16    17    1
    17    17    18    2
    18    11     6    1
    19    18    13    1
@<TRIPOS>SUBSTRUCTURE
     1 RES1        1 GROUP             0 ****  ****    0  
@<TRIPOS>MOLECULE
ligand_14
    18    19     1     0     0
SMALL
USER_CHARGES
****
Generated from the CSD

@<TRIPOS>ATOM
     1 O1      32.2697  70.5974  10.7558   O.3       1 RES1   0.0000
     2 C2      30.8636  70.7687  10.7125   C.3       1 RES1   0.0000
     3 C3      30.3139  69.3670  10.9353   C.3       1 RES1   0.0000
     4 N4      30.7168  68.2751  10.0195   N.2       1 RES1   1.0000
     5 C5      30.4460  66.8588  10.2585   C.3       1 RES1   0.0000
     6 C6      30.9312  65.9369   9.1521   C.3       1 RES1   0.0000
     7 N7      30.3418  66.2960   7.8693   N.2       1 RES1   1.0000
     8 C8      31.4636  66.6203   6.9609   C.3       1 RES1   0.0000
     9 C9      32.6432  66.5388   7.6998   C.3       1 RES1   0.0000
    10 O10     33.6275  65.7756   7.0351   O.3       1 RES1   0.0000
    11 C11     32.3413  66.1450   9.0178   C.3       1 RES1   0.0000
    12 O12     32.8162  64.8244   9.1941   O.3       1 RES1   0.0000
    13 C13     28.7797  69.4260  10.7900   C.2       1 RES1   0.0000
    14 C14     27.9104  69.3861  11.8925   C.2       1 RES1   0.0000
    15 C15     26.5130  69.4650  11.7574   C.2       1 RES1   0.0000
    16 C16     25.9365  69.5800  10.5031   C.2       1 RES1   0.0000
    17 C17     26.8069  69.6210   9.4371   C.2       1 RES1   0.0000
    18 C18     28.2011  69.5466   9.5198   C.2       1 RES1   0.0000
@<TRIPOS>BOND
     1     1     2    1
     2     3     2    1
     3     3     4    1
     4     4     5    1
     5     6     5    1
     6     6     7    1
     7     7     8    1
     8     8     9    1
     9     9    10    1
    10     9    11    1
    11    11    12    1
    12     3    13    1
    13    13    14    2
    14    14    15    1
    15    15    16    2
    16    16    17    1
    17    17    18    2
    18    11     6    1
    19    18    13    1
@<TRIPOS>SUBSTRUCTURE
     1 RES1        1 GROUP             0 ****  ****    0  
@<TRIPOS>MOLECULE
ligand_15
    18    19     1     0     0
SMALL
USER_CHARGES
****
Generated from the CSD

@<TRIPOS>ATOM
     1 O1      29.9614  70.9897   7.7425   O.3       1 RES1   0.0000
     2 C2      30.2554  71.2619   9.1018   C.3       1 RES1   0.0000
     3 C3      29.4194  70.2486   9.8705   C.3       1 RES1   0.0000
     4 N4      29.6265  68.8026   9.6271   N.2       1 RES1   1.0000
     5 C5      30.9355  68.1532   9.5929   C.3       1 RES1   0.0000
     6 C6      30.8802  66.6526   9.3589   C.3       1 RES1   0.0000
     7 N7      30.2376  66.3267   8.0170   N.2       1 RES1   1.0000
     8 C8      31.3290  66.5441   6.9665   C.3       1 RES1   0.0000
     9 C9      32.6413  66.5378   7.7395   C.3       1 RES1   0.0000
    10 O10     33.6676  65.7939   7.1178   O.3       1 RES1   0.0000
    11 C11     32.2875  66.1282   9.1730   C.3       1 RES1   0.0000
    12 O12     32.0537  64.7342   9.2259   O.3       1 RES1   0.0000
    13 C13     27.9379  70.4774   9.5081   C.2       1 RES1   0.0000
    14 C14     27.3742  70.0334   8.3007   C.2       1 RES1   0.0000
    15 C15     26.0171  70.2223   7.9847   C.2       1 RES1   0.0000
    16 C16     25.1760  70.8735   8.8720   C.2       1 RES1   0.0000
    17 C17     25.7482  71.2969  10.0505   C.2       1 RES1   0.0000
    18 C18     27.0898  71.1328  10.4103   C.2       1 RES1   0.0000
@<TRIPOS>BOND
     1     1     2    1
     2     3     2    1
     3     3     4    1
     4     4     5    1
     5     6     5    1
     6     6     7    1
     7     7     8    1
     8     8     9    1
     9     9    10    1
    10     9    11    1
    11    11    12    1
    12     3    13    1
    13    13    14    2
    14    14    15    1
    15    15    16    2
    16    16    17    1
    17    17    18    2
    18    11     6    1
    19    18    13    1
@<TRIPOS>SUBSTRUCTURE
     1 RES1        1 GROUP             0 ****  ****    0  
@<TRIPOS>MOLECULE
ligand_16
    18    19     1     0     0
SMALL
USER_CHARGES
****
Generated from the CSD

@<TRIPOS>ATOM
     1 O1      29.2986  70.2699  11.8858   O.3       1 RES1   0.0000
     2 C2      30.3957  70.8761  11.2246   C.3       1 RES1   0.0000
     3 C3      31.5395  69.8932  11.4299   C.3       1 RES1   0.0000
     4 N4      31.4017  68.5049  10.9328   N.2       1 RES1   1.0000
     5 C5      30.9355  68.1532   9.5929   C.3       1 RES1   0.0000
     6 C6      30.8821  66.6583   9.3247   C.3       1 RES1   0.0000
     7 N7      30.2095  66.3606   7.9911   N.2       1 RES1   1.0000
     8 C8      31.2746  66.6087   6.9205   C.3       1 RES1   0.0000
     9 C9      32.6049  66.5914   7.6620   C.3       1 RES1   0.0000
    10 O10     33.6199  65.8680   6.9989   O.3       1 RES1   0.0000
    11 C11     32.2872  66.1461   9.0934   C.3       1 RES1   0.0000
    12 O12     32.0616  64.7500   9.1187   O.3       1 RES1   0.0000
    13 C13     31.7585  69.7240  12.9470   C.2       1 RES1   0.0000
    14 C14     30.9258  68.9276  13.7503   C.2       1 RES1   0.0000
    15 C15     31.1435  68.7563  15.1289   C.2       1 RES1   0.0000
    16 C16     32.2063  69.3879  15.7535   C.2       1 RES1   0.0000
    17 C17     33.0116  70.1603  14.9469   C.2       1 RES1   0.0000
    18 C18     32.8372  70.3613  13.5738   C.2       1 RES1   0.0000
@<TRIPOS>BOND
     1     1     2    1
     2     3     2    1
     3     3     4    1
     4     4     5    1
     5     6     5    1
     6     6     7    1
     7     7     8    1
     8     8     9    1
     9     9    10    1
    10     9    11    1
    11    11    12    1
    12     3    13    1
    13    13    14    2
    14    14    15    1
    15    15    16    2
    16    16    17    1
    17    17    18    2
    18    11     6    1
    19    18    13    1
@<TRIPOS>SUBSTRUCTURE
     1 RES1        1 GROUP             0 ****  ****    0  
@<TRIPOS>MOLECULE
ligand_17
    18    19     1     0     0
SMALL
USER_CHARGES
****
Generated from the CSD

@<TRIPOS>ATOM
     1 O1      30.8624  68.2745  12.9043   O.3       1 RES1   0.0000
     2 C2      31.0341  69.5283  12.2664   C.3       1 RES1   0.0000
     3 C3      30.3139  69.3670  10.9353   C.3       1 RES1   0.0000
     4 N4      30.7168  68.2751  10.0195   N.2       1 RES1   1.0000
     5 C5      30.4460  66.8588  10.2585   C.3       1 RES1   0.0000
     6 C6      30.9296  65.9370   9.1512   C.3       1 RES1   0.0000
     7 N7      30.3378  66.2960   7.8695   N.2       1 RES1   1.0000
     8 C8      31.4579  66.6206   6.9591   C.3       1 RES1   0.0000
     9 C9      32.6388  66.5395   7.6960   C.3       1 RES1   0.0000
    10 O10     33.6222  65.7767   7.0295   O.3       1 RES1   0.0000
    11 C11     32.3393  66.1457   9.0145   C.3       1 RES1   0.0000
    12 O12     32.8150  64.8252   9.1899   O.3       1 RES1   0.0000
    13 C13     30.5439  70.6485  10.1086   C.2       1 RES1   0.0000
    14 C14     29.5921  71.6778  10.0228   C.2       1 RES1   0.0000
    15 C15     29.8156  72.8556   9.2879   C.2       1 RES1   0.0000
    16 C16     31.0062  73.0385   8.6040   C.2       1 RES1   0.0000
    17 C17     31.9263  72.0191   8.7048   C.2       1 RES1   0.0000
    18 C18     31.7513  70.8312   9.4220   C.2       1 RES1   0.0000
@<TRIPOS>BOND
     1     1     2    1
     2     3     2    1
     3     3     4    1
     4     4     5    1
     5     6     5    1
     6     6     7    1
     7     7     8    1
     8     8     9    1
     9     9    10    1
    10     9    11    1
    11    11    12    1
    12     3    13    1
    13    13    14    2
    14    14    15    1
    15    15    16    2
    16    16    17    1
    17    17    18    2
    18    11     6    1
    19    18    13    1
@<TRIPOS>SUBSTRUCTURE
     1 RES1        1 GROUP             0 ****  ****    0  
@<TRIPOS>MOLECULE
ligand_18
    18    19     1     0     0
SMALL
USER_CHARGES
****
Generated from the CSD

@<TRIPOS>ATOM
     1 O1      26.2858  67.5303  11.1870   O.3       1 RES1   0.0000
     2 C2      26.5156  67.1380   9.8448   C.3       1 RES1   0.0000
     3 C3      27.9911  67.4361   9.6205   C.3       1 RES1   0.0000
     4 N4      29.0033  66.7786  10.4786   N.2       1 RES1   1.0000
     5 C5      30.4460  66.8588  10.2585   C.3       1 RES1   0.0000
     6 C6      30.9684  65.9021   9.1996   C.3       1 RES1   0.0000
     7 N7      30.4963  66.2744   7.8728   N.2       1 RES1   1.0000
     8 C8      31.6983  66.5341   7.0502   C.3       1 RES1   0.0000
     9 C9      32.8130  66.4046   7.8778   C.3       1 RES1   0.0000
    10 O10     33.8066  65.5875   7.2961   O.3       1 RES1   0.0000
    11 C11     32.3930  66.0408   9.1718   C.3       1 RES1   0.0000
    12 O12     32.7883  64.7010   9.3941   O.3       1 RES1   0.0000
    13 C13     28.2178  68.9416   9.8664   C.2       1 RES1   0.0000
    14 C14     28.3307  69.4923  11.1536   C.2       1 RES1   0.0000
    15 C15     28.5620  70.8618  11.3730   C.2       1 RES1   0.0000
    16 C16     28.6814  71.7318  10.3018   C.2       1 RES1   0.0000
    17 C17     28.5713  71.1705   9.0494   C.2       1 RES1   0.0000
    18 C18     28.3423  69.8173   8.7800   C.2       1 RES1   0.0000
@<TRIPOS>BOND
     1     1     2    1
     2     3     2    1
     3     3     4    1
     4     4     5    1
     5     6     5    1
     6     6     7    1
     7     7     8    1
     8     8     9    1
     9     9    10    1
    10     9    11    1
    11    11    12    1
    12     3    13    1
    13    13    14    2
    14    14    15    1
    15    15    16    2
    16    16    17    1
    17    17    18    2
    18    11     6    1
    19    18    13    1
@<TRIPOS>SUBSTRUCTURE
     1 RES1        1 GROUP             0 ****  ****    0  
@<TRIPOS>MOLECULE
ligand_19
    18    19     1     0     0
SMALL
USER_CHARGES
****
Generated from the CSD

@<TRIPOS>ATOM
     1 O1      26.1961  66.0301  10.4245   O.3       1 RES1   0.0000
     2 C2      26.8787  65.8740  11.6565   C.3       1 RES1   0.0000
     3 C3      28.3364  65.7062  11.2523   C.3       1 RES1   0.0000
     4 N4      29.0033  66.7786  10.4786   N.2       1 RES1   1.0000
     5 C5      30.4460  66.8588  10.2585   C.3       1 RES1   0.0000
     6 C6      30.9542  65.9738   9.1324   C.3       1 RES1   0.0000
     7 N7      30.3464  66.3378   7.8597   N.2       1 RES1   1.0000
     8 C8      31.4521  66.7148   6.9519   C.3       1 RES1   0.0000
     9 C9      32.6379  66.6572   7.6832   C.3       1 RES1   0.0000
    10 O10     33.6423  65.9385   6.9993   O.3       1 RES1   0.0000
    11 C11     32.3561  66.2294   8.9951   C.3       1 RES1   0.0000
    12 O12     32.8738  64.9216   9.1440   O.3       1 RES1   0.0000
    13 C13     28.4399  64.4692  10.3372   C.2       1 RES1   0.0000
    14 C14     28.0662  64.4927   8.9835   C.2       1 RES1   0.0000
    15 C15     28.1852  63.3693   8.1461   C.2       1 RES1   0.0000
    16 C16     28.6795  62.1748   8.6436   C.2       1 RES1   0.0000
    17 C17     29.0430  62.1751   9.9716   C.2       1 RES1   0.0000
    18 C18     28.9443  63.2642  10.8435   C.2       1 RES1   0.0000
@<TRIPOS>BOND
     1     1     2    1
     2     3     2    1
     3     3     4    1
     4     4     5    1
     5     6     5    1
     6     6     7    1
     7     7     8    1
     8     8     9    1
     9     9    10    1
    10     9    11    1
    11    11    12    1
    12     3    13    1
    13    13    14    2
    14    14    15    1
    15    15    16    2
    16    16    17    1
    17    17    18    2
    18    11     6    1
    19    18    13    1
@<TRIPOS>SUBSTRUCTURE
     1 RES1        1 GROUP             0 ****  ****    0  
@<TRIPOS>MOLECULE
ligand_20
    18    19     1     0     0
SMALL
USER_CHARGES
****
Generated from the CSD

@<TRIPOS>ATOM
     1 O1      31.0815  66.1843  14.4838   O.3       1 RES1   0.0000
     2 C2      31.0334  65.0016  13.7046   C.3       1 RES1   0.0000
     3 C3      30.3233  65.4291  12.4281   C.3       1 RES1   0.0000
     4 N4      30.9033  66.5136  11.6031   N.2       1 RES1   1.0000
     5 C5      30.4460  66.8588  10.2585   C.3       1 RES1   0.0000
     6 C6      30.9603  65.9326   9.1689   C.3       1 RES1   0.0000
     7 N7      30.3137  66.2084   7.8931   N.2       1 RES1   1.0000
     8 C8      31.3864  66.5731   6.9418   C.3       1 RES1   0.0000
     9 C9      32.5886  66.5937   7.6478   C.3       1 RES1   0.0000
    10 O10     33.6024  65.8734   6.9795   O.3       1 RES1   0.0000
    11 C11     32.3494  66.2269   8.9863   C.3       1 RES1   0.0000
    12 O12     32.9147  64.9467   9.1914   O.3       1 RES1   0.0000
    13 C13     28.9276  65.9612  12.8122   C.2       1 RES1   0.0000
    14 C14     28.7237  67.2471  13.3389   C.2       1 RES1   0.0000
    15 C15     27.4468  67.7375  13.6648   C.2       1 RES1   0.0000
    16 C16     26.3249  66.9466  13.4789   C.2       1 RES1   0.0000
    17 C17     26.5472  65.6915  12.9582   C.2       1 RES1   0.0000
    18 C18     27.7953  65.1593  12.6185   C.2       1 RES1   0.0000
@<TRIPOS>BOND
     1     1     2    1
     2     3     2    1
     3     3     4    1
     4     4     5    1
     5     6     5    1
     6     6     7    1
     7     7     8    1
     8     8     9    1
     9     9    10    1
    10     9    11    1
    11    11    12    1
    12     3    13    1
    13    13    14    2
    14    14    15    1
    15    15    16    2
    16    16    17    1
    17    17    18    2
    18    11     6    1
    19    18    13    1
@<TRIPOS>SUBSTRUCTURE
     1 RES1        1 GROUP             0 ****  ****    0  
@<TRIPOS>MOLECULE
ligand_21
    18    19     1     0     0
SMALL
USER_CHARGES
****
Generated from the CSD

@<TRIPOS>ATOM
     1 O1      28.0087  66.8995  13.2119   O.3       1 RES1   0.0000
     2 C2      28.5153  65.6545  12.7629   C.3       1 RES1   0.0000
     3 C3      28.3364  65.7062  11.2523   C.3       1 RES1   0.0000
     4 N4      29.0033  66.7786  10.4786   N.2       1 RES1   1.0000
     5 C5      30.4460  66.8588  10.2585   C.3       1 RES1   0.0000
     6 C6      30.9616  65.9355   9.1671   C.3       1 RES1   0.0000
     7 N7      30.3480  66.2429   7.8822   N.2       1 RES1   1.0000
     8 C8      31.4482  66.5954   6.9581   C.3       1 RES1   0.0000
     9 C9      32.6356  66.5790   7.6887   C.3       1 RES1   0.0000
    10 O10     33.6464  65.8444   7.0314   O.3       1 RES1   0.0000
    11 C11     32.3605  66.2001   9.0169   C.3       1 RES1   0.0000
    12 O12     32.8922  64.9046   9.2160   O.3       1 RES1   0.0000
    13 C13     26.8372  65.9115  10.9548   C.2       1 RES1   0.0000
    14 C14     26.2265  67.1763  10.9682   C.2       1 RES1   0.0000
    15 C15     24.8645  67.3620  10.6722   C.2       1 RES1   0.0000
    16 C16     24.0624  66.2774  10.3578   C.2       1 RES1   0.0000
    17 C17     24.6820  65.0479  10.3468   C.2       1 RES1   0.0000
    18 C18     26.0305  64.8121  10.6331   C.2       1 RES1   0.0000
@<TRIPOS>BOND
     1     1     2    1
     2     3     2    1
     3     3     4    1
     4     4     5    1
     5     6     5    1
     6     6     7    1
     7     7     8    1
     8     8     9    1
     9     9    10    1
    10     9    11    1
    11    11    12    1
    12     3    13    1
    13    13    14    2
    14    14    15    1
    15    15    16    2
    16    16    17    1
    17    17    18    2
    18    11     6    1
    19    18    13    1
@<TRIPOS>SUBSTRUCTURE
     1 RES1        1 GROUP             0 ****  ****    0  
@<TRIPOS>MOLECULE
ligand_22
    18    19     1     0     0
SMALL
USER_CHARGES
****
Generated from the CSD

@<TRIPOS>ATOM
     1 O1      31.9758  63.8461  12.0620   O.3       1 RES1   0.0000
     2 C2      30.5653  63.9796  12.0323   C.3       1 RES1   0.0000
     3 C3      30.3233  65.4291  12.4281   C.3       1 RES1   0.0000
     4 N4      30.9033  66.5136  11.6031   N.2       1 RES1   1.0000
     5 C5      30.4460  66.8588  10.2585   C.3       1 RES1   0.0000
     6 C6      30.9602  65.9326   9.1689   C.3       1 RES1   0.0000
     7 N7      30.3133  66.2080   7.8932   N.2       1 RES1   1.0000
     8 C8      31.3858  66.5728   6.9416   C.3       1 RES1   0.0000
     9 C9      32.5881  66.5937   7.6474   C.3       1 RES1   0.0000
    10 O10     33.6019  65.8735   6.9790   O.3       1 RES1   0.0000
    11 C11     32.3492  66.2271   8.9860   C.3       1 RES1   0.0000
    12 O12     32.9148  64.9470   9.1912   O.3       1 RES1   0.0000
    13 C13     30.9409  65.6536  13.8234   C.2       1 RES1   0.0000
    14 C14     32.3034  65.9360  14.0142   C.2       1 RES1   0.0000
    15 C15     32.8578  66.1644  15.2860   C.2       1 RES1   0.0000
    16 C16     32.0603  66.1097  16.4173   C.2       1 RES1   0.0000
    17 C17     30.7276  65.8352  16.2070   C.2       1 RES1   0.0000
    18 C18     30.1297  65.6015  14.9644   C.2       1 RES1   0.0000
@<TRIPOS>BOND
     1     1     2    1
     2     3     2    1
     3     3     4    1
     4     4     5    1
     5     6     5    1
     6     6     7    1
     7     7     8    1
     8     8     9    1
     9     9    10    1
    10     9    11    1
    11    11    12    1
    12     3    13    1
    13    13    14    2
    14    14    15    1
    15    15    16    2
    16    16    17    1
    17    17    18    2
    18    11     6    1
    19    18    13    1
@<TRIPOS>SUBSTRUCTURE
     1 RES1        1 GROUP             0 ****  ****    0  
@<TRIPOS>MOLECULE
ligand_23
    18    19     1     0     0
SMALL
USER_CHARGES
****
Generated from the CSD

@<TRIPOS>ATOM
     1 O1      31.6288  68.6887  13.3967   O.3       1 RES1   0.0000
     2 C2      32.5931  68.2941  12.4361   C.3       1 RES1   0.0000
     3 C3      32.2446  66.8429  12.1376   C.3       1 RES1   0.0000
     4 N4      30.9033  66.5136  11.6031   N.2       1 RES1   1.0000
     5 C5      30.4460  66.8588  10.2585   C.3       1 RES1   0.0000
     6 C6      30.9620  65.9339   9.1687   C.3       1 RES1   0.0000
     7 N7      30.2684  66.1644   7.9086   N.2       1 RES1   1.0000
     8 C8      31.2985  66.5520   6.9200   C.3       1 RES1   0.0000
     9 C9      32.5193  66.6284   7.5892   C.3       1 RES1   0.0000
    10 O10     33.5390  65.9345   6.9022   O.3       1 RES1   0.0000
    11 C11     32.3333  66.2756   8.9399   C.3       1 RES1   0.0000
    12 O12     32.9514  65.0205   9.1481   O.3       1 RES1   0.0000
    13 C13     32.3223  66.0508  13.4586   C.2       1 RES1   0.0000
    14 C14     31.2654  66.0097  14.3827   C.2       1 RES1   0.0000
    15 C15     31.3309  65.2663  15.5745   C.2       1 RES1   0.0000
    16 C16     32.4689  64.5402  15.8848   C.2       1 RES1   0.0000
    17 C17     33.4909  64.5914  14.9636   C.2       1 RES1   0.0000
    18 C18     33.4736  65.3143  13.7664   C.2       1 RES1   0.0000
@<TRIPOS>BOND
     1     1     2    1
     2     3     2    1
     3     3     4    1
     4     4     5    1
     5     6     5    1
     6     6     7    1
     7     7     8    1
     8     8     9    1
     9     9    10    1
    10     9    11    1
    11    11    12    1
    12     3    13    1
    13    13    14    2
    14    14    15    1
    15    15    16    2
    16    16    17    1
    17    17    18    2
    18    11     6    1
    19    18    13    1
@<TRIPOS>SUBSTRUCTURE
     1 RES1        1 GROUP             0 ****  ****    0  
@<TRIPOS>MOLECULE
ligand_24
    18    19     1     0     0
SMALL
USER_CHARGES
****
Generated from the CSD

@<TRIPOS>ATOM
     1 O1      34.1452  70.3628   8.0503   O.3       1 RES1   0.0000
     2 C2      32.9312  71.0216   7.7333   C.3       1 RES1   0.0000
     3 C3      31.9088  70.3771   8.6583   C.3       1 RES1   0.0000
     4 N4      31.7110  68.9102   8.6121   N.2       1 RES1   1.0000
     5 C5      30.9355  68.1532   9.5929   C.3       1 RES1   0.0000
     6 C6      30.8307  66.6674   9.2912   C.3       1 RES1   0.0000
     7 N7      29.9864  66.4148   8.0490   N.2       1 RES1   1.0000
     8 C8      30.9052  66.6870   6.8559   C.3       1 RES1   0.0000
     9 C9      32.3207  66.6376   7.4160   C.3       1 RES1   0.0000
    10 O10     33.2321  65.9270   6.6052   O.3       1 RES1   0.0000
    11 C11     32.1877  66.1521   8.8632   C.3       1 RES1   0.0000
    12 O12     31.9517  64.7575   8.8777   O.3       1 RES1   0.0000
    13 C13     30.5200  70.9500   8.3097   C.2       1 RES1   0.0000
    14 C14     29.8725  71.9090   9.1057   C.2       1 RES1   0.0000
    15 C15     28.6171  72.4470   8.7713   C.2       1 RES1   0.0000
    16 C16     27.9616  72.0330   7.6235   C.2       1 RES1   0.0000
    17 C17     28.6157  71.0955   6.8561   C.2       1 RES1   0.0000
    18 C18     29.8625  70.5316   7.1455   C.2       1 RES1   0.0000
@<TRIPOS>BOND
     1     1     2    1
     2     3     2    1
     3     3     4    1
     4     4     5    1
     5     6     5    1
     6     6     7    1
     7     7     8    1
     8     8     9    1
     9     9    10    1
    10     9    11    1
    11    11    12    1
    12     3    13    1
    13    13    14    2
    14    14    15    1
    15    15    16    2
    16    16    17    1
    17    17    18    2
    18    11     6    1
    19    18    13    1
@<TRIPOS>SUBSTRUCTURE
     1 RES1        1 GROUP             0 ****  ****    0  
@<TRIPOS>MOLECULE
ligand_25
    18    19     1     0     0
SMALL
USER_CHARGES
****
Generated from the CSD

@<TRIPOS>ATOM
     1 O1      26.3932  68.5027  12.4867   O.3       1 RES1   0.0000
     2 C2      26.7459  67.5993  11.4534   C.3       1 RES1   0.0000
     3 C3      28.2675  67.5797  11.4836   C.3       1 RES1   0.0000
     4 N4      29.0033  66.7786  10.4786   N.2       1 RES1   1.0000
     5 C5      30.4460  66.8588  10.2585   C.3       1 RES1   0.0000
     6 C6      30.9625  65.9307   9.1716   C.3       1 RES1   0.0000
     7 N7      30.3418  66.2252   7.8872   N.2       1 RES1   1.0000
     8 C8      31.4361  66.5774   6.9559   C.3       1 RES1   0.0000
     9 C9      32.6266  66.5733   7.6816   C.3       1 RES1   0.0000
    10 O10     33.6390  65.8400   7.0255   O.3       1 RES1   0.0000
    11 C11     32.3592  66.2025   9.0137   C.3       1 RES1   0.0000
    12 O12     32.8994  64.9116   9.2199   O.3       1 RES1   0.0000
    13 C13     28.7116  66.9802  12.8334   C.2       1 RES1   0.0000
    14 C14     29.2139  67.7651  13.8843   C.2       1 RES1   0.0000
    15 C15     29.5947  67.2177  15.1223   C.2       1 RES1   0.0000
    16 C16     29.4905  65.8548  15.3466   C.2       1 RES1   0.0000
    17 C17     28.9923  65.1050  14.3048   C.2       1 RES1   0.0000
    18 C18     28.6004  65.6018  13.0575   C.2       1 RES1   0.0000
@<TRIPOS>BOND
     1     1     2    1
     2     3     2    1
     3     3     4    1
     4     4     5    1
     5     6     5    1
     6     6     7    1
     7     7     8    1
     8     8     9    1
     9     9    10    1
    10     9    11    1
    11    11    12    1
    12     3    13    1
    13    13    14    2
    14    14    15    1
    15    15    16    2
    16    16    17    1
    17    17    18    2
    18    11     6    1
    19    18    13    1
@<TRIPOS>SUBSTRUCTURE
     1 RES1        1 GROUP             0 ****  ****    0  
@<TRIPOS>MOLECULE
ligand_26
    18    19     1     0     0
SMALL
USER_CHARGES
****
Generated from the CSD

@<TRIPOS>ATOM
     1 O1      32.2414  70.5237  10.9472   O.3       1 RES1   0.0000
     2 C2      32.8092  70.9752   9.7298   C.3       1 RES1   0.0000
     3 C3      31.9088  70.3771   8.6583   C.3       1 RES1   0.0000
     4 N4      31.7110  68.9102   8.6121   N.2       1 RES1   1.0000
     5 C5      30.9355  68.1532   9.5929   C.3       1 RES1   0.0000
     6 C6      30.8288  66.6678   9.2900   C.3       1 RES1   0.0000
     7 N7      29.9861  66.4174   8.0463   N.2       1 RES1   1.0000
     8 C8      30.9073  66.6890   6.8548   C.3       1 RES1   0.0000
     9 C9      32.3218  66.6369   7.4172   C.3       1 RES1   0.0000
    10 O10     33.2334  65.9254   6.6074   O.3       1 RES1   0.0000
    11 C11     32.1857  66.1505   8.8639   C.3       1 RES1   0.0000
    12 O12     31.9474  64.7564   8.8770   O.3       1 RES1   0.0000
    13 C13     32.5159  70.7132   7.2810   C.2       1 RES1   0.0000
    14 C14     32.0482  71.7697   6.4824   C.2       1 RES1   0.0000
    15 C15     32.6205  72.0884   5.2382   C.2       1 RES1   0.0000
    16 C16     33.6834  71.3486   4.7467   C.2       1 RES1   0.0000
    17 C17     34.1282  70.3204   5.5471   C.2       1 RES1   0.0000
    18 C18     33.5936  69.9650   6.7897   C.2       1 RES1   0.0000
@<TRIPOS>BOND
     1     1     2    1
     2     3     2    1
     3     3     4    1
     4     4     5    1
     5     6     5    1
     6     6     7    1
     7     7     8    1
     8     8     9    1
     9     9    10    1
    10     9    11    1
    11    11    12    1
    12     3    13    1
    13    13    14    2
    14    14    15    1
    15    15    16    2
    16    16    17    1
    17    17    18    2
    18    11     6    1
    19    18    13    1
@<TRIPOS>SUBSTRUCTURE
     1 RES1        1 GROUP             0 ****  ****    0  
@<TRIPOS>MOLECULE
ligand_27
    18    19     1     0     0
SMALL
USER_CHARGES
****
Generated from the CSD

@<TRIPOS>ATOM
     1 O1      30.3165  67.6020  15.1086   O.3       1 RES1   0.0000
     2 C2      30.8620  66.6708  14.1902   C.3       1 RES1   0.0000
     3 C3      30.5367  67.2632  12.8265   C.3       1 RES1   0.0000
     4 N4      30.9033  66.5136  11.6031   N.2       1 RES1   1.0000
     5 C5      30.4460  66.8588  10.2585   C.3       1 RES1   0.0000
     6 C6      30.9619  65.9338   9.1687   C.3       1 RES1   0.0000
     7 N7      30.3239  66.2170   7.8902   N.2       1 RES1   1.0000
     8 C8      31.4037  66.5797   6.9462   C.3       1 RES1   0.0000
     9 C9      32.6020  66.5920   7.6590   C.3       1 RES1   0.0000
    10 O10     33.6160  65.8690   6.9940   O.3       1 RES1   0.0000
    11 C11     32.3534  66.2219   8.9949   C.3       1 RES1   0.0000
    12 O12     32.9113  64.9382   9.1988   O.3       1 RES1   0.0000
    13 C13     31.3016  68.5953  12.6887   C.2       1 RES1   0.0000
    14 C14     30.6753  69.8466  12.8093   C.2       1 RES1   0.0000
    15 C15     31.3807  71.0587  12.7075   C.2       1 RES1   0.0000
    16 C16     32.7458  71.0564  12.4725   C.2       1 RES1   0.0000
    17 C17     33.3399  69.8194  12.3613   C.2       1 RES1   0.0000
    18 C18     32.6830  68.5882  12.4552   C.2       1 RES1   0.0000
@<TRIPOS>BOND
     1     1     2    1
     2     3     2    1
     3     3     4    1
     4     4     5    1
     5     6     5    1
     6     6     7    1
     7     7     8    1
     8     8     9    1
     9     9    10    1
    10     9    11    1
    11    11    12    1
    12     3    13    1
    13    13    14    2
    14    14    15    1
    15    15    16    2
    16    16    17    1
    17    17    18    2
    18    11     6    1
    19    18    13    1
@<TRIPOS>SUBSTRUCTURE
     1 RES1        1 GROUP             0 ****  ****    0  
@<TRIPOS>MOLECULE
ligand_28
    18    19     1     0     0
SMALL
USER_CHARGES
****
Generated from the CSD

@<TRIPOS>ATOM
     1 O1      27.4093  70.4218   8.7300   O.3       1 RES1   0.0000
     2 C2      28.0015  70.7941   9.9625   C.3       1 RES1   0.0000
     3 C3      29.4194  70.2486   9.8705   C.3       1 RES1   0.0000
     4 N4      29.6265  68.8026   9.6271   N.2       1 RES1   1.0000
     5 C5      30.9355  68.1532   9.5929   C.3       1 RES1   0.0000
     6 C6      30.8802  66.6526   9.3591   C.3       1 RES1   0.0000
     7 N7      30.2371  66.3264   8.0176   N.2       1 RES1   1.0000
     8 C8      31.3280  66.5438   6.9666   C.3       1 RES1   0.0000
     9 C9      32.6407  66.5376   7.7390   C.3       1 RES1   0.0000
    10 O10     33.6667  65.7936   7.1170   O.3       1 RES1   0.0000
    11 C11     32.2874  66.1282   9.1728   C.3       1 RES1   0.0000
    12 O12     32.0537  64.7342   9.2260   O.3       1 RES1   0.0000
    13 C13     30.1178  70.5012  11.2221   C.2       1 RES1   0.0000
    14 C14     31.0130  71.5638  11.4274   C.2       1 RES1   0.0000
    15 C15     31.6288  71.8052  12.6682   C.2       1 RES1   0.0000
    16 C16     31.3713  70.9792  13.7499   C.2       1 RES1   0.0000
    17 C17     30.4883  69.9465  13.5276   C.2       1 RES1   0.0000
    18 C18     29.8511  69.6657  12.3146   C.2       1 RES1   0.0000
@<TRIPOS>BOND
     1     1     2    1
     2     3     2    1
     3     3     4    1
     4     4     5    1
     5     6     5    1
     6     6     7    1
     7     7     8    1
     8     8     9    1
     9     9    10    1
    10     9    11    1
    11    11    12    1
    12     3    13    1
    13    13    14    2
    14    14    15    1
    15    15    16    2
    16    16    17    1
    17    17    18    2
    18    11     6    1
    19    18    13    1
@<TRIPOS>SUBSTRUCTURE
     1 RES1        1 GROUP             0 ****  ****    0  
@<TRIPOS>MOLECULE
ligand_29
    18    19     1     0     0
SMALL
USER_CHARGES
****
Generated from the CSD

@<TRIPOS>ATOM
     1 O1      31.2401  71.0960  10.4911   O.3       1 RES1   0.0000
     2 C2      32.2398  70.3618   9.8055   C.3       1 RES1   0.0000
     3 C3      32.0240  68.9268  10.2644   C.3       1 RES1   0.0000
     4 N4      30.7168  68.2751  10.0195   N.2       1 RES1   1.0000
     5 C5      30.4460  66.8588  10.2585   C.3       1 RES1   0.0000
     6 C6      30.6839  65.9671   9.0511   C.3       1 RES1   0.0000
     7 N7      29.9255  66.4288   7.8963   N.2       1 RES1   1.0000
     8 C8      30.9091  66.7290   6.8328   C.3       1 RES1   0.0000
     9 C9      32.1822  66.5354   7.3675   C.3       1 RES1   0.0000
    10 O10     32.9928  65.7477   6.5215   O.3       1 RES1   0.0000
    11 C11     32.0660  66.0932   8.6996   C.3       1 RES1   0.0000
    12 O12     32.4689  64.7381   8.7420   O.3       1 RES1   0.0000
    13 C13     32.1769  68.8869  11.7985   C.2       1 RES1   0.0000
    14 C14     31.1565  69.2926  12.6741   C.2       1 RES1   0.0000
    15 C15     31.2908  69.2314  14.0725   C.2       1 RES1   0.0000
    16 C16     32.4636  68.7650  14.6432   C.2       1 RES1   0.0000
    17 C17     33.4490  68.3692  13.7668   C.2       1 RES1   0.0000
    18 C18     33.3633  68.4104  12.3714   C.2       1 RES1   0.0000
@<TRIPOS>BOND
     1     1     2    1
     2     3     2    1
     3     3     4    1
     4     4     5    1
     5     6     5    1
     6     6     7    1
     7     7     8    1
     8     8     9    1
     9     9    10    1
    10     9    11    1
    11    11    12    1
    12     3    13    1
    13    13    14    2
    14    14    15    1
    15    15    16    2
    16    16    17    1
    17    17    18    2
    18    11     6    1
    19    18    13    1
@<TRIPOS>SUBSTRUCTURE
     1 RES1        1 GROUP             0 ****  ****    0  
@<TRIPOS>MOLECULE
ligand_30
    18    19     1     0     0
SMALL
USER_CHARGES
****
Generated from the CSD

@<TRIPOS>ATOM
     1 O1      27.4104  69.5175  12.4225   O.3       1 RES1   0.0000
     2 C2      28.0780  69.0723  11.2544   C.3       1 RES1   0.0000
     3 C3      28.2675  67.5797  11.4836   C.3       1 RES1   0.0000
     4 N4      29.0033  66.7786  10.4786   N.2       1 RES1   1.0000
     5 C5      30.4460  66.8588  10.2585   C.3       1 RES1   0.0000
     6 C6      30.9625  65.9306   9.1717   C.3       1 RES1   0.0000
     7 N7      30.3422  66.2252   7.8871   N.2       1 RES1   1.0000
     8 C8      31.4368  66.5773   6.9561   C.3       1 RES1   0.0000
     9 C9      32.6272  66.5728   7.6821   C.3       1 RES1   0.0000
    10 O10     33.6395  65.8393   7.0262   O.3       1 RES1   0.0000
    11 C11     32.3593  66.2020   9.0141   C.3       1 RES1   0.0000
    12 O12     32.8991  64.9110   9.2204   O.3       1 RES1   0.0000
    13 C13     26.8732  66.9225  11.5335   C.2       1 RES1   0.0000
    14 C14     26.2283  66.6002  12.7389   C.2       1 RES1   0.0000
    15 C15     24.9465  66.0236  12.7805   C.2       1 RES1   0.0000
    16 C16     24.2671  65.7423  11.6066   C.2       1 RES1   0.0000
    17 C17     24.9159  66.0696  10.4371   C.2       1 RES1   0.0000
    18 C18     26.1879  66.6437  10.3438   C.2       1 RES1   0.0000
@<TRIPOS>BOND
     1     1     2    1
     2     3     2    1
     3     3     4    1
     4     4     5    1
     5     6     5    1
     6     6     7    1
     7     7     8    1
     8     8     9    1
     9     9    10    1
    10     9    11    1
    11    11    12    1
    12     3    13    1
    13    13    14    2
    14    14    15    1
    15    15    16    2
    16    16    17    1
    17    17    18    2
    18    11     6    1
    19    18    13    1
@<TRIPOS>SUBSTRUCTURE
     1 RES1        1 GROUP             0 ****  ****    0  
@<TRIPOS>MOLECULE
ligand_31
    18    19     1     0     0
SMALL
USER_CHARGES
****
Generated from the CSD

@<TRIPOS>ATOM
     1 O1      29.1064  68.0484  14.4723   O.3       1 RES1   0.0000
     2 C2      29.1153  67.1677  13.3621   C.3       1 RES1   0.0000
     3 C3      30.5367  67.2632  12.8265   C.3       1 RES1   0.0000
     4 N4      30.9033  66.5136  11.6031   N.2       1 RES1   1.0000
     5 C5      30.4460  66.8588  10.2585   C.3       1 RES1   0.0000
     6 C6      30.9619  65.9338   9.1687   C.3       1 RES1   0.0000
     7 N7      30.3239  66.2170   7.8902   N.2       1 RES1   1.0000
     8 C8      31.4037  66.5797   6.9462   C.3       1 RES1   0.0000
     9 C9      32.6020  66.5920   7.6590   C.3       1 RES1   0.0000
    10 O10     33.6160  65.8690   6.9940   O.3       1 RES1   0.0000
    11 C11     32.3534  66.2219   8.9949   C.3       1 RES1   0.0000
    12 O12     32.9113  64.9382   9.1988   O.3       1 RES1   0.0000
    13 C13     31.4918  66.7076  13.9024   C.2       1 RES1   0.0000
    14 C14     32.2130  67.5354  14.7782   C.2       1 RES1   0.0000
    15 C15     33.0639  67.0242  15.7740   C.2       1 RES1   0.0000
    16 C16     33.2267  65.6565  15.9210   C.2       1 RES1   0.0000
    17 C17     32.5078  64.8637  15.0548   C.2       1 RES1   0.0000
    18 C18     31.6501  65.3234  14.0502   C.2       1 RES1   0.0000
@<TRIPOS>BOND
     1     1     2    1
     2     3     2    1
     3     3     4    1
     4     4     5    1
     5     6     5    1
     6     6     7    1
     7     7     8    1
     8     8     9    1
     9     9    10    1
    10     9    11    1
    11    11    12    1
    12     3    13    1
    13    13    14    2
    14    14    15    1
    15    15    16    2
    16    16    17    1
    17    17    18    2
    18    11     6    1
    19    18    13    1
@<TRIPOS>SUBSTRUCTURE
     1 RES1        1 GROUP             0 ****  ****    0  
@<TRIPOS>MOLECULE
ligand_32
    18    19     1     0     0
SMALL
USER_CHARGES
****
Generated from the CSD

@<TRIPOS>ATOM
     1 O1      28.5930  70.1478  10.6961   O.3       1 RES1   0.0000
     2 C2      28.4916  69.4774   9.4517   C.3       1 RES1   0.0000
     3 C3      29.9314  69.1307   9.1007   C.3       1 RES1   0.0000
     4 N4      30.7168  68.2751  10.0195   N.2       1 RES1   1.0000
     5 C5      30.4460  66.8588  10.2585   C.3       1 RES1   0.0000
     6 C6      31.1423  65.9194   9.2878   C.3       1 RES1   0.0000
     7 N7      30.7351  66.1829   7.9143   N.2       1 RES1   1.0000
     8 C8      31.9620  66.5343   7.1661   C.3       1 RES1   0.0000
     9 C9      33.0190  66.5595   8.0751   C.3       1 RES1   0.0000
    10 O10     34.1325  65.8293   7.6061   O.3       1 RES1   0.0000
    11 C11     32.5430  66.2080   9.3531   C.3       1 RES1   0.0000
    12 O12     33.0568  64.9286   9.6691   O.3       1 RES1   0.0000
    13 C13     30.7376  70.4438   9.0361   C.2       1 RES1   0.0000
    14 C14     31.2633  71.0691  10.1787   C.2       1 RES1   0.0000
    15 C15     32.0188  72.2531  10.1132   C.2       1 RES1   0.0000
    16 C16     32.2680  72.8577   8.8921   C.2       1 RES1   0.0000
    17 C17     31.7468  72.2262   7.7852   C.2       1 RES1   0.0000
    18 C18     30.9909  71.0495   7.7985   C.2       1 RES1   0.0000
@<TRIPOS>BOND
     1     1     2    1
     2     3     2    1
     3     3     4    1
     4     4     5    1
     5     6     5    1
     6     6     7    1
     7     7     8    1
     8     8     9    1
     9     9    10    1
    10     9    11    1
    11    11    12    1
    12     3    13    1
    13    13    14    2
    14    14    15    1
    15    15    16    2
    16    16    17    1
    17    17    18    2
    18    11     6    1
    19    18    13    1
@<TRIPOS>SUBSTRUCTURE
     1 RES1        1 GROUP             0 ****  ****    0  
@<TRIPOS>MOLECULE
ligand_33
    18    19     1     0     0
SMALL
USER_CHARGES
****
Generated from the CSD

@<TRIPOS>ATOM
     1 O1      30.5800  69.5368  13.5092   O.3       1 RES1   0.0000
     2 C2      31.7211  70.1371  12.9211   C.3       1 RES1   0.0000
     3 C3      31.5395  69.8932  11.4299   C.3       1 RES1   0.0000
     4 N4      31.4017  68.5049  10.9328   N.2       1 RES1   1.0000
     5 C5      30.9355  68.1532   9.5929   C.3       1 RES1   0.0000
     6 C6      30.8821  66.6583   9.3247   C.3       1 RES1   0.0000
     7 N7      30.2099  66.3606   7.9909   N.2       1 RES1   1.0000
     8 C8      31.2753  66.6087   6.9207   C.3       1 RES1   0.0000
     9 C9      32.6054  66.5912   7.6626   C.3       1 RES1   0.0000
    10 O10     33.6205  65.8678   6.9997   O.3       1 RES1   0.0000
    11 C11     32.2872  66.1460   9.0938   C.3       1 RES1   0.0000
    12 O12     32.0616  64.7499   9.1191   O.3       1 RES1   0.0000
    13 C13     32.7907  70.4254  10.7021   C.2       1 RES1   0.0000
    14 C14     32.7163  71.2247   9.5496   C.2       1 RES1   0.0000
    15 C15     33.8590  71.7284   8.9032   C.2       1 RES1   0.0000
    16 C16     35.1231  71.4395   9.3902   C.2       1 RES1   0.0000
    17 C17     35.1727  70.6578  10.5226   C.2       1 RES1   0.0000
    18 C18     34.0672  70.1342  11.2006   C.2       1 RES1   0.0000
@<TRIPOS>BOND
     1     1     2    1
     2     3     2    1
     3     3     4    1
     4     4     5    1
     5     6     5    1
     6     6     7    1
     7     7     8    1
     8     8     9    1
     9     9    10    1
    10     9    11    1
    11    11    12    1
    12     3    13    1
    13    13    14    2
    14    14    15    1
    15    15    16    2
    16    16    17    1
    17    17    18    2
    18    11     6    1
    19    18    13    1
@<TRIPOS>SUBSTRUCTURE
     1 RES1        1 GROUP             0 ****  ****    0  
@<TRIPOS>MOLECULE
ligand_34
    18    19     1     0     0
SMALL
USER_CHARGES
****
Generated from the CSD

@<TRIPOS>ATOM
     1 O1      29.8809  65.1474  14.1909   O.3       1 RES1   0.0000
     2 C2      28.8471  66.0265  13.7828   C.3       1 RES1   0.0000
     3 C3      29.4821  66.8541  12.6746   C.3       1 RES1   0.0000
     4 N4      30.0203  66.1710  11.4758   N.2       1 RES1   1.0000
     5 C5      30.4460  66.8588  10.2585   C.3       1 RES1   0.0000
     6 C6      30.9619  65.9338   9.1687   C.3       1 RES1   0.0000
     7 N7      30.3545  66.2442   7.8816   N.2       1 RES1   1.0000
     8 C8      31.4596  66.5925   6.9618   C.3       1 RES1   0.0000
     9 C9      32.6442  66.5709   7.6969   C.3       1 RES1   0.0000
    10 O10     33.6544  65.8325   7.0432   O.3       1 RES1   0.0000
    11 C11     32.3625  66.1927   9.0239   C.3       1 RES1   0.0000
    12 O12     32.8880  64.8950   9.2245   O.3       1 RES1   0.0000
    13 C13     30.7046  67.5861  13.2646   C.2       1 RES1   0.0000
    14 C14     31.9393  66.9518  13.4782   C.2       1 RES1   0.0000
    15 C15     33.0587  67.6291  13.9935   C.2       1 RES1   0.0000
    16 C16     32.9745  68.9724  14.3207   C.2       1 RES1   0.0000
    17 C17     31.7565  69.5751  14.0999   C.2       1 RES1   0.0000
    18 C18     30.6161  68.9459  13.5902   C.2       1 RES1   0.0000
@<TRIPOS>BOND
     1     1     2    1
     2     3     2    1
     3     3     4    1
     4     4     5    1
     5     6     5    1
     6     6     7    1
     7     7     8    1
     8     8     9    1
     9     9    10    1
    10     9    11    1
    11    11    12    1
    12     3    13    1
    13    13    14    2
    14    14    15    1
    15    15    16    2
    16    16    17    1
    17    17    18    2
    18    11     6    1
    19    18    13    1
@<TRIPOS>SUBSTRUCTURE
     1 RES1        1 GROUP             0 ****  ****    0  
@<TRIPOS>MOLECULE
ligand_35
    18    19     1     0     0
SMALL
USER_CHARGES
****
Generated from the CSD

@<TRIPOS>ATOM
     1 O1      31.2201  70.9959   8.6174   O.3       1 RES1   0.0000
     2 C2      29.8391  71.2521   8.8059   C.3       1 RES1   0.0000
     3 C3      29.4194  70.2486   9.8705   C.3       1 RES1   0.0000
     4 N4      29.6265  68.8026   9.6271   N.2       1 RES1   1.0000
     5 C5      30.9355  68.1532   9.5929   C.3       1 RES1   0.0000
     6 C6      30.8801  66.6525   9.3601   C.3       1 RES1   0.0000
     7 N7      30.2365  66.3254   8.0190   N.2       1 RES1   1.0000
     8 C8      31.3271  66.5421   6.9674   C.3       1 RES1   0.0000
     9 C9      32.6400  66.5364   7.7395   C.3       1 RES1   0.0000
    10 O10     33.6659  65.7921   7.1176   O.3       1 RES1   0.0000
    11 C11     32.2873  66.1279   9.1736   C.3       1 RES1   0.0000
    12 O12     32.0537  64.7340   9.2277   O.3       1 RES1   0.0000
    13 C13     27.8960  70.3761  10.0741   C.2       1 RES1   0.0000
    14 C14     27.3025  70.4404  11.3454   C.2       1 RES1   0.0000
    15 C15     25.9153  70.5815  11.5266   C.2       1 RES1   0.0000
    16 C16     25.0704  70.6559  10.4314   C.2       1 RES1   0.0000
    17 C17     25.6734  70.5947   9.1951   C.2       1 RES1   0.0000
    18 C18     27.0456  70.4554   8.9635   C.2       1 RES1   0.0000
@<TRIPOS>BOND
     1     1     2    1
     2     3     2    1
     3     3     4    1
     4     4     5    1
     5     6     5    1
     6     6     7    1
     7     7     8    1
     8     8     9    1
     9     9    10    1
    10     9    11    1
    11    11    12    1
    12     3    13    1
    13    13    14    2
    14    14    15    1
    15    15    16    2
    16    16    17    1
    17    17    18    2
    18    11     6    1
    19    18    13    1
@<TRIPOS>SUBSTRUCTURE
     1 RES1        1 GROUP             0 ****  ****    0  
@<TRIPOS>MOLECULE
ligand_36
    18    19     1     0     0
SMALL
USER_CHARGES
****
Generated from the CSD

@<TRIPOS>ATOM
     1 O1      29.6060  70.7233  10.4584   O.3       1 RES1   0.0000
     2 C2      30.2882  70.7163  11.7005   C.3       1 RES1   0.0000
     3 C3      31.5395  69.8932  11.4299   C.3       1 RES1   0.0000
     4 N4      31.4017  68.5049  10.9328   N.2       1 RES1   1.0000
     5 C5      30.9355  68.1532   9.5929   C.3       1 RES1   0.0000
     6 C6      30.8827  66.6583   9.3245   C.3       1 RES1   0.0000
     7 N7      30.2102  66.3605   7.9909   N.2       1 RES1   1.0000
     8 C8      31.2751  66.6092   6.9203   C.3       1 RES1   0.0000
     9 C9      32.6055  66.5922   7.6618   C.3       1 RES1   0.0000
    10 O10     33.6207  65.8693   6.9985   O.3       1 RES1   0.0000
    11 C11     32.2879  66.1467   9.0931   C.3       1 RES1   0.0000
    12 O12     32.0629  64.7505   9.1182   O.3       1 RES1   0.0000
    13 C13     32.3062  69.7370  12.7588   C.2       1 RES1   0.0000
    14 C14     33.6920  69.9398  12.8644   C.2       1 RES1   0.0000
    15 C15     34.3835  69.8206  14.0829   C.2       1 RES1   0.0000
    16 C16     33.7048  69.4846  15.2427   C.2       1 RES1   0.0000
    17 C17     32.3470  69.2941  15.1173   C.2       1 RES1   0.0000
    18 C18     31.6151  69.4013  13.9303   C.2       1 RES1   0.0000
@<TRIPOS>BOND
     1     1     2    1
     2     3     2    1
     3     3     4    1
     4     4     5    1
     5     6     5    1
     6     6     7    1
     7     7     8    1
     8     8     9    1
     9     9    10    1
    10     9    11    1
    11    11    12    1
    12     3    13    1
    13    13    14    2
    14    14    15    1
    15    15    16    2
    16    16    17    1
    17    17    18    2
    18    11     6    1
    19    18    13    1
@<TRIPOS>SUBSTRUCTURE
     1 RES1        1 GROUP             0 ****  ****    0  
@<TRIPOS>MOLECULE
ligand_37
    18    19     1     0     0
SMALL
USER_CHARGES
****
Generated from the CSD

@<TRIPOS>ATOM
     1 O1      30.3370  71.5201  11.7925   O.3       1 RES1   0.0000
     2 C2      30.8647  70.7684  10.7133   C.3       1 RES1   0.0000
     3 C3      30.3139  69.3670  10.9353   C.3       1 RES1   0.0000
     4 N4      30.7168  68.2751  10.0195   N.2       1 RES1   1.0000
     5 C5      30.4460  66.8588  10.2585   C.3       1 RES1   0.0000
     6 C6      30.9330  65.9367   9.1530   C.3       1 RES1   0.0000
     7 N7      30.3452  66.2952   7.8694   N.2       1 RES1   1.0000
     8 C8      31.4680  66.6196   6.9623   C.3       1 RES1   0.0000
     9 C9      32.6466  66.5387   7.7028   C.3       1 RES1   0.0000
    10 O10     33.6321  65.7757   7.0396   O.3       1 RES1   0.0000
    11 C11     32.3431  66.1453   9.0205   C.3       1 RES1   0.0000
    12 O12     32.8182  64.8249   9.1978   O.3       1 RES1   0.0000
    13 C13     28.7799  69.4270  10.7888   C.2       1 RES1   0.0000
    14 C14     27.9096  69.3851  11.8905   C.2       1 RES1   0.0000
    15 C15     26.5124  69.4649  11.7544   C.2       1 RES1   0.0000
    16 C16     25.9370  69.5830  10.5000   C.2       1 RES1   0.0000
    17 C17     26.8083  69.6259   9.4347   C.2       1 RES1   0.0000
    18 C18     28.2024  69.5507   9.5185   C.2       1 RES1   0.0000
@<TRIPOS>BOND
     1     1     2    1
     2     3     2    1
     3     3     4    1
     4     4     5    1
     5     6     5    1
     6     6     7    1
     7     7     8    1
     8     8     9    1
     9     9    10    1
    10     9    11    1
    11    11    12    1
    12     3    13    1
    13    13    14    2
    14    14    15    1
    15    15    16    2
    16    16    17    1
    17    17    18    2
    18    11     6    1
    19    18    13    1
@<TRIPOS>SUBSTRUCTURE
     1 RES1        1 GROUP             0 ****  ****    0  
@<TRIPOS>MOLECULE
ligand_38
    18    19     1     0     0
SMALL
USER_CHARGES
****
Generated from the CSD

@<TRIPOS>ATOM
     1 O1      27.2392  66.4037  12.3037   O.3       1 RES1   0.0000
     2 C2      28.0990  67.4863  12.6150   C.3       1 RES1   0.0000
     3 C3      29.4821  66.8541  12.6746   C.3       1 RES1   0.0000
     4 N4      30.0203  66.1710  11.4758   N.2       1 RES1   1.0000
     5 C5      30.4460  66.8588  10.2585   C.3       1 RES1   0.0000
     6 C6      30.9619  65.9338   9.1687   C.3       1 RES1   0.0000
     7 N7      30.3506  66.2409   7.8826   N.2       1 RES1   1.0000
     8 C8      31.4527  66.5910   6.9598   C.3       1 RES1   0.0000
     9 C9      32.6391  66.5736   7.6922   C.3       1 RES1   0.0000
    10 O10     33.6498  65.8371   7.0371   O.3       1 RES1   0.0000
    11 C11     32.3614  66.1963   9.0203   C.3       1 RES1   0.0000
    12 O12     32.8910  64.9003   9.2214   O.3       1 RES1   0.0000
    13 C13     29.4576  65.7500  13.7511   C.2       1 RES1   0.0000
    14 C14     28.9860  64.4517  13.4967   C.2       1 RES1   0.0000
    15 C15     28.9882  63.4409  14.4741   C.2       1 RES1   0.0000
    16 C16     29.4598  63.7022  15.7501   C.2       1 RES1   0.0000
    17 C17     29.9205  64.9797  15.9765   C.2       1 RES1   0.0000
    18 C18     29.9395  66.0175  15.0391   C.2       1 RES1   0.0000
@<TRIPOS>BOND
     1     1     2    1
     2     3     2    1
     3     3     4    1
     4     4     5    1
     5     6     5    1
     6     6     7    1
     7     7     8    1
     8     8     9    1
     9     9    10    1
    10     9    11    1
    11    11    12    1
    12     3    13    1
    13    13    14    2
    14    14    15    1
    15    15    16    2
    16    16    17    1
    17    17    18    2
    18    11     6    1
    19    18    13    1
@<TRIPOS>SUBSTRUCTURE
     1 RES1        1 GROUP             0 ****  ****    0  
@<TRIPOS>MOLECULE
ligand_39
    18    19     1     0     0
SMALL
USER_CHARGES
****
Generated from the CSD

@<TRIPOS>ATOM
     1 O1      28.5068  70.7819   7.8080   O.3       1 RES1   0.0000
     2 C2      29.5121  71.2223   8.7044   C.3       1 RES1   0.0000
     3 C3      29.4194  70.2486   9.8705   C.3       1 RES1   0.0000
     4 N4      29.6265  68.8026   9.6271   N.2       1 RES1   1.0000
     5 C5      30.9355  68.1532   9.5929   C.3       1 RES1   0.0000
     6 C6      30.8802  66.6527   9.3584   C.3       1 RES1   0.0000
     7 N7      30.2376  66.3272   8.0166   N.2       1 RES1   1.0000
     8 C8      31.3289  66.5449   6.9660   C.3       1 RES1   0.0000
     9 C9      32.6413  66.5383   7.7389   C.3       1 RES1   0.0000
    10 O10     33.6675  65.7946   7.1170   O.3       1 RES1   0.0000
    11 C11     32.2875  66.1283   9.1724   C.3       1 RES1   0.0000
    12 O12     32.0537  64.7343   9.2249   O.3       1 RES1   0.0000
    13 C13     27.9910  70.3270  10.4468   C.2       1 RES1   0.0000
    14 C14     26.9118  69.6127   9.9012   C.2       1 RES1   0.0000
    15 C15     25.6161  69.6677  10.4446   C.2       1 RES1   0.0000
    16 C16     25.3561  70.4518  11.5565   C.2       1 RES1   0.0000
    17 C17     26.4288  71.1403  12.0772   C.2       1 RES1   0.0000
    18 C18     27.7336  71.1180  11.5741   C.2       1 RES1   0.0000
@<TRIPOS>BOND
     1     1     2    1
     2     3     2    1
     3     3     4    1
     4     4     5    1
     5     6     5    1
     6     6     7    1
     7     7     8    1
     8     8     9    1
     9     9    10    1
    10     9    11    1
    11    11    12    1
    12     3    13    1
    13    13    14    2
    14    14    15    1
    15    15    16    2
    16    16    17    1
    17    17    18    2
    18    11     6    1
    19    18    13    1
@<TRIPOS>SUBSTRUCTURE
     1 RES1        1 GROUP             0 ****  ****    0  
@<TRIPOS>MOLECULE
ligand_40
    18    19     1     0     0
SMALL
USER_CHARGES
****
Generated from the CSD

@<TRIPOS>ATOM
     1 O1      30.3542  70.5997  12.8974   O.3       1 RES1   0.0000
     2 C2      31.0330  69.5272  12.2671   C.3       1 RES1   0.0000
     3 C3      30.3139  69.3670  10.9353   C.3       1 RES1   0.0000
     4 N4      30.7168  68.2751  10.0195   N.2       1 RES1   1.0000
     5 C5      30.4460  66.8588  10.2585   C.3       1 RES1   0.0000
     6 C6      30.9333  65.9367   9.1532   C.3       1 RES1   0.0000
     7 N7      30.3456  66.2951   7.8694   N.2       1 RES1   1.0000
     8 C8      31.4686  66.6195   6.9625   C.3       1 RES1   0.0000
     9 C9      32.6471  66.5387   7.7032   C.3       1 RES1   0.0000
    10 O10     33.6328  65.7757   7.0403   O.3       1 RES1   0.0000
    11 C11     32.3434  66.1453   9.0209   C.3       1 RES1   0.0000
    12 O12     32.8186  64.8250   9.1984   O.3       1 RES1   0.0000
    13 C13     30.5456  70.6486  10.1093   C.2       1 RES1   0.0000
    14 C14     29.5943  71.6782  10.0221   C.2       1 RES1   0.0000
    15 C15     29.8194  72.8560   9.2878   C.2       1 RES1   0.0000
    16 C16     31.0112  73.0388   8.6060   C.2       1 RES1   0.0000
    17 C17     31.9307  72.0191   8.7080   C.2       1 RES1   0.0000
    18 C18     31.7543  70.8311   9.4247   C.2       1 RES1   0.0000
@<TRIPOS>BOND
     1     1     2    1
     2     3     2    1
     3     3     4    1
     4     4     5    1
     5     6     5    1
     6     6     7    1
     7     7     8    1
     8     8     9    1
     9     9    10    1
    10     9    11    1
    11    11    12    1
    12     3    13    1
    13    13    14    2
    14    14    15    1
    15    15    16    2
    16    16    17    1
    17    17    18    2
    18    11     6    1
    19    18    13    1
@<TRIPOS>SUBSTRUCTURE
     1 RES1        1 GROUP             0 ****  ****    0  
@<TRIPOS>MOLECULE
ligand_41
    18    19     1     0     0
SMALL
USER_CHARGES
****
Generated from the CSD

@<TRIPOS>ATOM
     1 O1      31.5870  70.9353   9.4218   O.3       1 RES1   0.0000
     2 C2      30.2476  71.2621   9.0938   C.3       1 RES1   0.0000
     3 C3      29.4194  70.2486   9.8705   C.3       1 RES1   0.0000
     4 N4      29.6265  68.8026   9.6271   N.2       1 RES1   1.0000
     5 C5      30.9355  68.1532   9.5929   C.3       1 RES1   0.0000
     6 C6      30.8802  66.6528   9.3581   C.3       1 RES1   0.0000
     7 N7      30.2373  66.3275   8.0163   N.2       1 RES1   1.0000
     8 C8      31.3283  66.5455   6.9656   C.3       1 RES1   0.0000
     9 C9      32.6409  66.5388   7.7382   C.3       1 RES1   0.0000
    10 O10     33.6670  65.7953   7.1158   O.3       1 RES1   0.0000
    11 C11     32.2875  66.1285   9.1716   C.3       1 RES1   0.0000
    12 O12     32.0538  64.7345   9.2238   O.3       1 RES1   0.0000
    13 C13     27.9347  70.4749   9.5200   C.2       1 RES1   0.0000
    14 C14     27.0330  71.0962  10.3996   C.2       1 RES1   0.0000
    15 C15     25.6858  71.3229  10.0666   C.2       1 RES1   0.0000
    16 C16     25.1928  70.9248   8.8348   C.2       1 RES1   0.0000
    17 C17     26.0944  70.3214   7.9870   C.2       1 RES1   0.0000
    18 C18     27.4413  70.0746   8.2714   C.2       1 RES1   0.0000
@<TRIPOS>BOND
     1     1     2    1
     2     3     2    1
     3     3     4    1
     4     4     5    1
     5     6     5    1
     6     6     7    1
     7     7     8    1
     8     8     9    1
     9     9    10    1
    10     9    11    1
    11    11    12    1
    12     3    13    1
    13    13    14    2
    14    14    15    1
    15    15    16    2
    16    16    17    1
    17    17    18    2
    18    11     6    1
    19    18    13    1
@<TRIPOS>SUBSTRUCTURE
     1 RES1        1 GROUP             0 ****  ****    0  
@<TRIPOS>MOLECULE
ligand_42
    18    19     1     0     0
SMALL
USER_CHARGES
****
Generated from the CSD

@<TRIPOS>ATOM
     1 O1      30.2150  70.9176   9.8275   O.3       1 RES1   0.0000
     2 C2      30.3920  70.8735  11.2329   C.3       1 RES1   0.0000
     3 C3      31.5395  69.8932  11.4299   C.3       1 RES1   0.0000
     4 N4      31.4017  68.5049  10.9328   N.2       1 RES1   1.0000
     5 C5      30.9355  68.1532   9.5929   C.3       1 RES1   0.0000
     6 C6      30.8854  66.6584   9.3236   C.3       1 RES1   0.0000
     7 N7      30.2128  66.3602   7.9900   N.2       1 RES1   1.0000
     8 C8      31.2767  66.6117   6.9191   C.3       1 RES1   0.0000
     9 C9      32.6075  66.5968   7.6598   C.3       1 RES1   0.0000
    10 O10     33.6237  65.8764   6.9955   O.3       1 RES1   0.0000
    11 C11     32.2916  66.1497   9.0910   C.3       1 RES1   0.0000
    12 O12     32.0693  64.7530   9.1153   O.3       1 RES1   0.0000
    13 C13     31.7690  69.7235  12.9454   C.2       1 RES1   0.0000
    14 C14     32.8537  70.3082  13.6193   C.2       1 RES1   0.0000
    15 C15     33.0459  70.1715  15.0055   C.2       1 RES1   0.0000
    16 C16     32.1545  69.4330  15.7662   C.2       1 RES1   0.0000
    17 C17     31.0968  68.8719  15.0863   C.2       1 RES1   0.0000
    18 C18     30.8625  68.9792  13.7116   C.2       1 RES1   0.0000
@<TRIPOS>BOND
     1     1     2    1
     2     3     2    1
     3     3     4    1
     4     4     5    1
     5     6     5    1
     6     6     7    1
     7     7     8    1
     8     8     9    1
     9     9    10    1
    10     9    11    1
    11    11    12    1
    12     3    13    1
    13    13    14    2
    14    14    15    1
    15    15    16    2
    16    16    17    1
    17    17    18    2
    18    11     6    1
    19    18    13    1
@<TRIPOS>SUBSTRUCTURE
     1 RES1        1 GROUP             0 ****  ****    0  
@<TRIPOS>MOLECULE
ligand_43
    18    19     1     0     0
SMALL
USER_CHARGES
****
Generated from the CSD

@<TRIPOS>ATOM
     1 O1      27.8714  71.0972   9.2752   O.3       1 RES1   0.0000
     2 C2      27.5250  69.9078   8.5870   C.3       1 RES1   0.0000
     3 C3      28.8499  69.1770   8.4229   C.3       1 RES1   0.0000
     4 N4      29.6265  68.8026   9.6271   N.2       1 RES1   1.0000
     5 C5      30.9355  68.1532   9.5929   C.3       1 RES1   0.0000
     6 C6      30.8773  66.6346   9.5917   C.3       1 RES1   0.0000
     7 N7      30.1667  66.1106   8.3507   N.2       1 RES1   1.0000
     8 C8      31.1995  66.1646   7.2227   C.3       1 RES1   0.0000
     9 C9      32.5509  66.2729   7.9167   C.3       1 RES1   0.0000
    10 O10     33.5475  65.4417   7.3609   O.3       1 RES1   0.0000
    11 C11     32.2761  66.0855   9.4125   C.3       1 RES1   0.0000
    12 O12     32.0542  64.7160   9.6879   O.3       1 RES1   0.0000
    13 C13     29.8073  70.0932   7.6340   C.2       1 RES1   0.0000
    14 C14     30.5450  71.1230   8.2408   C.2       1 RES1   0.0000
    15 C15     31.4354  71.9403   7.5223   C.2       1 RES1   0.0000
    16 C16     31.6117  71.7557   6.1609   C.2       1 RES1   0.0000
    17 C17     30.8819  70.7387   5.5874   C.2       1 RES1   0.0000
    18 C18     29.9857  69.9001   6.2580   C.2       1 RES1   0.0000
@<TRIPOS>BOND
     1     1     2    1
     2     3     2    1
     3     3     4    1
     4     4     5    1
     5     6     5    1
     6     6     7    1
     7     7     8    1
     8     8     9    1
     9     9    10    1
    10     9    11    1
    11    11    12    1
    12     3    13    1
    13    13    14    2
    14    14    15    1
    15    15    16    2
    16    16    17    1
    17    17    18    2
    18    11     6    1
    19    18    13    1
@<TRIPOS>SUBSTRUCTURE
     1 RES1        1 GROUP             0 ****  ****    0  
@<TRIPOS>MOLECULE
ligand_44
    18    19     1     0     0
SMALL
USER_CHARGES
****
Generated from the CSD

@<TRIPOS>ATOM
     1 O1      26.3512  66.9700  11.6472   O.3       1 RES1   0.0000
     2 C2      26.5875  67.7184  10.4673   C.3       1 RES1   0.0000
     3 C3      28.0923  67.9462  10.4696   C.3       1 RES1   0.0000
     4 N4      29.0033  66.7786  10.4786   N.2       1 RES1   1.0000
     5 C5      30.4460  66.8588  10.2585   C.3       1 RES1   0.0000
     6 C6      30.9619  65.9338   9.1687   C.3       1 RES1   0.0000
     7 N7      30.3239  66.2170   7.8902   N.2       1 RES1   1.0000
     8 C8      31.4037  66.5797   6.9462   C.3       1 RES1   0.0000
     9 C9      32.6020  66.5920   7.6590   C.3       1 RES1   0.0000
    10 O10     33.6160  65.8690   6.9940   O.3       1 RES1   0.0000
    11 C11     32.3534  66.2219   8.9949   C.3       1 RES1   0.0000
    12 O12     32.9113  64.9382   9.1988   O.3       1 RES1   0.0000
    13 C13     28.4583  68.7122  11.7571   C.2       1 RES1   0.0000
    14 C14     28.5653  68.0852  13.0094   C.2       1 RES1   0.0000
    15 C15     28.9233  68.7827  14.1766   C.2       1 RES1   0.0000
    16 C16     29.1807  70.1429  14.1280   C.2       1 RES1   0.0000
    17 C17     29.0738  70.7365  12.8903   C.2       1 RES1   0.0000
    18 C18     28.7220  70.0871  11.7026   C.2       1 RES1   0.0000
@<TRIPOS>BOND
     1     1     2    1
     2     3     2    1
     3     3     4    1
     4     4     5    1
     5     6     5    1
     6     6     7    1
     7     7     8    1
     8     8     9    1
     9     9    10    1
    10     9    11    1
    11    11    12    1
    12     3    13    1
    13    13    14    2
    14    14    15    1
    15    15    16    2
    16    16    17    1
    17    17    18    2
    18    11     6    1
    19    18    13    1
@<TRIPOS>SUBSTRUCTURE
     1 RES1        1 GROUP             0 ****  ****    0  
@<TRIPOS>MOLECULE
ligand_45
    18    19     1     0     0
SMALL
USER_CHARGES
****
Generated from the CSD

@<TRIPOS>ATOM
     1 O1      26.3191  65.8060  11.0132   O.3       1 RES1   0.0000
     2 C2      26.8694  66.7168  11.9490   C.3       1 RES1   0.0000
     3 C3      28.3733  66.5388  11.7973   C.3       1 RES1   0.0000
     4 N4      29.0033  66.7786  10.4786   N.2       1 RES1   1.0000
     5 C5      30.4460  66.8588  10.2585   C.3       1 RES1   0.0000
     6 C6      30.9619  65.9338   9.1687   C.3       1 RES1   0.0000
     7 N7      30.3239  66.2170   7.8902   N.2       1 RES1   1.0000
     8 C8      31.4037  66.5797   6.9462   C.3       1 RES1   0.0000
     9 C9      32.6020  66.5920   7.6590   C.3       1 RES1   0.0000
    10 O10     33.6160  65.8690   6.9940   O.3       1 RES1   0.0000
    11 C11     32.3534  66.2219   8.9949   C.3       1 RES1   0.0000
    12 O12     32.9113  64.9382   9.1988   O.3       1 RES1   0.0000
    13 C13     28.7148  65.0676  12.1096   C.2       1 RES1   0.0000
    14 C14     28.5128  64.0286  11.1864   C.2       1 RES1   0.0000
    15 C15     28.8485  62.6921  11.4660   C.2       1 RES1   0.0000
    16 C16     29.3949  62.3495  12.6919   C.2       1 RES1   0.0000
    17 C17     29.5878  63.3837  13.5802   C.2       1 RES1   0.0000
    18 C18     29.2713  64.7263  13.3492   C.2       1 RES1   0.0000
@<TRIPOS>BOND
     1     1     2    1
     2     3     2    1
     3     3     4    1
     4     4     5    1
     5     6     5    1
     6     6     7    1
     7     7     8    1
     8     8     9    1
     9     9    10    1
    10     9    11    1
    11    11    12    1
    12     3    13    1
    13    13    14    2
    14    14    15    1
    15    15    16    2
    16    16    17    1
    17    17    18    2
    18    11     6    1
    19    18    13    1
@<TRIPOS>SUBSTRUCTURE
     1 RES1        1 GROUP             0 ****  ****    0  
@<TRIPOS>MOLECULE
ligand_46
    18    19     1     0     0
SMALL
USER_CHARGES
****
Generated from the CSD

@<TRIPOS>ATOM
     1 O1      26.4264  65.7287   9.7070   O.3       1 RES1   0.0000
     2 C2      26.5157  67.1364   9.8435   C.3       1 RES1   0.0000
     3 C3      27.9911  67.4361   9.6205   C.3       1 RES1   0.0000
     4 N4      29.0033  66.7786  10.4786   N.2       1 RES1   1.0000
     5 C5      30.4460  66.8588  10.2585   C.3       1 RES1   0.0000
     6 C6      30.9682  65.9029   9.1988   C.3       1 RES1   0.0000
     7 N7      30.4983  66.2779   7.8720   N.2       1 RES1   1.0000
     8 C8      31.7016  66.5371   7.0512   C.3       1 RES1   0.0000
     9 C9      32.8151  66.4046   7.8799   C.3       1 RES1   0.0000
    10 O10     33.8082  65.5870   7.2982   O.3       1 RES1   0.0000
    11 C11     32.3931  66.0396   9.1729   C.3       1 RES1   0.0000
    12 O12     32.7861  64.6989   9.3936   O.3       1 RES1   0.0000
    13 C13     28.2163  68.9416   9.8682   C.2       1 RES1   0.0000
    14 C14     28.3868  69.8657   8.8243   C.2       1 RES1   0.0000
    15 C15     28.5673  71.2412   9.0536   C.2       1 RES1   0.0000
    16 C16     28.5902  71.7382  10.3463   C.2       1 RES1   0.0000
    17 C17     28.4175  70.8158  11.3538   C.2       1 RES1   0.0000
    18 C18     28.2345  69.4405  11.1772   C.2       1 RES1   0.0000
@<TRIPOS>BOND
     1     1     2    1
     2     3     2    1
     3     3     4    1
     4     4     5    1
     5     6     5    1
     6     6     7    1
     7     7     8    1
     8     8     9    1
     9     9    10    1
    10     9    11    1
    11    11    12    1
    12     3    13    1
    13    13    14    2
    14    14    15    1
    15    15    16    2
    16    16    17    1
    17    17    18    2
    18    11     6    1
    19    18    13    1
@<TRIPOS>SUBSTRUCTURE
     1 RES1        1 GROUP             0 ****  ****    0  
@<TRIPOS>MOLECULE
ligand_47
    18    19     1     0     0
SMALL
USER_CHARGES
****
Generated from the CSD

@<TRIPOS>ATOM
     1 O1      26.8573  67.0840  12.3859   O.3       1 RES1   0.0000
     2 C2      26.8773  65.8718  11.6522   C.3       1 RES1   0.0000
     3 C3      28.3364  65.7062  11.2523   C.3       1 RES1   0.0000
     4 N4      29.0033  66.7786  10.4786   N.2       1 RES1   1.0000
     5 C5      30.4460  66.8588  10.2585   C.3       1 RES1   0.0000
     6 C6      30.9572  65.9579   9.1465   C.3       1 RES1   0.0000
     7 N7      30.3428  66.2950   7.8695   N.2       1 RES1   1.0000
     8 C8      31.4428  66.6641   6.9517   C.3       1 RES1   0.0000
     9 C9      32.6312  66.6282   7.6800   C.3       1 RES1   0.0000
    10 O10     33.6388  65.9050   7.0055   O.3       1 RES1   0.0000
    11 C11     32.3567  66.2214   9.0001   C.3       1 RES1   0.0000
    12 O12     32.8846  64.9202   9.1702   O.3       1 RES1   0.0000
    13 C13     28.4449  64.4678  10.3396   C.2       1 RES1   0.0000
    14 C14     28.9714  63.2429  10.7811   C.2       1 RES1   0.0000
    15 C15     29.0458  62.1089   9.9530   C.2       1 RES1   0.0000
    16 C16     28.5984  62.1680   8.6434   C.2       1 RES1   0.0000
    17 C17     28.0829  63.3768   8.2327   C.2       1 RES1   0.0000
    18 C18     27.9872  64.5309   9.0170   C.2       1 RES1   0.0000
@<TRIPOS>BOND
     1     1     2    1
     2     3     2    1
     3     3     4    1
     4     4     5    1
     5     6     5    1
     6     6     7    1
     7     7     8    1
     8     8     9    1
     9     9    10    1
    10     9    11    1
    11    11    12    1
    12     3    13    1
    13    13    14    2
    14    14    15    1
    15    15    16    2
    16    16    17    1
    17    17    18    2
    18    11     6    1
    19    18    13    1
@<TRIPOS>SUBSTRUCTURE
     1 RES1        1 GROUP             0 ****  ****    0  
@<TRIPOS>MOLECULE
ligand_48
    18    19     1     0     0
SMALL
USER_CHARGES
****
Generated from the CSD

@<TRIPOS>ATOM
     1 O1      31.5078  70.2440  13.2660   O.3       1 RES1   0.0000
     2 C2      31.1453  68.8913  13.4832   C.3       1 RES1   0.0000
     3 C3      30.5603  68.4473  12.1501   C.3       1 RES1   0.0000
     4 N4      31.4017  68.5049  10.9328   N.2       1 RES1   1.0000
     5 C5      30.9355  68.1532   9.5929   C.3       1 RES1   0.0000
     6 C6      30.8820  66.6583   9.3248   C.3       1 RES1   0.0000
     7 N7      30.2091  66.3605   7.9913   N.2       1 RES1   1.0000
     8 C8      31.2739  66.6087   6.9205   C.3       1 RES1   0.0000
     9 C9      32.6044  66.5913   7.6617   C.3       1 RES1   0.0000
    10 O10     33.6192  65.8679   6.9983   O.3       1 RES1   0.0000
    11 C11     32.2870  66.1461   9.0931   C.3       1 RES1   0.0000
    12 O12     32.0614  64.7500   9.1185   O.3       1 RES1   0.0000
    13 C13     29.3675  69.3677  11.8207   C.2       1 RES1   0.0000
    14 C14     29.5252  70.6357  11.2377   C.2       1 RES1   0.0000
    15 C15     28.4336  71.4617  10.9162   C.2       1 RES1   0.0000
    16 C16     27.1390  71.0438  11.1770   C.2       1 RES1   0.0000
    17 C17     27.0073  69.7965  11.7450   C.2       1 RES1   0.0000
    18 C18     28.0596  68.9391  12.0823   C.2       1 RES1   0.0000
@<TRIPOS>BOND
     1     1     2    1
     2     3     2    1
     3     3     4    1
     4     4     5    1
     5     6     5    1
     6     6     7    1
     7     7     8    1
     8     8     9    1
     9     9    10    1
    10     9    11    1
    11    11    12    1
    12     3    13    1
    13    13    14    2
    14    14    15    1
    15    15    16    2
    16    16    17    1
    17    17    18    2
    18    11     6    1
    19    18    13    1
@<TRIPOS>SUBSTRUCTURE
     1 RES1        1 GROUP             0 ****  ****    0  
@<TRIPOS>MOLECULE
ligand_49
    18    19     1     0     0
SMALL
USER_CHARGES
****
Generated from the CSD

@<TRIPOS>ATOM
     1 O1      31.5922  66.6235  14.4225   O.3       1 RES1   0.0000
     2 C2      30.5670  65.7198  14.0477   C.3       1 RES1   0.0000
     3 C3      30.0050  66.3112  12.7629   C.3       1 RES1   0.0000
     4 N4      30.9033  66.5136  11.6031   N.2       1 RES1   1.0000
     5 C5      30.4460  66.8588  10.2585   C.3       1 RES1   0.0000
     6 C6      30.9619  65.9338   9.1687   C.3       1 RES1   0.0000
     7 N7      30.3239  66.2170   7.8902   N.2       1 RES1   1.0000
     8 C8      31.4037  66.5797   6.9462   C.3       1 RES1   0.0000
     9 C9      32.6020  66.5920   7.6590   C.3       1 RES1   0.0000
    10 O10     33.6160  65.8690   6.9940   O.3       1 RES1   0.0000
    11 C11     32.3534  66.2219   8.9949   C.3       1 RES1   0.0000
    12 O12     32.9113  64.9382   9.1988   O.3       1 RES1   0.0000
    13 C13     29.4803  67.7269  13.0773   C.2       1 RES1   0.0000
    14 C14     30.3274  68.8402  13.2028   C.2       1 RES1   0.0000
    15 C15     29.8428  70.1339  13.4651   C.2       1 RES1   0.0000
    16 C16     28.4840  70.3545  13.6186   C.2       1 RES1   0.0000
    17 C17     27.6718  69.2504  13.4880   C.2       1 RES1   0.0000
    18 C18     28.1048  67.9462  13.2275   C.2       1 RES1   0.0000
@<TRIPOS>BOND
     1     1     2    1
     2     3     2    1
     3     3     4    1
     4     4     5    1
     5     6     5    1
     6     6     7    1
     7     7     8    1
     8     8     9    1
     9     9    10    1
    10     9    11    1
    11    11    12    1
    12     3    13    1
    13    13    14    2
    14    14    15    1
    15    15    16    2
    16    16    17    1
    17    17    18    2
    18    11     6    1
    19    18    13    1
@<TRIPOS>SUBSTRUCTURE
     1 RES1        1 GROUP             0 ****  ****    0  
@<TRIPOS>MOLECULE
ligand_50
    18    19     1     0     0
SMALL
USER_CHARGES
****
Generated from the CSD

@<TRIPOS>ATOM
     1 O1      32.3594  65.8920  14.0371   O.3       1 RES1   0.0000
     2 C2      31.6566  67.1221  14.0076   C.3       1 RES1   0.0000
     3 C3      31.5681  67.4614  12.5266   C.3       1 RES1   0.0000
     4 N4      30.9033  66.5136  11.6031   N.2       1 RES1   1.0000
     5 C5      30.4460  66.8588  10.2585   C.3       1 RES1   0.0000
     6 C6      30.9253  65.9077   9.1744   C.3       1 RES1   0.0000
     7 N7      30.1896  66.1082   7.9333   N.2       1 RES1   1.0000
     8 C8      31.1857  66.4716   6.9015   C.3       1 RES1   0.0000
     9 C9      32.4284  66.5634   7.5272   C.3       1 RES1   0.0000
    10 O10     33.4246  65.8528   6.8231   O.3       1 RES1   0.0000
    11 C11     32.2880  66.2433   8.8915   C.3       1 RES1   0.0000
    12 O12     32.9132  64.9932   9.1088   O.3       1 RES1   0.0000
    13 C13     33.0039  67.5721  11.9745   C.2       1 RES1   0.0000
    14 C14     33.8009  66.4484  11.7007   C.2       1 RES1   0.0000
    15 C15     35.1005  66.5528  11.1741   C.2       1 RES1   0.0000
    16 C16     35.6507  67.7962  10.9096   C.2       1 RES1   0.0000
    17 C17     34.8511  68.8835  11.1818   C.2       1 RES1   0.0000
    18 C18     33.5548  68.8315  11.7044   C.2       1 RES1   0.0000
@<TRIPOS>BOND
     1     1     2    1
     2     3     2    1
     3     3     4    1
     4     4     5    1
     5     6     5    1
     6     6     7    1
     7     7     8    1
     8     8     9    1
     9     9    10    1
    10     9    11    1
    11    11    12    1
    12     3    13    1
    13    13    14    2
    14    14    15    1
    15    15    16    2
    16    16    17    1
    17    17    18    2
    18    11     6    1
    19    18    13    1
@<TRIPOS>SUBSTRUCTURE
     1 RES1        1 GROUP             0 ****  ****    0  
@<TRIPOS>MOLECULE
ligand_51
    18    19     1     0     0
SMALL
USER_CHARGES
****
Generated from the CSD

@<TRIPOS>ATOM
     1 O1      32.3325  64.6306  13.2626   O.3       1 RES1   0.0000
     2 C2      31.0362  64.9979  13.7018   C.3       1 RES1   0.0000
     3 C3      30.3233  65.4291  12.4281   C.3       1 RES1   0.0000
     4 N4      30.9033  66.5136  11.6031   N.2       1 RES1   1.0000
     5 C5      30.4460  66.8588  10.2585   C.3       1 RES1   0.0000
     6 C6      30.9603  65.9326   9.1689   C.3       1 RES1   0.0000
     7 N7      30.3136  66.2083   7.8931   N.2       1 RES1   1.0000
     8 C8      31.3863  66.5731   6.9418   C.3       1 RES1   0.0000
     9 C9      32.5885  66.5937   7.6477   C.3       1 RES1   0.0000
    10 O10     33.6023  65.8735   6.9794   O.3       1 RES1   0.0000
    11 C11     32.3494  66.2269   8.9862   C.3       1 RES1   0.0000
    12 O12     32.9147  64.9467   9.1914   O.3       1 RES1   0.0000
    13 C13     28.9300  65.9638  12.8173   C.2       1 RES1   0.0000
    14 C14     27.7508  65.2279  12.6156   C.2       1 RES1   0.0000
    15 C15     26.4849  65.7087  12.9943   C.2       1 RES1   0.0000
    16 C16     26.3576  66.9550  13.5854   C.2       1 RES1   0.0000
    17 C17     27.5262  67.6574  13.7771   C.2       1 RES1   0.0000
    18 C18     28.8065  67.2230  13.4188   C.2       1 RES1   0.0000
@<TRIPOS>BOND
     1     1     2    1
     2     3     2    1
     3     3     4    1
     4     4     5    1
     5     6     5    1
     6     6     7    1
     7     7     8    1
     8     8     9    1
     9     9    10    1
    10     9    11    1
    11    11    12    1
    12     3    13    1
    13    13    14    2
    14    14    15    1
    15    15    16    2
    16    16    17    1
    17    17    18    2
    18    11     6    1
    19    18    13    1
@<TRIPOS>SUBSTRUCTURE
     1 RES1        1 GROUP             0 ****  ****    0  
@<TRIPOS>MOLECULE
ligand_52
    18    19     1     0     0
SMALL
USER_CHARGES
****
Generated from the CSD

@<TRIPOS>ATOM
     1 O1      27.2223  67.6414   8.3433   O.3       1 RES1   0.0000
     2 C2      27.7969  68.6518   9.1539   C.3       1 RES1   0.0000
     3 C3      28.0923  67.9462  10.4696   C.3       1 RES1   0.0000
     4 N4      29.0033  66.7786  10.4786   N.2       1 RES1   1.0000
     5 C5      30.4460  66.8588  10.2585   C.3       1 RES1   0.0000
     6 C6      30.9619  65.9338   9.1687   C.3       1 RES1   0.0000
     7 N7      30.3239  66.2170   7.8902   N.2       1 RES1   1.0000
     8 C8      31.4037  66.5797   6.9462   C.3       1 RES1   0.0000
     9 C9      32.6020  66.5920   7.6590   C.3       1 RES1   0.0000
    10 O10     33.6160  65.8690   6.9940   O.3       1 RES1   0.0000
    11 C11     32.3534  66.2219   8.9949   C.3       1 RES1   0.0000
    12 O12     32.9113  64.9382   9.1988   O.3       1 RES1   0.0000
    13 C13     26.7654  67.3857  11.0205   C.2       1 RES1   0.0000
    14 C14     26.2267  66.1585  10.6004   C.2       1 RES1   0.0000
    15 C15     25.0291  65.6393  11.1231   C.2       1 RES1   0.0000
    16 C16     24.3231  66.3417  12.0859   C.2       1 RES1   0.0000
    17 C17     24.8708  67.5400  12.4858   C.2       1 RES1   0.0000
    18 C18     26.0568  68.0975  11.9973   C.2       1 RES1   0.0000
@<TRIPOS>BOND
     1     1     2    1
     2     3     2    1
     3     3     4    1
     4     4     5    1
     5     6     5    1
     6     6     7    1
     7     7     8    1
     8     8     9    1
     9     9    10    1
    10     9    11    1
    11    11    12    1
    12     3    13    1
    13    13    14    2
    14    14    15    1
    15    15    16    2
    16    16    17    1
    17    17    18    2
    18    11     6    1
    19    18    13    1
@<TRIPOS>SUBSTRUCTURE
     1 RES1        1 GROUP             0 ****  ****    0  
@<TRIPOS>MOLECULE
ligand_53
    18    19     1     0     0
SMALL
USER_CHARGES
****
Generated from the CSD

@<TRIPOS>ATOM
     1 O1      27.7572  68.7273  12.2466   O.3       1 RES1   0.0000
     2 C2      28.4183  67.6317  12.8555   C.3       1 RES1   0.0000
     3 C3      28.3733  66.5388  11.7973   C.3       1 RES1   0.0000
     4 N4      29.0033  66.7786  10.4786   N.2       1 RES1   1.0000
     5 C5      30.4460  66.8588  10.2585   C.3       1 RES1   0.0000
     6 C6      30.9619  65.9338   9.1687   C.3       1 RES1   0.0000
     7 N7      30.3239  66.2170   7.8902   N.2       1 RES1   1.0000
     8 C8      31.4037  66.5797   6.9462   C.3       1 RES1   0.0000
     9 C9      32.6020  66.5920   7.6590   C.3       1 RES1   0.0000
    10 O10     33.6160  65.8690   6.9940   O.3       1 RES1   0.0000
    11 C11     32.3534  66.2219   8.9949   C.3       1 RES1   0.0000
    12 O12     32.9113  64.9382   9.1988   O.3       1 RES1   0.0000
    13 C13     26.8945  66.2627  11.4573   C.2       1 RES1   0.0000
    14 C14     26.1683  67.0399  10.5401   C.2       1 RES1   0.0000
    15 C15     24.8274  66.7699  10.2144   C.2       1 RES1   0.0000
    16 C16     24.1633  65.7085  10.8070   C.2       1 RES1   0.0000
    17 C17     24.8949  64.9577  11.6997   C.2       1 RES1   0.0000
    18 C18     26.2281  65.1855  12.0558   C.2       1 RES1   0.0000
@<TRIPOS>BOND
     1     1     2    1
     2     3     2    1
     3     3     4    1
     4     4     5    1
     5     6     5    1
     6     6     7    1
     7     7     8    1
     8     8     9    1
     9     9    10    1
    10     9    11    1
    11    11    12    1
    12     3    13    1
    13    13    14    2
    14    14    15    1
    15    15    16    2
    16    16    17    1
    17    17    18    2
    18    11     6    1
    19    18    13    1
@<TRIPOS>SUBSTRUCTURE
     1 RES1        1 GROUP             0 ****  ****    0  
@<TRIPOS>MOLECULE
ligand_54
    18    19     1     0     0
SMALL
USER_CHARGES
****
Generated from the CSD

@<TRIPOS>ATOM
     1 O1      29.8707  65.6081  12.9865   O.3       1 RES1   0.0000
     2 C2      28.4727  65.6847  12.7680   C.3       1 RES1   0.0000
     3 C3      28.3364  65.7062  11.2523   C.3       1 RES1   0.0000
     4 N4      29.0033  66.7786  10.4786   N.2       1 RES1   1.0000
     5 C5      30.4460  66.8588  10.2585   C.3       1 RES1   0.0000
     6 C6      30.9632  65.9272   9.1749   C.3       1 RES1   0.0000
     7 N7      30.3509  66.2242   7.8870   N.2       1 RES1   1.0000
     8 C8      31.4519  66.5699   6.9613   C.3       1 RES1   0.0000
     9 C9      32.6386  66.5599   7.6933   C.3       1 RES1   0.0000
    10 O10     33.6505  65.8207   7.0430   O.3       1 RES1   0.0000
    11 C11     32.3622  66.1914   9.0242   C.3       1 RES1   0.0000
    12 O12     32.8943  64.8977   9.2341   O.3       1 RES1   0.0000
    13 C13     26.8425  65.8748  10.9086   C.2       1 RES1   0.0000
    14 C14     26.0173  64.7937  10.5579   C.2       1 RES1   0.0000
    15 C15     24.6498  64.9483  10.2691   C.2       1 RES1   0.0000
    16 C16     24.0619  66.2017  10.3157   C.2       1 RES1   0.0000
    17 C17     24.8880  67.2463  10.6651   C.2       1 RES1   0.0000
    18 C18     26.2511  67.1438  10.9611   C.2       1 RES1   0.0000
@<TRIPOS>BOND
     1     1     2    1
     2     3     2    1
     3     3     4    1
     4     4     5    1
     5     6     5    1
     6     6     7    1
     7     7     8    1
     8     8     9    1
     9     9    10    1
    10     9    11    1
    11    11    12    1
    12     3    13    1
    13    13    14    2
    14    14    15    1
    15    15    16    2
    16    16    17    1
    17    17    18    2
    18    11     6    1
    19    18    13    1
@<TRIPOS>SUBSTRUCTURE
     1 RES1        1 GROUP             0 ****  ****    0  
@<TRIPOS>MOLECULE
ligand_55
    18    19     1     0     0
SMALL
USER_CHARGES
****
Generated from the CSD

@<TRIPOS>ATOM
     1 O1      32.9055  72.3919   8.0940   O.3       1 RES1   0.0000
     2 C2      32.9325  71.0214   7.7345   C.3       1 RES1   0.0000
     3 C3      31.9088  70.3771   8.6583   C.3       1 RES1   0.0000
     4 N4      31.7110  68.9102   8.6121   N.2       1 RES1   1.0000
     5 C5      30.9355  68.1532   9.5929   C.3       1 RES1   0.0000
     6 C6      30.8323  66.6671   9.2922   C.3       1 RES1   0.0000
     7 N7      29.9890  66.4127   8.0498   N.2       1 RES1   1.0000
     8 C8      30.9082  66.6850   6.8569   C.3       1 RES1   0.0000
     9 C9      32.3234  66.6374   7.4179   C.3       1 RES1   0.0000
    10 O10     33.2360  65.9270   6.6081   O.3       1 RES1   0.0000
    11 C11     32.1901  66.1527   8.8654   C.3       1 RES1   0.0000
    12 O12     31.9554  64.7580   8.8808   O.3       1 RES1   0.0000
    13 C13     30.5205  70.9500   8.3077   C.2       1 RES1   0.0000
    14 C14     29.8706  71.9069   9.1043   C.2       1 RES1   0.0000
    15 C15     28.6157  72.4449   8.7681   C.2       1 RES1   0.0000
    16 C16     27.9631  72.0331   7.6179   C.2       1 RES1   0.0000
    17 C17     28.6195  71.0976   6.8500   C.2       1 RES1   0.0000
    18 C18     29.8660  70.5338   7.1410   C.2       1 RES1   0.0000
@<TRIPOS>BOND
     1     1     2    1
     2     3     2    1
     3     3     4    1
     4     4     5    1
     5     6     5    1
     6     6     7    1
     7     7     8    1
     8     8     9    1
     9     9    10    1
    10     9    11    1
    11    11    12    1
    12     3    13    1
    13    13    14    2
    14    14    15    1
    15    15    16    2
    16    16    17    1
    17    17    18    2
    18    11     6    1
    19    18    13    1
@<TRIPOS>SUBSTRUCTURE
     1 RES1        1 GROUP             0 ****  ****    0  
@<TRIPOS>MOLECULE
ligand_56
    18    19     1     0     0
SMALL
USER_CHARGES
****
Generated from the CSD

@<TRIPOS>ATOM
     1 O1      30.0232  63.9937  12.7656   O.3       1 RES1   0.0000
     2 C2      29.1129  65.0789  12.8096   C.3       1 RES1   0.0000
     3 C3      30.0050  66.3112  12.7629   C.3       1 RES1   0.0000
     4 N4      30.9033  66.5136  11.6031   N.2       1 RES1   1.0000
     5 C5      30.4460  66.8588  10.2585   C.3       1 RES1   0.0000
     6 C6      30.9619  65.9338   9.1687   C.3       1 RES1   0.0000
     7 N7      30.3239  66.2170   7.8902   N.2       1 RES1   1.0000
     8 C8      31.4037  66.5797   6.9462   C.3       1 RES1   0.0000
     9 C9      32.6020  66.5920   7.6590   C.3       1 RES1   0.0000
    10 O10     33.6160  65.8690   6.9940   O.3       1 RES1   0.0000
    11 C11     32.3534  66.2219   8.9949   C.3       1 RES1   0.0000
    12 O12     32.9113  64.9382   9.1988   O.3       1 RES1   0.0000
    13 C13     30.9639  66.2537  13.9694   C.2       1 RES1   0.0000
    14 C14     32.1576  65.5137  13.9560   C.2       1 RES1   0.0000
    15 C15     33.0414  65.4837  15.0492   C.2       1 RES1   0.0000
    16 C16     32.7521  66.1936  16.2029   C.2       1 RES1   0.0000
    17 C17     31.5793  66.9148  16.1930   C.2       1 RES1   0.0000
    18 C18     30.6694  66.9767  15.1326   C.2       1 RES1   0.0000
@<TRIPOS>BOND
     1     1     2    1
     2     3     2    1
     3     3     4    1
     4     4     5    1
     5     6     5    1
     6     6     7    1
     7     7     8    1
     8     8     9    1
     9     9    10    1
    10     9    11    1
    11    11    12    1
    12     3    13    1
    13    13    14    2
    14    14    15    1
    15    15    16    2
    16    16    17    1
    17    17    18    2
    18    11     6    1
    19    18    13    1
@<TRIPOS>SUBSTRUCTURE
     1 RES1        1 GROUP             0 ****  ****    0  
@<TRIPOS>MOLECULE
ligand_57
    18    19     1     0     0
SMALL
USER_CHARGES
****
Generated from the CSD

@<TRIPOS>ATOM
     1 O1      29.7361  67.9175  13.8708   O.3       1 RES1   0.0000
     2 C2      30.7568  68.5874  13.1513   C.3       1 RES1   0.0000
     3 C3      31.5681  67.4614  12.5266   C.3       1 RES1   0.0000
     4 N4      30.9033  66.5136  11.6031   N.2       1 RES1   1.0000
     5 C5      30.4460  66.8588  10.2585   C.3       1 RES1   0.0000
     6 C6      30.9619  65.9338   9.1687   C.3       1 RES1   0.0000
     7 N7      30.3239  66.2170   7.8902   N.2       1 RES1   1.0000
     8 C8      31.4037  66.5797   6.9462   C.3       1 RES1   0.0000
     9 C9      32.6020  66.5920   7.6590   C.3       1 RES1   0.0000
    10 O10     33.6160  65.8690   6.9940   O.3       1 RES1   0.0000
    11 C11     32.3534  66.2219   8.9949   C.3       1 RES1   0.0000
    12 O12     32.9113  64.9382   9.1988   O.3       1 RES1   0.0000
    13 C13     32.0951  66.5632  13.6641   C.2       1 RES1   0.0000
    14 C14     31.3226  65.5460  14.2483   C.2       1 RES1   0.0000
    15 C15     31.8153  64.7131  15.2684   C.2       1 RES1   0.0000
    16 C16     33.1054  64.8783  15.7449   C.2       1 RES1   0.0000
    17 C17     33.8461  65.8783  15.1558   C.2       1 RES1   0.0000
    18 C18     33.4020  66.7310  14.1400   C.2       1 RES1   0.0000
@<TRIPOS>BOND
     1     1     2    1
     2     3     2    1
     3     3     4    1
     4     4     5    1
     5     6     5    1
     6     6     7    1
     7     7     8    1
     8     8     9    1
     9     9    10    1
    10     9    11    1
    11    11    12    1
    12     3    13    1
    13    13    14    2
    14    14    15    1
    15    15    16    2
    16    16    17    1
    17    17    18    2
    18    11     6    1
    19    18    13    1
@<TRIPOS>SUBSTRUCTURE
     1 RES1        1 GROUP             0 ****  ****    0  
@<TRIPOS>MOLECULE
ligand_58
    18    19     1     0     0
SMALL
USER_CHARGES
****
Generated from the CSD

@<TRIPOS>ATOM
     1 O1      32.3881  68.9833  11.2606   O.3       1 RES1   0.0000
     2 C2      32.5767  68.2880  12.4809   C.3       1 RES1   0.0000
     3 C3      32.2446  66.8429  12.1376   C.3       1 RES1   0.0000
     4 N4      30.9033  66.5136  11.6031   N.2       1 RES1   1.0000
     5 C5      30.4460  66.8588  10.2585   C.3       1 RES1   0.0000
     6 C6      30.9734  65.9423   9.1670   C.3       1 RES1   0.0000
     7 N7      30.2728  66.1622   7.9089   N.2       1 RES1   1.0000
     8 C8      31.2939  66.5662   6.9175   C.3       1 RES1   0.0000
     9 C9      32.5153  66.6615   7.5834   C.3       1 RES1   0.0000
    10 O10     33.5438  65.9838   6.8934   O.3       1 RES1   0.0000
    11 C11     32.3385  66.3055   8.9345   C.3       1 RES1   0.0000
    12 O12     32.9767  65.0602   9.1406   O.3       1 RES1   0.0000
    13 C13     32.3435  66.0090  13.4312   C.2       1 RES1   0.0000
    14 C14     33.4721  65.2372  13.7527   C.2       1 RES1   0.0000
    15 C15     33.5684  64.4978  14.9448   C.2       1 RES1   0.0000
    16 C16     32.5261  64.5019  15.8571   C.2       1 RES1   0.0000
    17 C17     31.4315  65.2678  15.5238   C.2       1 RES1   0.0000
    18 C18     31.2886  66.0195  14.3531   C.2       1 RES1   0.0000
@<TRIPOS>BOND
     1     1     2    1
     2     3     2    1
     3     3     4    1
     4     4     5    1
     5     6     5    1
     6     6     7    1
     7     7     8    1
     8     8     9    1
     9     9    10    1
    10     9    11    1
    11    11    12    1
    12     3    13    1
    13    13    14    2
    14    14    15    1
    15    15    16    2
    16    16    17    1
    17    17    18    2
    18    11     6    1
    19    18    13    1
@<TRIPOS>SUBSTRUCTURE
     1 RES1        1 GROUP             0 ****  ****    0  
@<TRIPOS>MOLECULE
ligand_59
    18    19     1     0     0
SMALL
USER_CHARGES
****
Generated from the CSD

@<TRIPOS>ATOM
     1 O1      34.3832  69.6513  11.7362   O.3       1 RES1   0.0000
     2 C2      33.1506  70.2236  12.1378   C.3       1 RES1   0.0000
     3 C3      32.2182  69.9521  10.9659   C.3       1 RES1   0.0000
     4 N4      31.9701  68.5543  10.5443   N.2       1 RES1   1.0000
     5 C5      30.9355  68.1532   9.5929   C.3       1 RES1   0.0000
     6 C6      30.7966  66.6496   9.4214   C.3       1 RES1   0.0000
     7 N7      30.1028  66.3056   8.1099   N.2       1 RES1   1.0000
     8 C8      31.1758  66.4238   7.0252   C.3       1 RES1   0.0000
     9 C9      32.5060  66.3787   7.7656   C.3       1 RES1   0.0000
    10 O10     33.4758  65.5579   7.1499   O.3       1 RES1   0.0000
    11 C11     32.1695  66.0448   9.2228   C.3       1 RES1   0.0000
    12 O12     31.8655  64.6683   9.3379   O.3       1 RES1   0.0000
    13 C13     32.8205  70.6167   9.7113   C.2       1 RES1   0.0000
    14 C14     33.8781  70.0467   8.9837   C.2       1 RES1   0.0000
    15 C15     34.4081  70.6436   7.8261   C.2       1 RES1   0.0000
    16 C16     33.8966  71.8437   7.3606   C.2       1 RES1   0.0000
    17 C17     32.8583  72.3828   8.0866   C.2       1 RES1   0.0000
    18 C18     32.2973  71.8284   9.2416   C.2       1 RES1   0.0000
@<TRIPOS>BOND
     1     1     2    1
     2     3     2    1
     3     3     4    1
     4     4     5    1
     5     6     5    1
     6     6     7    1
     7     7     8    1
     8     8     9    1
     9     9    10    1
    10     9    11    1
    11    11    12    1
    12     3    13    1
    13    13    14    2
    14    14    15    1
    15    15    16    2
    16    16    17    1
    17    17    18    2
    18    11     6    1
    19    18    13    1
@<TRIPOS>SUBSTRUCTURE
     1 RES1        1 GROUP             0 ****  ****    0  
@<TRIPOS>MOLECULE
ligand_60
    18    19     1     0     0
SMALL
USER_CHARGES
****
Generated from the CSD

@<TRIPOS>ATOM
     1 O1      32.7097  72.3733   9.5214   O.3       1 RES1   0.0000
     2 C2      32.8093  70.9751   9.7297   C.3       1 RES1   0.0000
     3 C3      31.9088  70.3771   8.6583   C.3       1 RES1   0.0000
     4 N4      31.7110  68.9102   8.6121   N.2       1 RES1   1.0000
     5 C5      30.9355  68.1532   9.5929   C.3       1 RES1   0.0000
     6 C6      30.8269  66.6682   9.2888   C.3       1 RES1   0.0000
     7 N7      29.9852  66.4199   8.0440   N.2       1 RES1   1.0000
     8 C8      30.9081  66.6910   6.8537   C.3       1 RES1   0.0000
     9 C9      32.3219  66.6364   7.4176   C.3       1 RES1   0.0000
    10 O10     33.2333  65.9241   6.6082   O.3       1 RES1   0.0000
    11 C11     32.1835  66.1492   8.8638   C.3       1 RES1   0.0000
    12 O12     31.9430  64.7554   8.8756   O.3       1 RES1   0.0000
    13 C13     32.5157  70.7132   7.2810   C.2       1 RES1   0.0000
    14 C14     32.0467  71.7686   6.4816   C.2       1 RES1   0.0000
    15 C15     32.6189  72.0873   5.2373   C.2       1 RES1   0.0000
    16 C16     33.6830  71.3487   4.7465   C.2       1 RES1   0.0000
    17 C17     34.1291  70.3217   5.5477   C.2       1 RES1   0.0000
    18 C18     33.5947  69.9663   6.7904   C.2       1 RES1   0.0000
@<TRIPOS>BOND
     1     1     2    1
     2     3     2    1
     3     3     4    1
     4     4     5    1
     5     6     5    1
     6     6     7    1
     7     7     8    1
     8     8     9    1
     9     9    10    1
    10     9    11    1
    11    11    12    1
    12     3    13    1
    13    13    14    2
    14    14    15    1
    15    15    16    2
    16    16    17    1
    17    17    18    2
    18    11     6    1
    19    18    13    1
@<TRIPOS>SUBSTRUCTURE
     1 RES1        1 GROUP             0 ****  ****    0  
@<TRIPOS>MOLECULE
ligand_61
    18    19     1     0     0
SMALL
USER_CHARGES
****
Generated from the CSD

@<TRIPOS>ATOM
     1 O1      29.9359  69.1285  11.9181   O.3       1 RES1   0.0000
     2 C2      28.5548  69.0693  11.6060   C.3       1 RES1   0.0000
     3 C3      28.2675  67.5797  11.4836   C.3       1 RES1   0.0000
     4 N4      29.0033  66.7786  10.4786   N.2       1 RES1   1.0000
     5 C5      30.4460  66.8588  10.2585   C.3       1 RES1   0.0000
     6 C6      30.9628  65.9295   9.1728   C.3       1 RES1   0.0000
     7 N7      30.3414  66.2217   7.8881   N.2       1 RES1   1.0000
     8 C8      31.4352  66.5733   6.9560   C.3       1 RES1   0.0000
     9 C9      32.6260  66.5710   7.6813   C.3       1 RES1   0.0000
    10 O10     33.6386  65.8375   7.0259   O.3       1 RES1   0.0000
    11 C11     32.3592  66.2019   9.0140   C.3       1 RES1   0.0000
    12 O12     32.9003  64.9117   9.2219   O.3       1 RES1   0.0000
    13 C13     26.7880  67.4091  11.0831   C.2       1 RES1   0.0000
    14 C14     25.9345  66.4838  11.7061   C.2       1 RES1   0.0000
    15 C15     24.5797  66.3486  11.3548   C.2       1 RES1   0.0000
    16 C16     24.0337  67.1370  10.3553   C.2       1 RES1   0.0000
    17 C17     24.8868  68.0395   9.7608   C.2       1 RES1   0.0000
    18 C18     26.2389  68.2117  10.0746   C.2       1 RES1   0.0000
@<TRIPOS>BOND
     1     1     2    1
     2     3     2    1
     3     3     4    1
     4     4     5    1
     5     6     5    1
     6     6     7    1
     7     7     8    1
     8     8     9    1
     9     9    10    1
    10     9    11    1
    11    11    12    1
    12     3    13    1
    13    13    14    2
    14    14    15    1
    15    15    16    2
    16    16    17    1
    17    17    18    2
    18    11     6    1
    19    18    13    1
@<TRIPOS>SUBSTRUCTURE
     1 RES1        1 GROUP             0 ****  ****    0  
@<TRIPOS>MOLECULE
ligand_62
    18    19     1     0     0
SMALL
USER_CHARGES
****
Generated from the CSD

@<TRIPOS>ATOM
     1 O1      28.1803  72.1907  10.1238   O.3       1 RES1   0.0000
     2 C2      28.0015  70.7943   9.9615   C.3       1 RES1   0.0000
     3 C3      29.4194  70.2486   9.8705   C.3       1 RES1   0.0000
     4 N4      29.6265  68.8026   9.6271   N.2       1 RES1   1.0000
     5 C5      30.9355  68.1532   9.5929   C.3       1 RES1   0.0000
     6 C6      30.8802  66.6526   9.3592   C.3       1 RES1   0.0000
     7 N7      30.2372  66.3264   8.0176   N.2       1 RES1   1.0000
     8 C8      31.3282  66.5436   6.9667   C.3       1 RES1   0.0000
     9 C9      32.6408  66.5374   7.7393   C.3       1 RES1   0.0000
    10 O10     33.6669  65.7934   7.1175   O.3       1 RES1   0.0000
    11 C11     32.2874  66.1281   9.1730   C.3       1 RES1   0.0000
    12 O12     32.0537  64.7342   9.2263   O.3       1 RES1   0.0000
    13 C13     30.1168  70.5009  11.2226   C.2       1 RES1   0.0000
    14 C14     31.0129  71.5628  11.4284   C.2       1 RES1   0.0000
    15 C15     31.6278  71.8040  12.6697   C.2       1 RES1   0.0000
    16 C16     31.3686  70.9786  13.7514   C.2       1 RES1   0.0000
    17 C17     30.4847  69.9466  13.5287   C.2       1 RES1   0.0000
    18 C18     29.8484  69.6661  12.3152   C.2       1 RES1   0.0000
@<TRIPOS>BOND
     1     1     2    1
     2     3     2    1
     3     3     4    1
     4     4     5    1
     5     6     5    1
     6     6     7    1
     7     7     8    1
     8     8     9    1
     9     9    10    1
    10     9    11    1
    11    11    12    1
    12     3    13    1
    13    13    14    2
    14    14    15    1
    15    15    16    2
    16    16    17    1
    17    17    18    2
    18    11     6    1
    19    18    13    1
@<TRIPOS>SUBSTRUCTURE
     1 RES1        1 GROUP             0 ****  ****    0  
@<TRIPOS>MOLECULE
ligand_63
    18    19     1     0     0
SMALL
USER_CHARGES
****
Generated from the CSD

@<TRIPOS>ATOM
     1 O1      26.9548  69.9270   9.8121   O.3       1 RES1   0.0000
     2 C2      27.7242  69.9027  11.0019   C.3       1 RES1   0.0000
     3 C3      28.7040  68.7585  10.7848   C.3       1 RES1   0.0000
     4 N4      29.6265  68.8026   9.6271   N.2       1 RES1   1.0000
     5 C5      30.9355  68.1532   9.5929   C.3       1 RES1   0.0000
     6 C6      30.8813  66.6561   9.3377   C.3       1 RES1   0.0000
     7 N7      30.3062  66.3514   7.9608   N.2       1 RES1   1.0000
     8 C8      31.4516  66.5728   6.9703   C.3       1 RES1   0.0000
     9 C9      32.7225  66.5467   7.8095   C.3       1 RES1   0.0000
    10 O10     33.7739  65.8022   7.2321   O.3       1 RES1   0.0000
    11 C11     32.2925  66.1227   9.2178   C.3       1 RES1   0.0000
    12 O12     32.0460  64.7301   9.2413   O.3       1 RES1   0.0000
    13 C13     27.8903  67.4675  10.5618   C.2       1 RES1   0.0000
    14 C14     27.2467  67.1756   9.3480   C.2       1 RES1   0.0000
    15 C15     26.5263  65.9860   9.1406   C.2       1 RES1   0.0000
    16 C16     26.4205  65.0464  10.1528   C.2       1 RES1   0.0000
    17 C17     27.0618  65.3509  11.3325   C.2       1 RES1   0.0000
    18 C18     27.7894  66.5180  11.5869   C.2       1 RES1   0.0000
@<TRIPOS>BOND
     1     1     2    1
     2     3     2    1
     3     3     4    1
     4     4     5    1
     5     6     5    1
     6     6     7    1
     7     7     8    1
     8     8     9    1
     9     9    10    1
    10     9    11    1
    11    11    12    1
    12     3    13    1
    13    13    14    2
    14    14    15    1
    15    15    16    2
    16    16    17    1
    17    17    18    2
    18    11     6    1
    19    18    13    1
@<TRIPOS>SUBSTRUCTURE
     1 RES1        1 GROUP             0 ****  ****    0  
@<TRIPOS>MOLECULE
ligand_64
    18    19     1     0     0
SMALL
USER_CHARGES
****
Generated from the CSD

@<TRIPOS>ATOM
     1 O1      31.1517  69.8487  13.0209   O.3       1 RES1   0.0000
     2 C2      31.2030  70.6543  11.8562   C.3       1 RES1   0.0000
     3 C3      32.2182  69.9521  10.9659   C.3       1 RES1   0.0000
     4 N4      31.9701  68.5543  10.5443   N.2       1 RES1   1.0000
     5 C5      30.9355  68.1532   9.5929   C.3       1 RES1   0.0000
     6 C6      30.7967  66.6496   9.4213   C.3       1 RES1   0.0000
     7 N7      30.1016  66.3056   8.1105   N.2       1 RES1   1.0000
     8 C8      31.1734  66.4242   7.0246   C.3       1 RES1   0.0000
     9 C9      32.5044  66.3792   7.7637   C.3       1 RES1   0.0000
    10 O10     33.4737  65.5587   7.1468   O.3       1 RES1   0.0000
    11 C11     32.1695  66.0451   9.2212   C.3       1 RES1   0.0000
    12 O12     31.8658  64.6685   9.3364   O.3       1 RES1   0.0000
    13 C13     33.5549  69.8770  11.7315   C.2       1 RES1   0.0000
    14 C14     33.8364  68.8716  12.6710   C.2       1 RES1   0.0000
    15 C15     35.0658  68.7924  13.3488   C.2       1 RES1   0.0000
    16 C16     36.0579  69.7293  13.1109   C.2       1 RES1   0.0000
    17 C17     35.7623  70.7034  12.1838   C.2       1 RES1   0.0000
    18 C18     34.5571  70.8243  11.4845   C.2       1 RES1   0.0000
@<TRIPOS>BOND
     1     1     2    1
     2     3     2    1
     3     3     4    1
     4     4     5    1
     5     6     5    1
     6     6     7    1
     7     7     8    1
     8     8     9    1
     9     9    10    1
    10     9    11    1
    11    11    12    1
    12     3    13    1
    13    13    14    2
    14    14    15    1
    15    15    16    2
    16    16    17    1
    17    17    18    2
    18    11     6    1
    19    18    13    1
@<TRIPOS>SUBSTRUCTURE
     1 RES1        1 GROUP             0 ****  ****    0  
@<TRIPOS>MOLECULE
ligand_65
    18    19     1     0     0
SMALL
USER_CHARGES
****
Generated from the CSD

@<TRIPOS>ATOM
     1 O1      26.7965  68.4265   9.1918   O.3       1 RES1   0.0000
     2 C2      27.3832  69.5562   8.5692   C.3       1 RES1   0.0000
     3 C3      28.8499  69.1770   8.4229   C.3       1 RES1   0.0000
     4 N4      29.6265  68.8026   9.6271   N.2       1 RES1   1.0000
     5 C5      30.9355  68.1532   9.5929   C.3       1 RES1   0.0000
     6 C6      30.8779  66.6347   9.6113   C.3       1 RES1   0.0000
     7 N7      30.0783  66.0985   8.4311   N.2       1 RES1   1.0000
     8 C8      31.0256  66.1407   7.2300   C.3       1 RES1   0.0000
     9 C9      32.4243  66.2554   7.8219   C.3       1 RES1   0.0000
    10 O10     33.3777  65.4182   7.2029   O.3       1 RES1   0.0000
    11 C11     32.2599  66.0832   9.3356   C.3       1 RES1   0.0000
    12 O12     32.0592  64.7167   9.6404   O.3       1 RES1   0.0000
    13 C13     29.6056  70.3971   7.8586   C.2       1 RES1   0.0000
    14 C14     29.9489  71.5085   8.6459   C.2       1 RES1   0.0000
    15 C15     30.6596  72.6082   8.1334   C.2       1 RES1   0.0000
    16 C16     31.0461  72.6336   6.8035   C.2       1 RES1   0.0000
    17 C17     30.7027  71.5328   6.0511   C.2       1 RES1   0.0000
    18 C18     29.9983  70.4167   6.5139   C.2       1 RES1   0.0000
@<TRIPOS>BOND
     1     1     2    1
     2     3     2    1
     3     3     4    1
     4     4     5    1
     5     6     5    1
     6     6     7    1
     7     7     8    1
     8     8     9    1
     9     9    10    1
    10     9    11    1
    11    11    12    1
    12     3    13    1
    13    13    14    2
    14    14    15    1
    15    15    16    2
    16    16    17    1
    17    17    18    2
    18    11     6    1
    19    18    13    1
@<TRIPOS>SUBSTRUCTURE
     1 RES1        1 GROUP             0 ****  ****    0  
@<TRIPOS>MOLECULE
ligand_66
    18    19     1     0     0
SMALL
USER_CHARGES
****
Generated from the CSD

@<TRIPOS>ATOM
     1 O1      32.5046  69.4030  13.4608   O.3       1 RES1   0.0000
     2 C2      33.3159  69.5786  12.3122   C.3       1 RES1   0.0000
     3 C3      32.8239  68.5106  11.3459   C.3       1 RES1   0.0000
     4 N4      31.4017  68.5049  10.9328   N.2       1 RES1   1.0000
     5 C5      30.9355  68.1532   9.5929   C.3       1 RES1   0.0000
     6 C6      30.9437  66.6615   9.3025   C.3       1 RES1   0.0000
     7 N7      30.1022  66.3335   8.0761   N.2       1 RES1   1.0000
     8 C8      30.9774  66.6683   6.8662   C.3       1 RES1   0.0000
     9 C9      32.4012  66.7351   7.4031   C.3       1 RES1   0.0000
    10 O10     33.3528  66.0924   6.5818   O.3       1 RES1   0.0000
    11 C11     32.3302  66.2516   8.8554   C.3       1 RES1   0.0000
    12 O12     32.2054  64.8430   8.8827   O.3       1 RES1   0.0000
    13 C13     33.0221  67.1342  12.0126   C.2       1 RES1   0.0000
    14 C14     34.0809  66.2740  11.6785   C.2       1 RES1   0.0000
    15 C15     34.2723  65.0304  12.3063   C.2       1 RES1   0.0000
    16 C16     33.3982  64.6019  13.2917   C.2       1 RES1   0.0000
    17 C17     32.3700  65.4620  13.6061   C.2       1 RES1   0.0000
    18 C18     32.1380  66.7067  13.0118   C.2       1 RES1   0.0000
@<TRIPOS>BOND
     1     1     2    1
     2     3     2    1
     3     3     4    1
     4     4     5    1
     5     6     5    1
     6     6     7    1
     7     7     8    1
     8     8     9    1
     9     9    10    1
    10     9    11    1
    11    11    12    1
    12     3    13    1
    13    13    14    2
    14    14    15    1
    15    15    16    2
    16    16    17    1
    17    17    18    2
    18    11     6    1
    19    18    13    1
@<TRIPOS>SUBSTRUCTURE
     1 RES1        1 GROUP             0 ****  ****    0  
@<TRIPOS>MOLECULE
ligand_67
    18    19     1     0     0
SMALL
USER_CHARGES
****
Generated from the CSD

@<TRIPOS>ATOM
     1 O1      30.6372  71.1769  10.1038   O.3       1 RES1   0.0000
     2 C2      31.8331  70.5556  10.5421   C.3       1 RES1   0.0000
     3 C3      31.3871  69.1710  10.9898   C.3       1 RES1   0.0000
     4 N4      30.7168  68.2751  10.0195   N.2       1 RES1   1.0000
     5 C5      30.4460  66.8588  10.2585   C.3       1 RES1   0.0000
     6 C6      30.9933  65.9308   9.1867   C.3       1 RES1   0.0000
     7 N7      30.4457  66.2564   7.8767   N.2       1 RES1   1.0000
     8 C8      31.5940  66.5917   7.0062   C.3       1 RES1   0.0000
     9 C9      32.7459  66.5484   7.7906   C.3       1 RES1   0.0000
    10 O10     33.7715  65.7973   7.1763   O.3       1 RES1   0.0000
    11 C11     32.4025  66.1686   9.1025   C.3       1 RES1   0.0000
    12 O12     32.8992  64.8619   9.3184   O.3       1 RES1   0.0000
    13 C13     30.3468  69.3439  12.1151   C.2       1 RES1   0.0000
    14 C14     29.0059  69.6786  11.8647   C.2       1 RES1   0.0000
    15 C15     28.0548  69.8112  12.8918   C.2       1 RES1   0.0000
    16 C16     28.4208  69.6185  14.2138   C.2       1 RES1   0.0000
    17 C17     29.7386  69.2876  14.4361   C.2       1 RES1   0.0000
    18 C18     30.7204  69.1439  13.4504   C.2       1 RES1   0.0000
@<TRIPOS>BOND
     1     1     2    1
     2     3     2    1
     3     3     4    1
     4     4     5    1
     5     6     5    1
     6     6     7    1
     7     7     8    1
     8     8     9    1
     9     9    10    1
    10     9    11    1
    11    11    12    1
    12     3    13    1
    13    13    14    2
    14    14    15    1
    15    15    16    2
    16    16    17    1
    17    17    18    2
    18    11     6    1
    19    18    13    1
@<TRIPOS>SUBSTRUCTURE
     1 RES1        1 GROUP             0 ****  ****    0  
@<TRIPOS>MOLECULE
ligand_68
    18    19     1     0     0
SMALL
USER_CHARGES
****
Generated from the CSD

@<TRIPOS>ATOM
     1 O1      30.9940  71.0284   9.1512   O.3       1 RES1   0.0000
     2 C2      30.1093  70.7862  10.2314   C.3       1 RES1   0.0000
     3 C3      29.6846  69.3368  10.0430   C.3       1 RES1   0.0000
     4 N4      30.7168  68.2751  10.0195   N.2       1 RES1   1.0000
     5 C5      30.4460  66.8588  10.2585   C.3       1 RES1   0.0000
     6 C6      31.0611  65.9251   9.2293   C.3       1 RES1   0.0000
     7 N7      30.4899  66.1463   7.9077   N.2       1 RES1   1.0000
     8 C8      31.6093  66.5255   7.0178   C.3       1 RES1   0.0000
     9 C9      32.7616  66.6061   7.7986   C.3       1 RES1   0.0000
    10 O10     33.8405  65.9061   7.2163   O.3       1 RES1   0.0000
    11 C11     32.4484  66.2639   9.1284   C.3       1 RES1   0.0000
    12 O12     33.0422  65.0100   9.4035   O.3       1 RES1   0.0000
    13 C13     28.9956  69.2149   8.6687   C.2       1 RES1   0.0000
    14 C14     29.7086  69.2197   7.4586   C.2       1 RES1   0.0000
    15 C15     29.0788  69.0835   6.2088   C.2       1 RES1   0.0000
    16 C16     27.7029  68.9442   6.1299   C.2       1 RES1   0.0000
    17 C17     27.0243  68.9383   7.3279   C.2       1 RES1   0.0000
    18 C18     27.6041  69.0699   8.5938   C.2       1 RES1   0.0000
@<TRIPOS>BOND
     1     1     2    1
     2     3     2    1
     3     3     4    1
     4     4     5    1
     5     6     5    1
     6     6     7    1
     7     7     8    1
     8     8     9    1
     9     9    10    1
    10     9    11    1
    11    11    12    1
    12     3    13    1
    13    13    14    2
    14    14    15    1
    15    15    16    2
    16    16    17    1
    17    17    18    2
    18    11     6    1
    19    18    13    1
@<TRIPOS>SUBSTRUCTURE
     1 RES1        1 GROUP             0 ****  ****    0  
@<TRIPOS>MOLECULE
ligand_69
    18    19     1     0     0
SMALL
USER_CHARGES
****
Generated from the CSD

@<TRIPOS>ATOM
     1 O1      27.5498  63.0965  12.0847   O.3       1 RES1   0.0000
     2 C2      26.7416  64.0488  11.4154   C.3       1 RES1   0.0000
     3 C3      27.7136  65.1573  11.0372   C.3       1 RES1   0.0000
     4 N4      28.8710  64.8427  10.1685   N.2       1 RES1   1.0000
     5 C5      29.9025  65.8070   9.7910   C.3       1 RES1   0.0000
     6 C6      30.9865  65.2386   8.8902   C.3       1 RES1   0.0000
     7 N7      30.6155  65.3723   7.4419   N.2       1 RES1   1.0000
     8 C8      31.2577  66.6335   6.9549   C.3       1 RES1   0.0000
     9 C9      32.6020  66.5920   7.6590   C.3       1 RES1   0.0000
    10 O10     33.6160  65.8690   6.9940   O.3       1 RES1   0.0000
    11 C11     32.2491  66.1123   9.0685   C.3       1 RES1   0.0000
    12 O12     33.1855  65.1341   9.4771   O.3       1 RES1   0.0000
    13 C13     28.3567  65.6924  12.3327   C.2       1 RES1   0.0000
    14 C14     29.4472  65.0633  12.9552   C.2       1 RES1   0.0000
    15 C15     30.0464  65.5681  14.1229   C.2       1 RES1   0.0000
    16 C16     29.5640  66.7246  14.7132   C.2       1 RES1   0.0000
    17 C17     28.4973  67.3269  14.0846   C.2       1 RES1   0.0000
    18 C18     27.8682  66.8648  12.9241   C.2       1 RES1   0.0000
@<TRIPOS>BOND
     1     1     2    1
     2     3     2    1
     3     3     4    1
     4     4     5    1
     5     6     5    1
     6     6     7    1
     7     7     8    1
     8     8     9    1
     9     9    10    1
    10     9    11    1
    11    11    12    1
    12     3    13    1
    13    13    14    2
    14    14    15    1
    15    15    16    2
    16    16    17    1
    17    17    18    2
    18    11     6    1
    19    18    13    1
@<TRIPOS>SUBSTRUCTURE
     1 RES1        1 GROUP             0 ****  ****    0  
@<TRIPOS>MOLECULE
ligand_70
    18    19     1     0     0
SMALL
USER_CHARGES
****
Generated from the CSD

@<TRIPOS>ATOM
     1 O1      31.9715  70.3189   8.4122   O.3       1 RES1   0.0000
     2 C2      32.2408  70.3608   9.8029   C.3       1 RES1   0.0000
     3 C3      32.0240  68.9268  10.2644   C.3       1 RES1   0.0000
     4 N4      30.7168  68.2751  10.0195   N.2       1 RES1   1.0000
     5 C5      30.4460  66.8588  10.2585   C.3       1 RES1   0.0000
     6 C6      30.6855  65.9669   9.0516   C.3       1 RES1   0.0000
     7 N7      29.9285  66.4282   7.8958   N.2       1 RES1   1.0000
     8 C8      30.9134  66.7283   6.8334   C.3       1 RES1   0.0000
     9 C9      32.1858  66.5349   7.3697   C.3       1 RES1   0.0000
    10 O10     32.9975  65.7471   6.5249   O.3       1 RES1   0.0000
    11 C11     32.0680  66.0931   8.7017   C.3       1 RES1   0.0000
    12 O12     32.4710  64.7380   8.7450   O.3       1 RES1   0.0000
    13 C13     32.1754  68.8899  11.7987   C.2       1 RES1   0.0000
    14 C14     33.3209  68.3866  12.4368   C.2       1 RES1   0.0000
    15 C15     33.4654  68.3774  13.8354   C.2       1 RES1   0.0000
    16 C16     32.4560  68.8691  14.6466   C.2       1 RES1   0.0000
    17 C17     31.3440  69.3608  14.0004   C.2       1 RES1   0.0000
    18 C18     31.1537  69.3922  12.6151   C.2       1 RES1   0.0000
@<TRIPOS>BOND
     1     1     2    1
     2     3     2    1
     3     3     4    1
     4     4     5    1
     5     6     5    1
     6     6     7    1
     7     7     8    1
     8     8     9    1
     9     9    10    1
    10     9    11    1
    11    11    12    1
    12     3    13    1
    13    13    14    2
    14    14    15    1
    15    15    16    2
    16    16    17    1
    17    17    18    2
    18    11     6    1
    19    18    13    1
@<TRIPOS>SUBSTRUCTURE
     1 RES1        1 GROUP             0 ****  ****    0  
@<TRIPOS>MOLECULE
ligand_71
    18    19     1     0     0
SMALL
USER_CHARGES
****
Generated from the CSD

@<TRIPOS>ATOM
     1 O1      33.2483  68.4991  13.0172   O.3       1 RES1   0.0000
     2 C2      32.1161  67.9641  13.6806   C.3       1 RES1   0.0000
     3 C3      31.0676  67.8452  12.5838   C.3       1 RES1   0.0000
     4 N4      31.3479  67.0009  11.3999   N.2       1 RES1   1.0000
     5 C5      30.4460  66.8588  10.2585   C.3       1 RES1   0.0000
     6 C6      30.9127  65.8550   9.2173   C.3       1 RES1   0.0000
     7 N7      30.0842  65.9119   8.0206   N.2       1 RES1   1.0000
     8 C8      30.9833  66.2510   6.8957   C.3       1 RES1   0.0000
     9 C9      32.2564  66.4664   7.4220   C.3       1 RES1   0.0000
    10 O10     33.2475  65.7629   6.7037   O.3       1 RES1   0.0000
    11 C11     32.2287  66.2478   8.8130   C.3       1 RES1   0.0000
    12 O12     32.9471  65.0586   9.0782   O.3       1 RES1   0.0000
    13 C13     30.8339  69.2496  11.9910   C.2       1 RES1   0.0000
    14 C14     31.6719  69.8102  11.0132   C.2       1 RES1   0.0000
    15 C15     31.4413  71.0811  10.4574   C.2       1 RES1   0.0000
    16 C16     30.3594  71.8403  10.8717   C.2       1 RES1   0.0000
    17 C17     29.5492  71.2704  11.8279   C.2       1 RES1   0.0000
    18 C18     29.7360  70.0124  12.4099   C.2       1 RES1   0.0000
@<TRIPOS>BOND
     1     1     2    1
     2     3     2    1
     3     3     4    1
     4     4     5    1
     5     6     5    1
     6     6     7    1
     7     7     8    1
     8     8     9    1
     9     9    10    1
    10     9    11    1
    11    11    12    1
    12     3    13    1
    13    13    14    2
    14    14    15    1
    15    15    16    2
    16    16    17    1
    17    17    18    2
    18    11     6    1
    19    18    13    1
@<TRIPOS>SUBSTRUCTURE
     1 RES1        1 GROUP             0 ****  ****    0  
@<TRIPOS>MOLECULE
ligand_72
    18    19     1     0     0
SMALL
USER_CHARGES
****
Generated from the CSD

@<TRIPOS>ATOM
     1 O1      29.7686  70.3654  12.0714   O.3       1 RES1   0.0000
     2 C2      29.2404  69.0548  12.1779   C.3       1 RES1   0.0000
     3 C3      28.7040  68.7585  10.7848   C.3       1 RES1   0.0000
     4 N4      29.6265  68.8026   9.6271   N.2       1 RES1   1.0000
     5 C5      30.9355  68.1532   9.5929   C.3       1 RES1   0.0000
     6 C6      30.8812  66.6558   9.3393   C.3       1 RES1   0.0000
     7 N7      30.3034  66.3496   7.9638   N.2       1 RES1   1.0000
     8 C8      31.4467  66.5703   6.9709   C.3       1 RES1   0.0000
     9 C9      32.7193  66.5454   7.8075   C.3       1 RES1   0.0000
    10 O10     33.7697  65.8006   7.2287   O.3       1 RES1   0.0000
    11 C11     32.2923  66.1227   9.2171   C.3       1 RES1   0.0000
    12 O12     32.0463  64.7301   9.2425   O.3       1 RES1   0.0000
    13 C13     27.6353  69.8183  10.4482   C.2       1 RES1   0.0000
    14 C14     27.9610  71.1252  10.0499   C.2       1 RES1   0.0000
    15 C15     26.9840  72.0812   9.7201   C.2       1 RES1   0.0000
    16 C16     25.6386  71.7585   9.7861   C.2       1 RES1   0.0000
    17 C17     25.3421  70.4714  10.1750   C.2       1 RES1   0.0000
    18 C18     26.2758  69.4862  10.5122   C.2       1 RES1   0.0000
@<TRIPOS>BOND
     1     1     2    1
     2     3     2    1
     3     3     4    1
     4     4     5    1
     5     6     5    1
     6     6     7    1
     7     7     8    1
     8     8     9    1
     9     9    10    1
    10     9    11    1
    11    11    12    1
    12     3    13    1
    13    13    14    2
    14    14    15    1
    15    15    16    2
    16    16    17    1
    17    17    18    2
    18    11     6    1
    19    18    13    1
@<TRIPOS>SUBSTRUCTURE
     1 RES1        1 GROUP             0 ****  ****    0  
@<TRIPOS>MOLECULE
ligand_73
    18    19     1     0     0
SMALL
USER_CHARGES
****
Generated from the CSD

@<TRIPOS>ATOM
     1 O1      29.6892  68.1631  12.3887   O.3       1 RES1   0.0000
     2 C2      31.0206  67.8301  12.0354   C.3       1 RES1   0.0000
     3 C3      31.0434  66.3088  12.0742   C.3       1 RES1   0.0000
     4 N4      30.1092  65.5466  11.2143   N.2       1 RES1   1.0000
     5 C5      29.9025  65.8070   9.7910   C.3       1 RES1   0.0000
     6 C6      30.9864  65.2385   8.8902   C.3       1 RES1   0.0000
     7 N7      30.6155  65.3723   7.4419   N.2       1 RES1   1.0000
     8 C8      31.2577  66.6334   6.9548   C.3       1 RES1   0.0000
     9 C9      32.6020  66.5919   7.6590   C.3       1 RES1   0.0000
    10 O10     33.6160  65.8688   6.9940   O.3       1 RES1   0.0000
    11 C11     32.2491  66.1122   9.0685   C.3       1 RES1   0.0000
    12 O12     33.1855  65.1340   9.4771   O.3       1 RES1   0.0000
    13 C13     30.6802  65.8612  13.5046   C.2       1 RES1   0.0000
    14 C14     31.6398  65.4107  14.4260   C.2       1 RES1   0.0000
    15 C15     31.3078  65.0267  15.7373   C.2       1 RES1   0.0000
    16 C16     29.9925  65.0752  16.1690   C.2       1 RES1   0.0000
    17 C17     29.0692  65.5231  15.2512   C.2       1 RES1   0.0000
    18 C18     29.3492  65.9159  13.9384   C.2       1 RES1   0.0000
@<TRIPOS>BOND
     1     1     2    1
     2     3     2    1
     3     3     4    1
     4     4     5    1
     5     6     5    1
     6     6     7    1
     7     7     8    1
     8     8     9    1
     9     9    10    1
    10     9    11    1
    11    11    12    1
    12     3    13    1
    13    13    14    2
    14    14    15    1
    15    15    16    2
    16    16    17    1
    17    17    18    2
    18    11     6    1
    19    18    13    1
@<TRIPOS>SUBSTRUCTURE
     1 RES1        1 GROUP             0 ****  ****    0  
@<TRIPOS>MOLECULE
ligand_74
    18    19     1     0     0
SMALL
USER_CHARGES
****
Generated from the CSD

@<TRIPOS>ATOM
     1 O1      31.7658  71.5488  13.0357   O.3       1 RES1   0.0000
     2 C2      31.7218  70.1370  12.9211   C.3       1 RES1   0.0000
     3 C3      31.5395  69.8932  11.4299   C.3       1 RES1   0.0000
     4 N4      31.4017  68.5049  10.9328   N.2       1 RES1   1.0000
     5 C5      30.9355  68.1532   9.5929   C.3       1 RES1   0.0000
     6 C6      30.8821  66.6583   9.3247   C.3       1 RES1   0.0000
     7 N7      30.2092  66.3605   7.9912   N.2       1 RES1   1.0000
     8 C8      31.2740  66.6087   6.9204   C.3       1 RES1   0.0000
     9 C9      32.6045  66.5914   7.6616   C.3       1 RES1   0.0000
    10 O10     33.6193  65.8681   6.9982   O.3       1 RES1   0.0000
    11 C11     32.2872  66.1462   9.0930   C.3       1 RES1   0.0000
    12 O12     32.0616  64.7501   9.1184   O.3       1 RES1   0.0000
    13 C13     32.7902  70.4257  10.7015   C.2       1 RES1   0.0000
    14 C14     32.7150  71.2311   9.5534   C.2       1 RES1   0.0000
    15 C15     33.8573  71.7350   8.9065   C.2       1 RES1   0.0000
    16 C16     35.1220  71.4400   9.3886   C.2       1 RES1   0.0000
    17 C17     35.1724  70.6523  10.5168   C.2       1 RES1   0.0000
    18 C18     34.0672  70.1283  11.1951   C.2       1 RES1   0.0000
@<TRIPOS>BOND
     1     1     2    1
     2     3     2    1
     3     3     4    1
     4     4     5    1
     5     6     5    1
     6     6     7    1
     7     7     8    1
     8     8     9    1
     9     9    10    1
    10     9    11    1
    11    11    12    1
    12     3    13    1
    13    13    14    2
    14    14    15    1
    15    15    16    2
    16    16    17    1
    17    17    18    2
    18    11     6    1
    19    18    13    1
@<TRIPOS>SUBSTRUCTURE
     1 RES1        1 GROUP             0 ****  ****    0  
@<TRIPOS>MOLECULE
ligand_75
    18    19     1     0     0
SMALL
USER_CHARGES
****
Generated from the CSD

@<TRIPOS>ATOM
     1 O1      28.3397  70.7078   7.8719   O.3       1 RES1   0.0000
     2 C2      28.2078  70.9414   9.2634   C.3       1 RES1   0.0000
     3 C3      29.4194  70.2486   9.8705   C.3       1 RES1   0.0000
     4 N4      29.6265  68.8026   9.6271   N.2       1 RES1   1.0000
     5 C5      30.9355  68.1532   9.5929   C.3       1 RES1   0.0000
     6 C6      30.8802  66.6526   9.3590   C.3       1 RES1   0.0000
     7 N7      30.2374  66.3265   8.0173   N.2       1 RES1   1.0000
     8 C8      31.3286  66.5439   6.9666   C.3       1 RES1   0.0000
     9 C9      32.6411  66.5376   7.7394   C.3       1 RES1   0.0000
    10 O10     33.6673  65.7937   7.1177   O.3       1 RES1   0.0000
    11 C11     32.2875  66.1281   9.1730   C.3       1 RES1   0.0000
    12 O12     32.0537  64.7342   9.2261   O.3       1 RES1   0.0000
    13 C13     29.3121  70.3549  11.4053   C.2       1 RES1   0.0000
    14 C14     30.3925  70.7369  12.2174   C.2       1 RES1   0.0000
    15 C15     30.2838  70.8564  13.6142   C.2       1 RES1   0.0000
    16 C16     29.0819  70.5881  14.2482   C.2       1 RES1   0.0000
    17 C17     28.0354  70.2191  13.4331   C.2       1 RES1   0.0000
    18 C18     28.0933  70.0867  12.0420   C.2       1 RES1   0.0000
@<TRIPOS>BOND
     1     1     2    1
     2     3     2    1
     3     3     4    1
     4     4     5    1
     5     6     5    1
     6     6     7    1
     7     7     8    1
     8     8     9    1
     9     9    10    1
    10     9    11    1
    11    11    12    1
    12     3    13    1
    13    13    14    2
    14    14    15    1
    15    15    16    2
    16    16    17    1
    17    17    18    2
    18    11     6    1
    19    18    13    1
@<TRIPOS>SUBSTRUCTURE
     1 RES1        1 GROUP             0 ****  ****    0  
@<TRIPOS>MOLECULE
ligand_76
    18    19     1     0     0
SMALL
USER_CHARGES
****
Generated from the CSD

@<TRIPOS>ATOM
     1 O1      30.7033  66.1628  12.5132   O.3       1 RES1   0.0000
     2 C2      29.7384  67.1973  12.4304   C.3       1 RES1   0.0000
     3 C3      30.5603  68.4473  12.1501   C.3       1 RES1   0.0000
     4 N4      31.4017  68.5049  10.9328   N.2       1 RES1   1.0000
     5 C5      30.9355  68.1532   9.5929   C.3       1 RES1   0.0000
     6 C6      30.8845  66.6584   9.3239   C.3       1 RES1   0.0000
     7 N7      30.2165  66.3605   7.9880   N.2       1 RES1   1.0000
     8 C8      31.2847  66.6103   6.9209   C.3       1 RES1   0.0000
     9 C9      32.6127  66.5940   7.6667   C.3       1 RES1   0.0000
    10 O10     33.6305  65.8719   7.0064   O.3       1 RES1   0.0000
    11 C11     32.2908  66.1477   9.0968   C.3       1 RES1   0.0000
    12 O12     32.0666  64.7514   9.1208   O.3       1 RES1   0.0000
    13 C13     31.5661  68.6275  13.3052   C.2       1 RES1   0.0000
    14 C14     32.7465  67.8734  13.4090   C.2       1 RES1   0.0000
    15 C15     33.6731  68.0580  14.4504   C.2       1 RES1   0.0000
    16 C16     33.4418  69.0063  15.4332   C.2       1 RES1   0.0000
    17 C17     32.2810  69.7365  15.3101   C.2       1 RES1   0.0000
    18 C18     31.3302  69.5908  14.2948   C.2       1 RES1   0.0000
@<TRIPOS>BOND
     1     1     2    1
     2     3     2    1
     3     3     4    1
     4     4     5    1
     5     6     5    1
     6     6     7    1
     7     7     8    1
     8     8     9    1
     9     9    10    1
    10     9    11    1
    11    11    12    1
    12     3    13    1
    13    13    14    2
    14    14    15    1
    15    15    16    2
    16    16    17    1
    17    17    18    2
    18    11     6    1
    19    18    13    1
@<TRIPOS>SUBSTRUCTURE
     1 RES1        1 GROUP             0 ****  ****    0  
@<TRIPOS>MOLECULE
ligand_77
    18    19     1     0     0
SMALL
USER_CHARGES
****
Generated from the CSD

@<TRIPOS>ATOM
     1 O1      33.4044  70.5357  10.3799   O.3       1 RES1   0.0000
     2 C2      33.8554  69.1947  10.4601   C.3       1 RES1   0.0000
     3 C3      32.8239  68.5106  11.3459   C.3       1 RES1   0.0000
     4 N4      31.4017  68.5049  10.9328   N.2       1 RES1   1.0000
     5 C5      30.9355  68.1532   9.5929   C.3       1 RES1   0.0000
     6 C6      30.8692  66.6580   9.3293   C.3       1 RES1   0.0000
     7 N7      30.1753  66.3611   8.0065   N.2       1 RES1   1.0000
     8 C8      31.2258  66.6003   6.9197   C.3       1 RES1   0.0000
     9 C9      32.5668  66.5767   7.6415   C.3       1 RES1   0.0000
    10 O10     33.5675  65.8457   6.9652   O.3       1 RES1   0.0000
    11 C11     32.2677  66.1369   9.0785   C.3       1 RES1   0.0000
    12 O12     32.0342  64.7422   9.1106   O.3       1 RES1   0.0000
    13 C13     32.8113  69.2309  12.7095   C.2       1 RES1   0.0000
    14 C14     32.1728  70.4657  12.9102   C.2       1 RES1   0.0000
    15 C15     32.1425  71.1073  14.1611   C.2       1 RES1   0.0000
    16 C16     32.7619  70.5316  15.2581   C.2       1 RES1   0.0000
    17 C17     33.3783  69.3199  15.0399   C.2       1 RES1   0.0000
    18 C18     33.4354  68.6429  13.8174   C.2       1 RES1   0.0000
@<TRIPOS>BOND
     1     1     2    1
     2     3     2    1
     3     3     4    1
     4     4     5    1
     5     6     5    1
     6     6     7    1
     7     7     8    1
     8     8     9    1
     9     9    10    1
    10     9    11    1
    11    11    12    1
    12     3    13    1
    13    13    14    2
    14    14    15    1
    15    15    16    2
    16    16    17    1
    17    17    18    2
    18    11     6    1
    19    18    13    1
@<TRIPOS>SUBSTRUCTURE
     1 RES1        1 GROUP             0 ****  ****    0  
@<TRIPOS>MOLECULE
ligand_78
    18    19     1     0     0
SMALL
USER_CHARGES
****
Generated from the CSD

@<TRIPOS>ATOM
     1 O1      33.4847  69.1762  10.0043   O.3       1 RES1   0.0000
     2 C2      32.8724  68.9908  11.2688   C.3       1 RES1   0.0000
     3 C3      31.3871  69.1710  10.9898   C.3       1 RES1   0.0000
     4 N4      30.7168  68.2751  10.0195   N.2       1 RES1   1.0000
     5 C5      30.4460  66.8588  10.2585   C.3       1 RES1   0.0000
     6 C6      30.9765  65.9324   9.1769   C.3       1 RES1   0.0000
     7 N7      30.4172  66.2672   7.8742   N.2       1 RES1   1.0000
     8 C8      31.5584  66.5994   6.9933   C.3       1 RES1   0.0000
     9 C9      32.7182  66.5457   7.7653   C.3       1 RES1   0.0000
    10 O10     33.7327  65.7912   7.1371   O.3       1 RES1   0.0000
    11 C11     32.3862  66.1621   9.0791   C.3       1 RES1   0.0000
    12 O12     32.8771  64.8515   9.2840   O.3       1 RES1   0.0000
    13 C13     31.1787  70.5802  10.3989   C.2       1 RES1   0.0000
    14 C14     31.3631  70.8672   9.0365   C.2       1 RES1   0.0000
    15 C15     31.1482  72.1480   8.4973   C.2       1 RES1   0.0000
    16 C16     30.7455  73.1923   9.3132   C.2       1 RES1   0.0000
    17 C17     30.5672  72.8881  10.6442   C.2       1 RES1   0.0000
    18 C18     30.7673  71.6326  11.2271   C.2       1 RES1   0.0000
@<TRIPOS>BOND
     1     1     2    1
     2     3     2    1
     3     3     4    1
     4     4     5    1
     5     6     5    1
     6     6     7    1
     7     7     8    1
     8     8     9    1
     9     9    10    1
    10     9    11    1
    11    11    12    1
    12     3    13    1
    13    13    14    2
    14    14    15    1
    15    15    16    2
    16    16    17    1
    17    17    18    2
    18    11     6    1
    19    18    13    1
@<TRIPOS>SUBSTRUCTURE
     1 RES1        1 GROUP             0 ****  ****    0  
@<TRIPOS>MOLECULE
ligand_79
    18    19     1     0     0
SMALL
USER_CHARGES
****
Generated from the CSD

@<TRIPOS>ATOM
     1 O1      27.8366  68.3123   9.6603   O.3       1 RES1   0.0000
     2 C2      28.5187  69.5426   9.4893   C.3       1 RES1   0.0000
     3 C3      29.9314  69.1307   9.1007   C.3       1 RES1   0.0000
     4 N4      30.7168  68.2751  10.0195   N.2       1 RES1   1.0000
     5 C5      30.4460  66.8588  10.2585   C.3       1 RES1   0.0000
     6 C6      31.1694  65.9179   9.3094   C.3       1 RES1   0.0000
     7 N7      30.7998  66.1780   7.9246   N.2       1 RES1   1.0000
     8 C8      32.0466  66.5288   7.2096   C.3       1 RES1   0.0000
     9 C9      33.0782  66.5568   8.1473   C.3       1 RES1   0.0000
    10 O10     34.2047  65.8265   7.7105   O.3       1 RES1   0.0000
    11 C11     32.5676  66.2078   9.4125   C.3       1 RES1   0.0000
    12 O12     33.0735  64.9295   9.7453   O.3       1 RES1   0.0000
    13 C13     30.7827  70.4096   8.9657   C.2       1 RES1   0.0000
    14 C14     31.0646  71.0068   7.7262   C.2       1 RES1   0.0000
    15 C15     31.8206  72.1867   7.6093   C.2       1 RES1   0.0000
    16 C16     32.3286  72.8071   8.7388   C.2       1 RES1   0.0000
    17 C17     32.0372  72.2071   9.9432   C.2       1 RES1   0.0000
    18 C18     31.2909  71.0362  10.1111   C.2       1 RES1   0.0000
@<TRIPOS>BOND
     1     1     2    1
     2     3     2    1
     3     3     4    1
     4     4     5    1
     5     6     5    1
     6     6     7    1
     7     7     8    1
     8     8     9    1
     9     9    10    1
    10     9    11    1
    11    11    12    1
    12     3    13    1
    13    13    14    2
    14    14    15    1
    15    15    16    2
    16    16    17    1
    17    17    18    2
    18    11     6    1
    19    18    13    1
@<TRIPOS>SUBSTRUCTURE
     1 RES1        1 GROUP             0 ****  ****    0  
@<TRIPOS>MOLECULE
ligand_80
    18    19     1     0     0
SMALL
USER_CHARGES
****
Generated from the CSD

@<TRIPOS>ATOM
     1 O1      25.8504  66.5650  10.7026   O.3       1 RES1   0.0000
     2 C2      26.4844  67.1689   9.5883   C.3       1 RES1   0.0000
     3 C3      27.9047  67.4305  10.0687   C.3       1 RES1   0.0000
     4 N4      28.7304  66.2971  10.5449   N.2       1 RES1   1.0000
     5 C5      30.1897  66.2553  10.4738   C.3       1 RES1   0.0000
     6 C6      30.7363  65.9006   9.1009   C.3       1 RES1   0.0000
     7 N7      30.2786  66.8862   8.0607   N.2       1 RES1   1.0000
     8 C8      31.2631  66.6200   6.9487   C.3       1 RES1   0.0000
     9 C9      32.6025  66.5842   7.6585   C.3       1 RES1   0.0000
    10 O10     33.6161  65.8591   6.9953   O.3       1 RES1   0.0000
    11 C11     32.2504  66.1060   9.0991   C.3       1 RES1   0.0000
    12 O12     32.6930  64.7732   9.2671   O.3       1 RES1   0.0000
    13 C13     27.8317  68.3739  11.2866   C.2       1 RES1   0.0000
    14 C14     28.1427  69.7413  11.2076   C.2       1 RES1   0.0000
    15 C15     28.0512  70.6031  12.3149   C.2       1 RES1   0.0000
    16 C16     27.6490  70.1177  13.5483   C.2       1 RES1   0.0000
    17 C17     27.3455  68.7758  13.6022   C.2       1 RES1   0.0000
    18 C18     27.4203  67.8795  12.5311   C.2       1 RES1   0.0000
@<TRIPOS>BOND
     1     1     2    1
     2     3     2    1
     3     3     4    1
     4     4     5    1
     5     6     5    1
     6     6     7    1
     7     7     8    1
     8     8     9    1
     9     9    10    1
    10     9    11    1
    11    11    12    1
    12     3    13    1
    13    13    14    2
    14    14    15    1
    15    15    16    2
    16    16    17    1
    17    17    18    2
    18    11     6    1
    19    18    13    1
@<TRIPOS>SUBSTRUCTURE
     1 RES1        1 GROUP             0 ****  ****    0  
@<TRIPOS>MOLECULE
ligand_81
    18    19     1     0     0
SMALL
USER_CHARGES
****
Generated from the CSD

@<TRIPOS>ATOM
     1 O1      29.5480  72.5115   9.3867   O.3       1 RES1   0.0000
     2 C2      29.8391  71.2521   8.8059   C.3       1 RES1   0.0000
     3 C3      29.4194  70.2486   9.8705   C.3       1 RES1   0.0000
     4 N4      29.6265  68.8026   9.6271   N.2       1 RES1   1.0000
     5 C5      30.9355  68.1532   9.5929   C.3       1 RES1   0.0000
     6 C6      30.8801  66.6525   9.3600   C.3       1 RES1   0.0000
     7 N7      30.2366  66.3256   8.0188   N.2       1 RES1   1.0000
     8 C8      31.3272  66.5423   6.9673   C.3       1 RES1   0.0000
     9 C9      32.6401  66.5366   7.7394   C.3       1 RES1   0.0000
    10 O10     33.6660  65.7923   7.1175   O.3       1 RES1   0.0000
    11 C11     32.2873  66.1280   9.1735   C.3       1 RES1   0.0000
    12 O12     32.0537  64.7340   9.2275   O.3       1 RES1   0.0000
    13 C13     27.8960  70.3761  10.0740   C.2       1 RES1   0.0000
    14 C14     27.3031  70.4478  11.3453   C.2       1 RES1   0.0000
    15 C15     25.9158  70.5888  11.5262   C.2       1 RES1   0.0000
    16 C16     25.0704  70.6558  10.4310   C.2       1 RES1   0.0000
    17 C17     25.6728  70.5874   9.1948   C.2       1 RES1   0.0000
    18 C18     27.0450  70.4478   8.9634   C.2       1 RES1   0.0000
@<TRIPOS>BOND
     1     1     2    1
     2     3     2    1
     3     3     4    1
     4     4     5    1
     5     6     5    1
     6     6     7    1
     7     7     8    1
     8     8     9    1
     9     9    10    1
    10     9    11    1
    11    11    12    1
    12     3    13    1
    13    13    14    2
    14    14    15    1
    15    15    16    2
    16    16    17    1
    17    17    18    2
    18    11     6    1
    19    18    13    1
@<TRIPOS>SUBSTRUCTURE
     1 RES1        1 GROUP             0 ****  ****    0  
@<TRIPOS>MOLECULE
ligand_82
    18    19     1     0     0
SMALL
USER_CHARGES
****
Generated from the CSD

@<TRIPOS>ATOM
     1 O1      30.7884  71.9798  12.1029   O.3       1 RES1   0.0000
     2 C2      30.2883  70.7172  11.6980   C.3       1 RES1   0.0000
     3 C3      31.5395  69.8932  11.4299   C.3       1 RES1   0.0000
     4 N4      31.4017  68.5049  10.9328   N.2       1 RES1   1.0000
     5 C5      30.9355  68.1532   9.5929   C.3       1 RES1   0.0000
     6 C6      30.8821  66.6583   9.3247   C.3       1 RES1   0.0000
     7 N7      30.2093  66.3605   7.9912   N.2       1 RES1   1.0000
     8 C8      31.2741  66.6087   6.9205   C.3       1 RES1   0.0000
     9 C9      32.6046  66.5914   7.6617   C.3       1 RES1   0.0000
    10 O10     33.6194  65.8681   6.9983   O.3       1 RES1   0.0000
    11 C11     32.2872  66.1462   9.0931   C.3       1 RES1   0.0000
    12 O12     32.0616  64.7501   9.1185   O.3       1 RES1   0.0000
    13 C13     32.3036  69.7368  12.7603   C.2       1 RES1   0.0000
    14 C14     33.6879  69.9469  12.8702   C.2       1 RES1   0.0000
    15 C15     34.3769  69.8274  14.0901   C.2       1 RES1   0.0000
    16 C16     33.6971  69.4836  15.2470   C.2       1 RES1   0.0000
    17 C17     32.3407  69.2860  15.1174   C.2       1 RES1   0.0000
    18 C18     31.6113  69.3931  13.9288   C.2       1 RES1   0.0000
@<TRIPOS>BOND
     1     1     2    1
     2     3     2    1
     3     3     4    1
     4     4     5    1
     5     6     5    1
     6     6     7    1
     7     7     8    1
     8     8     9    1
     9     9    10    1
    10     9    11    1
    11    11    12    1
    12     3    13    1
    13    13    14    2
    14    14    15    1
    15    15    16    2
    16    16    17    1
    17    17    18    2
    18    11     6    1
    19    18    13    1
@<TRIPOS>SUBSTRUCTURE
     1 RES1        1 GROUP             0 ****  ****    0  
@<TRIPOS>MOLECULE
ligand_83
    18    19     1     0     0
SMALL
USER_CHARGES
****
Generated from the CSD

@<TRIPOS>ATOM
     1 O1      27.8068  65.3169  13.1236   O.3       1 RES1   0.0000
     2 C2      28.8425  66.0269  13.7805   C.3       1 RES1   0.0000
     3 C3      29.4821  66.8541  12.6746   C.3       1 RES1   0.0000
     4 N4      30.0203  66.1710  11.4758   N.2       1 RES1   1.0000
     5 C5      30.4460  66.8588  10.2585   C.3       1 RES1   0.0000
     6 C6      30.9619  65.9338   9.1687   C.3       1 RES1   0.0000
     7 N7      30.3546  66.2443   7.8816   N.2       1 RES1   1.0000
     8 C8      31.4600  66.5925   6.9619   C.3       1 RES1   0.0000
     9 C9      32.6445  66.5708   7.6971   C.3       1 RES1   0.0000
    10 O10     33.6547  65.8322   7.0435   O.3       1 RES1   0.0000
    11 C11     32.3625  66.1925   9.0241   C.3       1 RES1   0.0000
    12 O12     32.8879  64.8947   9.2247   O.3       1 RES1   0.0000
    13 C13     30.7058  67.5815  13.2679   C.2       1 RES1   0.0000
    14 C14     30.6972  68.9506  13.5809   C.2       1 RES1   0.0000
    15 C15     31.8069  69.6048  14.1447   C.2       1 RES1   0.0000
    16 C16     32.9726  68.9046  14.4084   C.2       1 RES1   0.0000
    17 C17     32.9579  67.5634  14.0974   C.2       1 RES1   0.0000
    18 C18     31.8813  66.8684  13.5369   C.2       1 RES1   0.0000
@<TRIPOS>BOND
     1     1     2    1
     2     3     2    1
     3     3     4    1
     4     4     5    1
     5     6     5    1
     6     6     7    1
     7     7     8    1
     8     8     9    1
     9     9    10    1
    10     9    11    1
    11    11    12    1
    12     3    13    1
    13    13    14    2
    14    14    15    1
    15    15    16    2
    16    16    17    1
    17    17    18    2
    18    11     6    1
    19    18    13    1
@<TRIPOS>SUBSTRUCTURE
     1 RES1        1 GROUP             0 ****  ****    0  
@<TRIPOS>MOLECULE
ligand_84
    18    19     1     0     0
SMALL
USER_CHARGES
****
Generated from the CSD

@<TRIPOS>ATOM
     1 O1      26.5392  68.3278  10.1329   O.3       1 RES1   0.0000
     2 C2      26.7532  67.6949  11.3826   C.3       1 RES1   0.0000
     3 C3      28.2675  67.5797  11.4836   C.3       1 RES1   0.0000
     4 N4      29.0033  66.7786  10.4786   N.2       1 RES1   1.0000
     5 C5      30.4460  66.8588  10.2585   C.3       1 RES1   0.0000
     6 C6      30.9546  65.9714   9.1345   C.3       1 RES1   0.0000
     7 N7      30.3368  66.3234   7.8633   N.2       1 RES1   1.0000
     8 C8      31.4343  66.7038   6.9470   C.3       1 RES1   0.0000
     9 C9      32.6246  66.6597   7.6718   C.3       1 RES1   0.0000
    10 O10     33.6307  65.9449   6.9861   O.3       1 RES1   0.0000
    11 C11     32.3537  66.2371   8.9876   C.3       1 RES1   0.0000
    12 O12     32.8825  64.9342   9.1409   O.3       1 RES1   0.0000
    13 C13     28.6070  66.8962  12.8238   C.2       1 RES1   0.0000
    14 C14     29.8880  66.9443  13.3976   C.2       1 RES1   0.0000
    15 C15     30.1873  66.3407  14.6318   C.2       1 RES1   0.0000
    16 C16     29.2071  65.6579  15.3330   C.2       1 RES1   0.0000
    17 C17     27.9582  65.6263  14.7543   C.2       1 RES1   0.0000
    18 C18     27.6114  66.2103  13.5316   C.2       1 RES1   0.0000
@<TRIPOS>BOND
     1     1     2    1
     2     3     2    1
     3     3     4    1
     4     4     5    1
     5     6     5    1
     6     6     7    1
     7     7     8    1
     8     8     9    1
     9     9    10    1
    10     9    11    1
    11    11    12    1
    12     3    13    1
    13    13    14    2
    14    14    15    1
    15    15    16    2
    16    16    17    1
    17    17    18    2
    18    11     6    1
    19    18    13    1
@<TRIPOS>SUBSTRUCTURE
     1 RES1        1 GROUP             0 ****  ****    0  
@<TRIPOS>MOLECULE
ligand_85
    18    19     1     0     0
SMALL
USER_CHARGES
****
Generated from the CSD

@<TRIPOS>ATOM
     1 O1      27.3861  66.5308  10.9354   O.3       1 RES1   0.0000
     2 C2      27.6923  65.8065  12.1143   C.3       1 RES1   0.0000
     3 C3      29.1924  65.9979  12.2861   C.3       1 RES1   0.0000
     4 N4      30.1092  65.5466  11.2143   N.2       1 RES1   1.0000
     5 C5      29.9025  65.8070   9.7910   C.3       1 RES1   0.0000
     6 C6      30.9870  65.2395   8.8903   C.3       1 RES1   0.0000
     7 N7      30.6162  65.3731   7.4420   N.2       1 RES1   1.0000
     8 C8      31.2575  66.6347   6.9551   C.3       1 RES1   0.0000
     9 C9      32.6017  66.5942   7.6594   C.3       1 RES1   0.0000
    10 O10     33.6163  65.8720   6.9945   O.3       1 RES1   0.0000
    11 C11     32.2490  66.1141   9.0688   C.3       1 RES1   0.0000
    12 O12     33.1861  65.1365   9.4775   O.3       1 RES1   0.0000
    13 C13     29.6394  65.1899  13.5214   C.2       1 RES1   0.0000
    14 C14     30.4897  65.7176  14.5068   C.2       1 RES1   0.0000
    15 C15     30.8753  64.9861  15.6442   C.2       1 RES1   0.0000
    16 C16     30.4236  63.6897  15.8287   C.2       1 RES1   0.0000
    17 C17     29.5885  63.1937  14.8529   C.2       1 RES1   0.0000
    18 C18     29.1767  63.8805  13.7062   C.2       1 RES1   0.0000
@<TRIPOS>BOND
     1     1     2    1
     2     3     2    1
     3     3     4    1
     4     4     5    1
     5     6     5    1
     6     6     7    1
     7     7     8    1
     8     8     9    1
     9     9    10    1
    10     9    11    1
    11    11    12    1
    12     3    13    1
    13    13    14    2
    14    14    15    1
    15    15    16    2
    16    16    17    1
    17    17    18    2
    18    11     6    1
    19    18    13    1
@<TRIPOS>SUBSTRUCTURE
     1 RES1        1 GROUP             0 ****  ****    0  
@<TRIPOS>MOLECULE
ligand_86
    18    19     1     0     0
SMALL
USER_CHARGES
****
Generated from the CSD

@<TRIPOS>ATOM
     1 O1      28.1757  64.7109  12.9132   O.3       1 RES1   0.0000
     2 C2      28.2014  64.0244  11.6737   C.3       1 RES1   0.0000
     3 C3      27.8661  65.0991  10.6495   C.3       1 RES1   0.0000
     4 N4      28.7304  66.2971  10.5449   N.2       1 RES1   1.0000
     5 C5      30.1897  66.2553  10.4738   C.3       1 RES1   0.0000
     6 C6      30.7363  65.9041   9.1001   C.3       1 RES1   0.0000
     7 N7      30.2780  66.8918   8.0622   N.2       1 RES1   1.0000
     8 C8      31.2625  66.6287   6.9494   C.3       1 RES1   0.0000
     9 C9      32.6020  66.5920   7.6590   C.3       1 RES1   0.0000
    10 O10     33.6160  65.8690   6.9940   O.3       1 RES1   0.0000
    11 C11     32.2503  66.1104   9.0986   C.3       1 RES1   0.0000
    12 O12     32.6937  64.7774   9.2635   O.3       1 RES1   0.0000
    13 C13     26.4769  65.6727  10.9950   C.2       1 RES1   0.0000
    14 C14     26.2731  66.5937  12.0356   C.2       1 RES1   0.0000
    15 C15     25.0088  67.1332  12.3317   C.2       1 RES1   0.0000
    16 C16     23.8979  66.7590  11.5937   C.2       1 RES1   0.0000
    17 C17     24.1209  65.8583  10.5765   C.2       1 RES1   0.0000
    18 C18     25.3568  65.2947  10.2433   C.2       1 RES1   0.0000
@<TRIPOS>BOND
     1     1     2    1
     2     3     2    1
     3     3     4    1
     4     4     5    1
     5     6     5    1
     6     6     7    1
     7     7     8    1
     8     8     9    1
     9     9    10    1
    10     9    11    1
    11    11    12    1
    12     3    13    1
    13    13    14    2
    14    14    15    1
    15    15    16    2
    16    16    17    1
    17    17    18    2
    18    11     6    1
    19    18    13    1
@<TRIPOS>SUBSTRUCTURE
     1 RES1        1 GROUP             0 ****  ****    0  
@<TRIPOS>MOLECULE
ligand_87
    18    19     1     0     0
SMALL
USER_CHARGES
****
Generated from the CSD

@<TRIPOS>ATOM
     1 O1      29.9273  65.4700  14.1623   O.3       1 RES1   0.0000
     2 C2      30.7545  66.6204  14.1888   C.3       1 RES1   0.0000
     3 C3      30.5367  67.2632  12.8265   C.3       1 RES1   0.0000
     4 N4      30.9033  66.5136  11.6031   N.2       1 RES1   1.0000
     5 C5      30.4460  66.8588  10.2585   C.3       1 RES1   0.0000
     6 C6      30.9175  65.9023   9.1757   C.3       1 RES1   0.0000
     7 N7      30.2779  66.1930   7.8997   N.2       1 RES1   1.0000
     8 C8      31.3612  66.5045   6.9413   C.3       1 RES1   0.0000
     9 C9      32.5659  66.4818   7.6430   C.3       1 RES1   0.0000
    10 O10     33.5465  65.7142   6.9779   O.3       1 RES1   0.0000
    11 C11     32.3168  66.1373   8.9856   C.3       1 RES1   0.0000
    12 O12     32.8296  64.8367   9.2006   O.3       1 RES1   0.0000
    13 C13     31.4029  68.5372  12.7546   C.2       1 RES1   0.0000
    14 C14     31.1895  69.5478  11.8029   C.2       1 RES1   0.0000
    15 C15     31.9658  70.7193  11.7562   C.2       1 RES1   0.0000
    16 C16     32.9936  70.9144  12.6641   C.2       1 RES1   0.0000
    17 C17     33.1829  69.9133  13.5902   C.2       1 RES1   0.0000
    18 C18     32.4387  68.7323  13.6775   C.2       1 RES1   0.0000
@<TRIPOS>BOND
     1     1     2    1
     2     3     2    1
     3     3     4    1
     4     4     5    1
     5     6     5    1
     6     6     7    1
     7     7     8    1
     8     8     9    1
     9     9    10    1
    10     9    11    1
    11    11    12    1
    12     3    13    1
    13    13    14    2
    14    14    15    1
    15    15    16    2
    16    16    17    1
    17    17    18    2
    18    11     6    1
    19    18    13    1
@<TRIPOS>SUBSTRUCTURE
     1 RES1        1 GROUP             0 ****  ****    0  
@<TRIPOS>MOLECULE
ligand_88
    18    19     1     0     0
SMALL
USER_CHARGES
****
Generated from the CSD

@<TRIPOS>ATOM
     1 O1      29.8346  68.0492  12.7805   O.3       1 RES1   0.0000
     2 C2      30.5587  69.2158  12.4299   C.3       1 RES1   0.0000
     3 C3      30.3139  69.3670  10.9353   C.3       1 RES1   0.0000
     4 N4      30.7168  68.2751  10.0195   N.2       1 RES1   1.0000
     5 C5      30.4460  66.8588  10.2585   C.3       1 RES1   0.0000
     6 C6      30.9365  65.9363   9.1549   C.3       1 RES1   0.0000
     7 N7      30.3533  66.2948   7.8691   N.2       1 RES1   1.0000
     8 C8      31.4794  66.6187   6.9659   C.3       1 RES1   0.0000
     9 C9      32.6554  66.5375   7.7106   C.3       1 RES1   0.0000
    10 O10     33.6429  65.7740   7.0509   O.3       1 RES1   0.0000
    11 C11     32.3472  66.1444   9.0273   C.3       1 RES1   0.0000
    12 O12     32.8212  64.8239   9.2065   O.3       1 RES1   0.0000
    13 C13     31.1207  70.5841  10.4391   C.2       1 RES1   0.0000
    14 C14     30.5751  71.5627   9.5922   C.2       1 RES1   0.0000
    15 C15     31.3064  72.6839   9.1619   C.2       1 RES1   0.0000
    16 C16     32.6206  72.8586   9.5634   C.2       1 RES1   0.0000
    17 C17     33.1341  71.8898  10.3961   C.2       1 RES1   0.0000
    18 C18     32.4483  70.7590  10.8512   C.2       1 RES1   0.0000
@<TRIPOS>BOND
     1     1     2    1
     2     3     2    1
     3     3     4    1
     4     4     5    1
     5     6     5    1
     6     6     7    1
     7     7     8    1
     8     8     9    1
     9     9    10    1
    10     9    11    1
    11    11    12    1
    12     3    13    1
    13    13    14    2
    14    14    15    1
    15    15    16    2
    16    16    17    1
    17    17    18    2
    18    11     6    1
    19    18    13    1
@<TRIPOS>SUBSTRUCTURE
     1 RES1        1 GROUP             0 ****  ****    0  
@<TRIPOS>MOLECULE
ligand_89
    18    19     1     0     0
SMALL
USER_CHARGES
****
Generated from the CSD

@<TRIPOS>ATOM
     1 O1      28.5757  68.8474  11.6474   O.3       1 RES1   0.0000
     2 C2      28.3597  67.8257  12.6054   C.3       1 RES1   0.0000
     3 C3      27.9642  66.6154  11.7716   C.3       1 RES1   0.0000
     4 N4      28.7304  66.2971  10.5449   N.2       1 RES1   1.0000
     5 C5      30.1897  66.2553  10.4738   C.3       1 RES1   0.0000
     6 C6      30.7363  65.9041   9.1001   C.3       1 RES1   0.0000
     7 N7      30.2780  66.8918   8.0622   N.2       1 RES1   1.0000
     8 C8      31.2625  66.6287   6.9494   C.3       1 RES1   0.0000
     9 C9      32.6020  66.5920   7.6590   C.3       1 RES1   0.0000
    10 O10     33.6160  65.8690   6.9940   O.3       1 RES1   0.0000
    11 C11     32.2503  66.1104   9.0986   C.3       1 RES1   0.0000
    12 O12     32.6937  64.7774   9.2635   O.3       1 RES1   0.0000
    13 C13     26.5246  66.8341  11.2637   C.2       1 RES1   0.0000
    14 C14     25.4166  66.1668  11.8112   C.2       1 RES1   0.0000
    15 C15     24.1026  66.3874  11.3618   C.2       1 RES1   0.0000
    16 C16     23.8550  67.2852  10.3364   C.2       1 RES1   0.0000
    17 C17     24.9546  67.9308   9.8170   C.2       1 RES1   0.0000
    18 C18     26.2783  67.7463  10.2293   C.2       1 RES1   0.0000
@<TRIPOS>BOND
     1     1     2    1
     2     3     2    1
     3     3     4    1
     4     4     5    1
     5     6     5    1
     6     6     7    1
     7     7     8    1
     8     8     9    1
     9     9    10    1
    10     9    11    1
    11    11    12    1
    12     3    13    1
    13    13    14    2
    14    14    15    1
    15    15    16    2
    16    16    17    1
    17    17    18    2
    18    11     6    1
    19    18    13    1
@<TRIPOS>SUBSTRUCTURE
     1 RES1        1 GROUP             0 ****  ****    0  
@<TRIPOS>MOLECULE
ligand_90
    18    19     1     0     0
SMALL
USER_CHARGES
****
Generated from the CSD

@<TRIPOS>ATOM
     1 O1      30.6740  62.7874   9.9479   O.3       1 RES1   0.0000
     2 C2      29.3828  63.1337  10.4180   C.3       1 RES1   0.0000
     3 C3      29.6545  63.9944  11.6435   C.3       1 RES1   0.0000
     4 N4      30.4406  65.2407  11.4955   N.2       1 RES1   1.0000
     5 C5      30.1897  66.2553  10.4738   C.3       1 RES1   0.0000
     6 C6      30.7380  65.9049   9.1005   C.3       1 RES1   0.0000
     7 N7      30.2842  66.8956   8.0634   N.2       1 RES1   1.0000
     8 C8      31.2703  66.6318   6.9521   C.3       1 RES1   0.0000
     9 C9      32.6083  66.5903   7.6642   C.3       1 RES1   0.0000
    10 O10     33.6216  65.8658   6.9999   O.3       1 RES1   0.0000
    11 C11     32.2526  66.1072   9.1023   C.3       1 RES1   0.0000
    12 O12     32.6921  64.7728   9.2657   O.3       1 RES1   0.0000
    13 C13     30.4740  63.1555  12.6451   C.2       1 RES1   0.0000
    14 C14     31.8520  62.9281  12.4965   C.2       1 RES1   0.0000
    15 C15     32.6005  62.1833  13.4251   C.2       1 RES1   0.0000
    16 C16     31.9864  61.6318  14.5375   C.2       1 RES1   0.0000
    17 C17     30.6364  61.8702  14.6655   C.2       1 RES1   0.0000
    18 C18     29.8497  62.6032  13.7711   C.2       1 RES1   0.0000
@<TRIPOS>BOND
     1     1     2    1
     2     3     2    1
     3     3     4    1
     4     4     5    1
     5     6     5    1
     6     6     7    1
     7     7     8    1
     8     8     9    1
     9     9    10    1
    10     9    11    1
    11    11    12    1
    12     3    13    1
    13    13    14    2
    14    14    15    1
    15    15    16    2
    16    16    17    1
    17    17    18    2
    18    11     6    1
    19    18    13    1
@<TRIPOS>SUBSTRUCTURE
     1 RES1        1 GROUP             0 ****  ****    0  
@<TRIPOS>MOLECULE
ligand_91
    18    19     1     0     0
SMALL
USER_CHARGES
****
Generated from the CSD

@<TRIPOS>ATOM
     1 O1      28.1577  68.3770  11.5353   O.3       1 RES1   0.0000
     2 C2      28.0909  67.4689  12.6213   C.3       1 RES1   0.0000
     3 C3      29.4821  66.8541  12.6746   C.3       1 RES1   0.0000
     4 N4      30.0203  66.1710  11.4758   N.2       1 RES1   1.0000
     5 C5      30.4460  66.8588  10.2585   C.3       1 RES1   0.0000
     6 C6      30.9622  65.9338   9.1688   C.3       1 RES1   0.0000
     7 N7      30.3544  66.2437   7.8818   N.2       1 RES1   1.0000
     8 C8      31.4593  66.5923   6.9617   C.3       1 RES1   0.0000
     9 C9      32.6440  66.5714   7.6966   C.3       1 RES1   0.0000
    10 O10     33.6545  65.8333   7.0429   O.3       1 RES1   0.0000
    11 C11     32.3626  66.1934   9.0237   C.3       1 RES1   0.0000
    12 O12     32.8888  64.8959   9.2245   O.3       1 RES1   0.0000
    13 C13     29.4787  65.7558  13.7573   C.2       1 RES1   0.0000
    14 C14     29.9781  65.9655  15.0531   C.2       1 RES1   0.0000
    15 C15     29.9507  64.9691  16.0449   C.2       1 RES1   0.0000
    16 C16     29.4245  63.7184  15.7662   C.2       1 RES1   0.0000
    17 C17     28.9373  63.5359  14.4914   C.2       1 RES1   0.0000
    18 C18     28.9416  64.4937  13.4722   C.2       1 RES1   0.0000
@<TRIPOS>BOND
     1     1     2    1
     2     3     2    1
     3     3     4    1
     4     4     5    1
     5     6     5    1
     6     6     7    1
     7     7     8    1
     8     8     9    1
     9     9    10    1
    10     9    11    1
    11    11    12    1
    12     3    13    1
    13    13    14    2
    14    14    15    1
    15    15    16    2
    16    16    17    1
    17    17    18    2
    18    11     6    1
    19    18    13    1
@<TRIPOS>SUBSTRUCTURE
     1 RES1        1 GROUP             0 ****  ****    0  
@<TRIPOS>MOLECULE
ligand_92
    18    19     1     0     0
SMALL
USER_CHARGES
****
Generated from the CSD

@<TRIPOS>ATOM
     1 O1      29.8536  72.5128   9.6339   O.3       1 RES1   0.0000
     2 C2      30.2615  71.2617   9.1082   C.3       1 RES1   0.0000
     3 C3      29.4194  70.2486   9.8705   C.3       1 RES1   0.0000
     4 N4      29.6265  68.8026   9.6271   N.2       1 RES1   1.0000
     5 C5      30.9355  68.1532   9.5929   C.3       1 RES1   0.0000
     6 C6      30.8802  66.6526   9.3589   C.3       1 RES1   0.0000
     7 N7      30.2373  66.3266   8.0173   N.2       1 RES1   1.0000
     8 C8      31.3284  66.5441   6.9664   C.3       1 RES1   0.0000
     9 C9      32.6409  66.5378   7.7392   C.3       1 RES1   0.0000
    10 O10     33.6671  65.7939   7.1173   O.3       1 RES1   0.0000
    11 C11     32.2875  66.1282   9.1728   C.3       1 RES1   0.0000
    12 O12     32.0537  64.7342   9.2258   O.3       1 RES1   0.0000
    13 C13     27.9405  70.4794   9.4987   C.2       1 RES1   0.0000
    14 C14     27.0264  71.0970  10.3680   C.2       1 RES1   0.0000
    15 C15     25.6848  71.3277  10.0157   C.2       1 RES1   0.0000
    16 C16     25.2102  70.9377   8.7742   C.2       1 RES1   0.0000
    17 C17     26.1237  70.3378   7.9368   C.2       1 RES1   0.0000
    18 C18     27.4658  70.0871   8.2403   C.2       1 RES1   0.0000
@<TRIPOS>BOND
     1     1     2    1
     2     3     2    1
     3     3     4    1
     4     4     5    1
     5     6     5    1
     6     6     7    1
     7     7     8    1
     8     8     9    1
     9     9    10    1
    10     9    11    1
    11    11    12    1
    12     3    13    1
    13    13    14    2
    14    14    15    1
    15    15    16    2
    16    16    17    1
    17    17    18    2
    18    11     6    1
    19    18    13    1
@<TRIPOS>SUBSTRUCTURE
     1 RES1        1 GROUP             0 ****  ****    0  
@<TRIPOS>MOLECULE
ligand_93
    18    19     1     0     0
SMALL
USER_CHARGES
****
Generated from the CSD

@<TRIPOS>ATOM
     1 O1      28.3404  67.7292  12.2518   O.3       1 RES1   0.0000
     2 C2      29.1013  67.2131  13.3302   C.3       1 RES1   0.0000
     3 C3      30.5367  67.2632  12.8265   C.3       1 RES1   0.0000
     4 N4      30.9033  66.5136  11.6031   N.2       1 RES1   1.0000
     5 C5      30.4460  66.8588  10.2585   C.3       1 RES1   0.0000
     6 C6      30.9621  65.9340   9.1686   C.3       1 RES1   0.0000
     7 N7      30.3241  66.2172   7.8901   N.2       1 RES1   1.0000
     8 C8      31.4039  66.5801   6.9462   C.3       1 RES1   0.0000
     9 C9      32.6022  66.5926   7.6591   C.3       1 RES1   0.0000
    10 O10     33.6163  65.8698   6.9941   O.3       1 RES1   0.0000
    11 C11     32.3536  66.2223   8.9949   C.3       1 RES1   0.0000
    12 O12     32.9117  64.9387   9.1988   O.3       1 RES1   0.0000
    13 C13     31.4475  66.6627  13.9166   C.2       1 RES1   0.0000
    14 C14     30.9471  65.9299  15.0053   C.2       1 RES1   0.0000
    15 C15     31.7828  65.3631  15.9838   C.2       1 RES1   0.0000
    16 C16     33.1570  65.5194  15.9066   C.2       1 RES1   0.0000
    17 C17     33.6260  66.2377  14.8297   C.2       1 RES1   0.0000
    18 C18     32.8371  66.8196  13.8321   C.2       1 RES1   0.0000
@<TRIPOS>BOND
     1     1     2    1
     2     3     2    1
     3     3     4    1
     4     4     5    1
     5     6     5    1
     6     6     7    1
     7     7     8    1
     8     8     9    1
     9     9    10    1
    10     9    11    1
    11    11    12    1
    12     3    13    1
    13    13    14    2
    14    14    15    1
    15    15    16    2
    16    16    17    1
    17    17    18    2
    18    11     6    1
    19    18    13    1
@<TRIPOS>SUBSTRUCTURE
     1 RES1        1 GROUP             0 ****  ****    0  
@<TRIPOS>MOLECULE
ligand_94
    18    19     1     0     0
SMALL
USER_CHARGES
****
Generated from the CSD

@<TRIPOS>ATOM
     1 O1      30.8947  72.0970  11.7438   O.3       1 RES1   0.0000
     2 C2      30.3984  70.8779  11.2186   C.3       1 RES1   0.0000
     3 C3      31.5395  69.8932  11.4299   C.3       1 RES1   0.0000
     4 N4      31.4017  68.5049  10.9328   N.2       1 RES1   1.0000
     5 C5      30.9355  68.1532   9.5929   C.3       1 RES1   0.0000
     6 C6      30.8821  66.6583   9.3247   C.3       1 RES1   0.0000
     7 N7      30.2099  66.3606   7.9909   N.2       1 RES1   1.0000
     8 C8      31.2754  66.6087   6.9207   C.3       1 RES1   0.0000
     9 C9      32.6054  66.5912   7.6626   C.3       1 RES1   0.0000
    10 O10     33.6206  65.8678   6.9998   O.3       1 RES1   0.0000
    11 C11     32.2872  66.1460   9.0938   C.3       1 RES1   0.0000
    12 O12     32.0616  64.7499   9.1191   O.3       1 RES1   0.0000
    13 C13     31.7509  69.7243  12.9482   C.2       1 RES1   0.0000
    14 C14     32.8315  70.3036  13.6334   C.2       1 RES1   0.0000
    15 C15     33.0072  70.1678  15.0219   C.2       1 RES1   0.0000
    16 C16     32.1030  69.4355  15.7735   C.2       1 RES1   0.0000
    17 C17     31.0497  68.8798  15.0825   C.2       1 RES1   0.0000
    18 C18     30.8315  68.9865  13.7051   C.2       1 RES1   0.0000
@<TRIPOS>BOND
     1     1     2    1
     2     3     2    1
     3     3     4    1
     4     4     5    1
     5     6     5    1
     6     6     7    1
     7     7     8    1
     8     8     9    1
     9     9    10    1
    10     9    11    1
    11    11    12    1
    12     3    13    1
    13    13    14    2
    14    14    15    1
    15    15    16    2
    16    16    17    1
    17    17    18    2
    18    11     6    1
    19    18    13    1
@<TRIPOS>SUBSTRUCTURE
     1 RES1        1 GROUP             0 ****  ****    0  
@<TRIPOS>MOLECULE
ligand_95
    18    19     1     0     0
SMALL
USER_CHARGES
****
Generated from the CSD

@<TRIPOS>ATOM
     1 O1      26.7711  67.4368   9.4345   O.3       1 RES1   0.0000
     2 C2      27.4704  67.2522   8.2158   C.3       1 RES1   0.0000
     3 C3      28.8585  67.8086   8.4986   C.3       1 RES1   0.0000
     4 N4      29.6585  67.2361   9.6057   N.2       1 RES1   1.0000
     5 C5      29.9025  65.8070   9.7910   C.3       1 RES1   0.0000
     6 C6      31.1151  65.2802   9.0415   C.3       1 RES1   0.0000
     7 N7      31.0612  65.6539   7.5888   N.2       1 RES1   1.0000
     8 C8      31.8624  66.9099   7.4446   C.3       1 RES1   0.0000
     9 C9      33.0266  66.6476   8.3830   C.3       1 RES1   0.0000
    10 O10     34.1129  65.9407   7.8234   O.3       1 RES1   0.0000
    11 C11     32.3616  66.0030   9.6011   C.3       1 RES1   0.0000
    12 O12     33.1346  64.8966  10.0243   O.3       1 RES1   0.0000
    13 C13     28.7095  69.2957   8.8790   C.2       1 RES1   0.0000
    14 C14     29.0029  70.3407   7.9875   C.2       1 RES1   0.0000
    15 C15     28.8422  71.6949   8.3300   C.2       1 RES1   0.0000
    16 C16     28.3856  72.0491   9.5889   C.2       1 RES1   0.0000
    17 C17     28.1006  71.0093  10.4453   C.2       1 RES1   0.0000
    18 C18     28.2433  69.6493  10.1519   C.2       1 RES1   0.0000
@<TRIPOS>BOND
     1     1     2    1
     2     3     2    1
     3     3     4    1
     4     4     5    1
     5     6     5    1
     6     6     7    1
     7     7     8    1
     8     8     9    1
     9     9    10    1
    10     9    11    1
    11    11    12    1
    12     3    13    1
    13    13    14    2
    14    14    15    1
    15    15    16    2
    16    16    17    1
    17    17    18    2
    18    11     6    1
    19    18    13    1
@<TRIPOS>SUBSTRUCTURE
     1 RES1        1 GROUP             0 ****  ****    0  
@<TRIPOS>MOLECULE
ligand_96
    18    19     1     0     0
SMALL
USER_CHARGES
****
Generated from the CSD

@<TRIPOS>ATOM
     1 O1      25.8584  67.8662   8.8220   O.3       1 RES1   0.0000
     2 C2      26.5156  67.1373   9.8443   C.3       1 RES1   0.0000
     3 C3      27.9911  67.4361   9.6205   C.3       1 RES1   0.0000
     4 N4      29.0033  66.7786  10.4786   N.2       1 RES1   1.0000
     5 C5      30.4460  66.8588  10.2585   C.3       1 RES1   0.0000
     6 C6      30.9686  65.9012   9.2005   C.3       1 RES1   0.0000
     7 N7      30.4961  66.2719   7.8734   N.2       1 RES1   1.0000
     8 C8      31.6978  66.5313   7.0504   C.3       1 RES1   0.0000
     9 C9      32.8127  66.4030   7.8778   C.3       1 RES1   0.0000
    10 O10     33.8066  65.5858   7.2969   O.3       1 RES1   0.0000
    11 C11     32.3931  66.0405   9.1724   C.3       1 RES1   0.0000
    12 O12     32.7890  64.7011   9.3959   O.3       1 RES1   0.0000
    13 C13     28.2172  68.9416   9.8671   C.2       1 RES1   0.0000
    14 C14     28.3895  69.8647   8.8227   C.2       1 RES1   0.0000
    15 C15     28.5708  71.2403   9.0509   C.2       1 RES1   0.0000
    16 C16     28.5928  71.7384  10.3433   C.2       1 RES1   0.0000
    17 C17     28.4183  70.8170  11.3514   C.2       1 RES1   0.0000
    18 C18     28.2344  69.4417  11.1757   C.2       1 RES1   0.0000
@<TRIPOS>BOND
     1     1     2    1
     2     3     2    1
     3     3     4    1
     4     4     5    1
     5     6     5    1
     6     6     7    1
     7     7     8    1
     8     8     9    1
     9     9    10    1
    10     9    11    1
    11    11    12    1
    12     3    13    1
    13    13    14    2
    14    14    15    1
    15    15    16    2
    16    16    17    1
    17    17    18    2
    18    11     6    1
    19    18    13    1
@<TRIPOS>SUBSTRUCTURE
     1 RES1        1 GROUP             0 ****  ****    0  
@<TRIPOS>MOLECULE
ligand_97
    18    19     1     0     0
SMALL
USER_CHARGES
****
Generated from the CSD

@<TRIPOS>ATOM
     1 O1      26.5997  64.7169  12.4254   O.3       1 RES1   0.0000
     2 C2      26.8780  65.8728  11.6543   C.3       1 RES1   0.0000
     3 C3      28.3364  65.7062  11.2523   C.3       1 RES1   0.0000
     4 N4      29.0033  66.7786  10.4786   N.2       1 RES1   1.0000
     5 C5      30.4460  66.8588  10.2585   C.3       1 RES1   0.0000
     6 C6      30.9574  65.9568   9.1475   C.3       1 RES1   0.0000
     7 N7      30.3432  66.2927   7.8701   N.2       1 RES1   1.0000
     8 C8      31.4434  66.6609   6.9520   C.3       1 RES1   0.0000
     9 C9      32.6317  66.6257   7.6806   C.3       1 RES1   0.0000
    10 O10     33.6394  65.9019   7.0070   O.3       1 RES1   0.0000
    11 C11     32.3569  66.2202   9.0010   C.3       1 RES1   0.0000
    12 O12     32.8848  64.9192   9.1725   O.3       1 RES1   0.0000
    13 C13     28.4424  64.4685  10.3384   C.2       1 RES1   0.0000
    14 C14     28.9683  63.2426  10.7782   C.2       1 RES1   0.0000
    15 C15     29.0405  62.1093   9.9490   C.2       1 RES1   0.0000
    16 C16     28.5914  62.1700   8.6401   C.2       1 RES1   0.0000
    17 C17     28.0765  63.3796   8.2311   C.2       1 RES1   0.0000
    18 C18     27.9830  64.5331   9.0165   C.2       1 RES1   0.0000
@<TRIPOS>BOND
     1     1     2    1
     2     3     2    1
     3     3     4    1
     4     4     5    1
     5     6     5    1
     6     6     7    1
     7     7     8    1
     8     8     9    1
     9     9    10    1
    10     9    11    1
    11    11    12    1
    12     3    13    1
    13    13    14    2
    14    14    15    1
    15    15    16    2
    16    16    17    1
    17    17    18    2
    18    11     6    1
    19    18    13    1
@<TRIPOS>SUBSTRUCTURE
     1 RES1        1 GROUP             0 ****  ****    0  
@<TRIPOS>MOLECULE
ligand_98
    18    19     1     0     0
SMALL
USER_CHARGES
****
Generated from the CSD

@<TRIPOS>ATOM
     1 O1      25.8043  64.5604   9.0911   O.3       1 RES1   0.0000
     2 C2      26.7707  63.9443   8.2577   C.3       1 RES1   0.0000
     3 C3      27.9655  64.8851   8.3197   C.3       1 RES1   0.0000
     4 N4      28.5956  65.1730   9.6287   N.2       1 RES1   1.0000
     5 C5      29.9025  65.8070   9.7910   C.3       1 RES1   0.0000
     6 C6      31.0075  65.1776   8.9590   C.3       1 RES1   0.0000
     7 N7      30.9095  65.5941   7.5203   N.2       1 RES1   1.0000
     8 C8      31.8289  66.7635   7.3543   C.3       1 RES1   0.0000
     9 C9      33.0112  66.3564   8.2151   C.3       1 RES1   0.0000
    10 O10     33.9829  65.5558   7.5764   O.3       1 RES1   0.0000
    11 C11     32.3535  65.7515   9.4573   C.3       1 RES1   0.0000
    12 O12     33.0288  64.5598   9.8100   O.3       1 RES1   0.0000
    13 C13     27.5111  66.2694   7.8142   C.2       1 RES1   0.0000
    14 C14     26.8046  67.1776   8.6196   C.2       1 RES1   0.0000
    15 C15     26.4136  68.4487   8.1628   C.2       1 RES1   0.0000
    16 C16     26.7138  68.8513   6.8718   C.2       1 RES1   0.0000
    17 C17     27.4098  67.9473   6.1011   C.2       1 RES1   0.0000
    18 C18     27.8206  66.6742   6.5092   C.2       1 RES1   0.0000
@<TRIPOS>BOND
     1     1     2    1
     2     3     2    1
     3     3     4    1
     4     4     5    1
     5     6     5    1
     6     6     7    1
     7     7     8    1
     8     8     9    1
     9     9    10    1
    10     9    11    1
    11    11    12    1
    12     3    13    1
    13    13    14    2
    14    14    15    1
    15    15    16    2
    16    16    17    1
    17    17    18    2
    18    11     6    1
    19    18    13    1
@<TRIPOS>SUBSTRUCTURE
     1 RES1        1 GROUP             0 ****  ****    0  
@<TRIPOS>MOLECULE
ligand_99
    18    19     1     0     0
SMALL
USER_CHARGES
****
Generated from the CSD

@<TRIPOS>ATOM
     1 O1      30.2570  63.9160  14.1823   O.3       1 RES1   0.0000
     2 C2      31.0375  64.9962  13.7005   C.3       1 RES1   0.0000
     3 C3      30.3233  65.4291  12.4281   C.3       1 RES1   0.0000
     4 N4      30.9033  66.5136  11.6031   N.2       1 RES1   1.0000
     5 C5      30.4460  66.8588  10.2585   C.3       1 RES1   0.0000
     6 C6      30.9604  65.9327   9.1689   C.3       1 RES1   0.0000
     7 N7      30.3142  66.2088   7.8930   N.2       1 RES1   1.0000
     8 C8      31.3873  66.5734   6.9420   C.3       1 RES1   0.0000
     9 C9      32.5893  66.5936   7.6483   C.3       1 RES1   0.0000
    10 O10     33.6031  65.8732   6.9802   O.3       1 RES1   0.0000
    11 C11     32.3496  66.2266   8.9867   C.3       1 RES1   0.0000
    12 O12     32.9145  64.9462   9.1918   O.3       1 RES1   0.0000
    13 C13     28.9311  65.9649  12.8196   C.2       1 RES1   0.0000
    14 C14     27.7509  65.2304  12.6194   C.2       1 RES1   0.0000
    15 C15     26.4860  65.7122  13.0002   C.2       1 RES1   0.0000
    16 C16     26.3609  66.9583  13.5921   C.2       1 RES1   0.0000
    17 C17     27.5304  67.6595  13.7823   C.2       1 RES1   0.0000
    18 C18     28.8097  67.2240  13.4219   C.2       1 RES1   0.0000
@<TRIPOS>BOND
     1     1     2    1
     2     3     2    1
     3     3     4    1
     4     4     5    1
     5     6     5    1
     6     6     7    1
     7     7     8    1
     8     8     9    1
     9     9    10    1
    10     9    11    1
    11    11    12    1
    12     3    13    1
    13    13    14    2
    14    14    15    1
    15    15    16    2
    16    16    17    1
    17    17    18    2
    18    11     6    1
    19    18    13    1
@<TRIPOS>SUBSTRUCTURE
     1 RES1        1 GROUP             0 ****  ****    0  
