@<TRIPOS>MOLECULE
native
    15    15     1     0     0
SMALL
USER_CHARGES
****
Generated from the CSD

@<TRIPOS>ATOM
     1 N1      -5.4050  -0.4380  16.1190   N.3       1 RES1   0.0000
     2 S2      -5.9090   0.9430  16.7400   S.o2      1 RES1   0.0000
     3 O3      -7.3410   1.0560  16.6070   O.2       1 RES1   0.0000
     4 O4      -5.3450   1.1320  18.0680   O.2       1 RES1   0.0000
     5 C5      -5.2250   2.2620  15.7630   C.2       1 RES1   0.0000
     6 C6      -6.0360   3.3290  15.3740   C.2       1 RES1   0.0000
     7 C7      -5.5100   4.3470  14.6030   C.2       1 RES1   0.0000
     8 C8      -4.1730   4.3810  14.2540   C.2       1 RES1   0.0000
     9 C9      -3.6750   5.5010  13.4070   C.3       1 RES1   0.0000
    10 C10     -2.3920   6.1030  13.8980   C.3       1 RES1   0.0000
    11 C11     -1.7880   7.2010  13.0550   C.2       1 RES1   0.0000
    12 O12     -2.5090   8.1280  12.6510   O.co2     1 RES1   0.0000
    13 O13     -0.5620   7.2180  12.8070   O.co2     1 RES1  -1.0000
    14 C14     -3.3800   3.3140  14.6600   C.2       1 RES1   0.0000
    15 C15     -3.8870   2.2390  15.3770   C.2       1 RES1   0.0000
@<TRIPOS>BOND
     1     1     2    1
     2     2     3    2
     3     2     4    2
     4     2     5    1
     5     5     6    2
     6     6     7    1
     7     7     8    2
     8     8     9    1
     9     9    10    1
    10    10    11    1
    11    11    12    2
    12    11    13    1
    13     8    14    1
    14    14    15    2
    15    15     5    1
@<TRIPOS>SUBSTRUCTURE
     1 RES1        1 GROUP             0 ****  ****    0  
@<TRIPOS>MOLECULE
ligand_0
    15    15     1     0     0
SMALL
USER_CHARGES
****
Generated from the CSD

@<TRIPOS>ATOM
     1 N1      -4.8983   0.7348  17.9799   N.3       1 RES1   0.0000
     2 S2      -6.0563   1.8109  17.7617   S.o2      1 RES1   0.0000
     3 O3      -7.1636   1.2149  17.0546   O.2       1 RES1   0.0000
     4 O4      -6.3522   2.4911  19.0135   O.2       1 RES1   0.0000
     5 C5      -5.4244   3.0824  16.6910   C.2       1 RES1   0.0000
     6 C6      -4.7858   4.1958  17.2388   C.2       1 RES1   0.0000
     7 C7      -4.3073   5.1912  16.4096   C.2       1 RES1   0.0000
     8 C8      -4.3798   5.0907  15.0329   C.2       1 RES1   0.0000
     9 C9      -3.8578   6.2087  14.1978   C.3       1 RES1   0.0000
    10 C10     -2.3920   6.1030  13.8980   C.3       1 RES1   0.0000
    11 C11     -1.7880   7.2010  13.0550   C.2       1 RES1   0.0000
    12 O12     -2.5090   8.1280  12.6510   O.co2     1 RES1   0.0000
    13 O13     -0.5620   7.2180  12.8070   O.co2     1 RES1  -1.0000
    14 C14     -5.0104   3.9691  14.5071   C.2       1 RES1   0.0000
    15 C15     -5.5646   2.9809  15.3091   C.2       1 RES1   0.0000
@<TRIPOS>BOND
     1     1     2    1
     2     2     3    2
     3     2     4    2
     4     2     5    1
     5     5     6    2
     6     6     7    1
     7     7     8    2
     8     8     9    1
     9     9    10    1
    10    10    11    1
    11    11    12    2
    12    11    13    1
    13     8    14    1
    14    14    15    2
    15    15     5    1
@<TRIPOS>SUBSTRUCTURE
     1 RES1        1 GROUP             0 ****  ****    0  
@<TRIPOS>MOLECULE
ligand_1
    15    15     1     0     0
SMALL
USER_CHARGES
****
Generated from the CSD

@<TRIPOS>ATOM
     1 N1      -7.5621   2.1874  18.1326   N.3       1 RES1   0.0000
     2 S2      -6.0563   1.8109  17.7617   S.o2      1 RES1   0.0000
     3 O3      -5.2290   1.8436  18.9430   O.2       1 RES1   0.0000
     4 O4      -6.0252   0.5980  16.9583   O.2       1 RES1   0.0000
     5 C5      -5.4244   3.0824  16.6910   C.2       1 RES1   0.0000
     6 C6      -4.7858   4.1958  17.2388   C.2       1 RES1   0.0000
     7 C7      -4.3073   5.1912  16.4096   C.2       1 RES1   0.0000
     8 C8      -4.3798   5.0907  15.0329   C.2       1 RES1   0.0000
     9 C9      -3.8578   6.2087  14.1978   C.3       1 RES1   0.0000
    10 C10     -2.3920   6.1030  13.8980   C.3       1 RES1   0.0000
    11 C11     -1.7880   7.2010  13.0550   C.2       1 RES1   0.0000
    12 O12     -2.5090   8.1280  12.6510   O.co2     1 RES1   0.0000
    13 O13     -0.5620   7.2180  12.8070   O.co2     1 RES1  -1.0000
    14 C14     -5.0104   3.9691  14.5071   C.2       1 RES1   0.0000
    15 C15     -5.5646   2.9809  15.3091   C.2       1 RES1   0.0000
@<TRIPOS>BOND
     1     1     2    1
     2     2     3    2
     3     2     4    2
     4     2     5    1
     5     5     6    2
     6     6     7    1
     7     7     8    2
     8     8     9    1
     9     9    10    1
    10    10    11    1
    11    11    12    2
    12    11    13    1
    13     8    14    1
    14    14    15    2
    15    15     5    1
@<TRIPOS>SUBSTRUCTURE
     1 RES1        1 GROUP             0 ****  ****    0  
@<TRIPOS>MOLECULE
ligand_2
    15    15     1     0     0
SMALL
USER_CHARGES
****
Generated from the CSD

@<TRIPOS>ATOM
     1 N1      -6.3307   0.4937  16.7618   N.3       1 RES1   0.0000
     2 S2      -5.7784   1.6473  17.7163   S.o2      1 RES1   0.0000
     3 O3      -6.8455   2.1712  18.5337   O.2       1 RES1   0.0000
     4 O4      -4.5730   1.2008  18.3982   O.2       1 RES1   0.0000
     5 C5      -5.2464   2.9973  16.6884   C.2       1 RES1   0.0000
     6 C6      -3.9296   3.0414  16.2286   C.2       1 RES1   0.0000
     7 C7      -3.5108   4.0967  15.4422   C.2       1 RES1   0.0000
     8 C8      -4.3798   5.0907  15.0329   C.2       1 RES1   0.0000
     9 C9      -3.8578   6.2087  14.1978   C.3       1 RES1   0.0000
    10 C10     -2.3920   6.1030  13.8980   C.3       1 RES1   0.0000
    11 C11     -1.7880   7.2010  13.0550   C.2       1 RES1   0.0000
    12 O12     -2.5090   8.1280  12.6510   O.co2     1 RES1   0.0000
    13 O13     -0.5620   7.2180  12.8070   O.co2     1 RES1  -1.0000
    14 C14     -5.6895   5.0229  15.4934   C.2       1 RES1   0.0000
    15 C15     -6.1305   4.0158  16.3408   C.2       1 RES1   0.0000
@<TRIPOS>BOND
     1     1     2    1
     2     2     3    2
     3     2     4    2
     4     2     5    1
     5     5     6    2
     6     6     7    1
     7     7     8    2
     8     8     9    1
     9     9    10    1
    10    10    11    1
    11    11    12    2
    12    11    13    1
    13     8    14    1
    14    14    15    2
    15    15     5    1
@<TRIPOS>SUBSTRUCTURE
     1 RES1        1 GROUP             0 ****  ****    0  
@<TRIPOS>MOLECULE
ligand_3
    15    15     1     0     0
SMALL
USER_CHARGES
****
Generated from the CSD

@<TRIPOS>ATOM
     1 N1      -5.5189   2.0580  19.2365   N.3       1 RES1   0.0000
     2 S2      -5.7784   1.6473  17.7163   S.o2      1 RES1   0.0000
     3 O3      -4.9470   0.5253  17.3544   O.2       1 RES1   0.0000
     4 O4      -7.2067   1.5282  17.4651   O.2       1 RES1   0.0000
     5 C5      -5.2464   2.9973  16.6884   C.2       1 RES1   0.0000
     6 C6      -3.9296   3.0414  16.2286   C.2       1 RES1   0.0000
     7 C7      -3.5108   4.0967  15.4422   C.2       1 RES1   0.0000
     8 C8      -4.3798   5.0907  15.0329   C.2       1 RES1   0.0000
     9 C9      -3.8578   6.2087  14.1978   C.3       1 RES1   0.0000
    10 C10     -2.3920   6.1030  13.8980   C.3       1 RES1   0.0000
    11 C11     -1.7880   7.2010  13.0550   C.2       1 RES1   0.0000
    12 O12     -2.5090   8.1280  12.6510   O.co2     1 RES1   0.0000
    13 O13     -0.5620   7.2180  12.8070   O.co2     1 RES1  -1.0000
    14 C14     -5.6895   5.0229  15.4934   C.2       1 RES1   0.0000
    15 C15     -6.1305   4.0158  16.3408   C.2       1 RES1   0.0000
@<TRIPOS>BOND
     1     1     2    1
     2     2     3    2
     3     2     4    2
     4     2     5    1
     5     5     6    2
     6     6     7    1
     7     7     8    2
     8     8     9    1
     9     9    10    1
    10    10    11    1
    11    11    12    2
    12    11    13    1
    13     8    14    1
    14    14    15    2
    15    15     5    1
@<TRIPOS>SUBSTRUCTURE
     1 RES1        1 GROUP             0 ****  ****    0  
@<TRIPOS>MOLECULE
ligand_4
    15    15     1     0     0
SMALL
USER_CHARGES
****
Generated from the CSD

@<TRIPOS>ATOM
     1 N1      -5.3380   0.6668  17.5762   N.3       1 RES1   0.0000
     2 S2      -4.5603   1.6235  18.5895   S.o2      1 RES1   0.0000
     3 O3      -5.4817   2.1975  19.5395   O.2       1 RES1   0.0000
     4 O4      -3.3888   0.9445  19.1223   O.2       1 RES1   0.0000
     5 C5      -3.9092   2.9908  17.6574   C.2       1 RES1   0.0000
     6 C6      -2.6344   2.9030  17.0965   C.2       1 RES1   0.0000
     7 C7      -2.1215   3.9695  16.3846   C.2       1 RES1   0.0000
     8 C8      -2.8627   5.1119  16.1475   C.2       1 RES1   0.0000
     9 C9      -2.2421   6.2313  15.3848   C.3       1 RES1   0.0000
    10 C10     -2.3920   6.1030  13.8980   C.3       1 RES1   0.0000
    11 C11     -1.7880   7.2010  13.0550   C.2       1 RES1   0.0000
    12 O12     -2.5090   8.1280  12.6510   O.co2     1 RES1   0.0000
    13 O13     -0.5620   7.2180  12.8070   O.co2     1 RES1  -1.0000
    14 C14     -4.1339   5.1753  16.7061   C.2       1 RES1   0.0000
    15 C15     -4.6577   4.1526  17.4850   C.2       1 RES1   0.0000
@<TRIPOS>BOND
     1     1     2    1
     2     2     3    2
     3     2     4    2
     4     2     5    1
     5     5     6    2
     6     6     7    1
     7     7     8    2
     8     8     9    1
     9     9    10    1
    10    10    11    1
    11    11    12    2
    12    11    13    1
    13     8    14    1
    14    14    15    2
    15    15     5    1
@<TRIPOS>SUBSTRUCTURE
     1 RES1        1 GROUP             0 ****  ****    0  
@<TRIPOS>MOLECULE
ligand_5
    15    15     1     0     0
SMALL
USER_CHARGES
****
Generated from the CSD

@<TRIPOS>ATOM
     1 N1      -4.1408   1.8278  20.1156   N.3       1 RES1   0.0000
     2 S2      -4.5603   1.6235  18.5895   S.o2      1 RES1   0.0000
     3 O3      -3.9273   0.4437  18.0524   O.2       1 RES1   0.0000
     4 O4      -6.0045   1.7297  18.4471   O.2       1 RES1   0.0000
     5 C5      -3.9092   2.9908  17.6574   C.2       1 RES1   0.0000
     6 C6      -2.6344   2.9030  17.0965   C.2       1 RES1   0.0000
     7 C7      -2.1215   3.9695  16.3846   C.2       1 RES1   0.0000
     8 C8      -2.8627   5.1119  16.1475   C.2       1 RES1   0.0000
     9 C9      -2.2421   6.2313  15.3848   C.3       1 RES1   0.0000
    10 C10     -2.3920   6.1030  13.8980   C.3       1 RES1   0.0000
    11 C11     -1.7880   7.2010  13.0550   C.2       1 RES1   0.0000
    12 O12     -2.5090   8.1280  12.6510   O.co2     1 RES1   0.0000
    13 O13     -0.5620   7.2180  12.8070   O.co2     1 RES1  -1.0000
    14 C14     -4.1339   5.1753  16.7061   C.2       1 RES1   0.0000
    15 C15     -4.6577   4.1526  17.4850   C.2       1 RES1   0.0000
@<TRIPOS>BOND
     1     1     2    1
     2     2     3    2
     3     2     4    2
     4     2     5    1
     5     5     6    2
     6     6     7    1
     7     7     8    2
     8     8     9    1
     9     9    10    1
    10    10    11    1
    11    11    12    2
    12    11    13    1
    13     8    14    1
    14    14    15    2
    15    15     5    1
@<TRIPOS>SUBSTRUCTURE
     1 RES1        1 GROUP             0 ****  ****    0  
@<TRIPOS>MOLECULE
ligand_6
    15    15     1     0     0
SMALL
USER_CHARGES
****
Generated from the CSD

@<TRIPOS>ATOM
     1 N1      -6.5998   4.9343   8.1805   N.3       1 RES1   0.0000
     2 S2      -7.5137   5.0942   9.4790   S.o2      1 RES1   0.0000
     3 O3      -8.3789   6.2403   9.3413   O.2       1 RES1   0.0000
     4 O4      -8.1379   3.8230   9.8134   O.2       1 RES1   0.0000
     5 C5      -6.4470   5.4537  10.8556   C.2       1 RES1   0.0000
     6 C6      -5.9206   4.4086  11.6160   C.2       1 RES1   0.0000
     7 C7      -5.1036   4.6866  12.6943   C.2       1 RES1   0.0000
     8 C8      -4.7292   5.9788  13.0114   C.2       1 RES1   0.0000
     9 C9      -3.8578   6.2087  14.1978   C.3       1 RES1   0.0000
    10 C10     -2.3921   6.0989  13.8989   C.3       1 RES1   0.0000
    11 C11     -1.7837   7.1973  13.0596   C.2       1 RES1   0.0000
    12 O12     -2.5007   8.1292  12.6598   O.co2     1 RES1   0.0000
    13 O13     -0.5578   7.2096  12.8107   O.co2     1 RES1  -1.0000
    14 C14     -5.2561   7.0046  12.2354   C.2       1 RES1   0.0000
    15 C15     -6.1346   6.7700  11.1865   C.2       1 RES1   0.0000
@<TRIPOS>BOND
     1     1     2    1
     2     2     3    2
     3     2     4    2
     4     2     5    1
     5     5     6    2
     6     6     7    1
     7     7     8    2
     8     8     9    1
     9     9    10    1
    10    10    11    1
    11    11    12    2
    12    11    13    1
    13     8    14    1
    14    14    15    2
    15    15     5    1
@<TRIPOS>SUBSTRUCTURE
     1 RES1        1 GROUP             0 ****  ****    0  
@<TRIPOS>MOLECULE
ligand_7
    15    15     1     0     0
SMALL
USER_CHARGES
****
Generated from the CSD

@<TRIPOS>ATOM
     1 N1      -9.0146   5.0563  10.0199   N.3       1 RES1   0.0000
     2 S2      -7.5137   5.0942   9.4790   S.o2      1 RES1   0.0000
     3 O3      -7.1211   3.7888   9.0068   O.2       1 RES1   0.0000
     4 O4      -7.3364   6.2148   8.5678   O.2       1 RES1   0.0000
     5 C5      -6.4470   5.4537  10.8556   C.2       1 RES1   0.0000
     6 C6      -5.9206   4.4086  11.6160   C.2       1 RES1   0.0000
     7 C7      -5.1036   4.6866  12.6943   C.2       1 RES1   0.0000
     8 C8      -4.7292   5.9788  13.0114   C.2       1 RES1   0.0000
     9 C9      -3.8578   6.2087  14.1978   C.3       1 RES1   0.0000
    10 C10     -2.3921   6.0989  13.8989   C.3       1 RES1   0.0000
    11 C11     -1.7837   7.1973  13.0596   C.2       1 RES1   0.0000
    12 O12     -2.5007   8.1292  12.6598   O.co2     1 RES1   0.0000
    13 O13     -0.5578   7.2096  12.8107   O.co2     1 RES1  -1.0000
    14 C14     -5.2561   7.0046  12.2354   C.2       1 RES1   0.0000
    15 C15     -6.1346   6.7700  11.1865   C.2       1 RES1   0.0000
@<TRIPOS>BOND
     1     1     2    1
     2     2     3    2
     3     2     4    2
     4     2     5    1
     5     5     6    2
     6     6     7    1
     7     7     8    2
     8     8     9    1
     9     9    10    1
    10    10    11    1
    11    11    12    2
    12    11    13    1
    13     8    14    1
    14    14    15    2
    15    15     5    1
@<TRIPOS>SUBSTRUCTURE
     1 RES1        1 GROUP             0 ****  ****    0  
@<TRIPOS>MOLECULE
ligand_8
    15    15     1     0     0
SMALL
USER_CHARGES
****
Generated from the CSD

@<TRIPOS>ATOM
     1 N1      -6.6888  10.7306  18.3073   N.3       1 RES1   0.0000
     2 S2      -5.1019  10.6271  18.1733   S.o2      1 RES1   0.0000
     3 O3      -4.5678  11.8481  17.6212   O.2       1 RES1   0.0000
     4 O4      -4.5229  10.1487  19.4196   O.2       1 RES1   0.0000
     5 C5      -4.7369   9.3561  16.9844   C.2       1 RES1   0.0000
     6 C6      -4.5735   8.0366  17.4083   C.2       1 RES1   0.0000
     7 C7      -4.2757   7.0507  16.4882   C.2       1 RES1   0.0000
     8 C8      -4.1986   7.3165  15.1340   C.2       1 RES1   0.0000
     9 C9      -3.8578   6.2087  14.1978   C.3       1 RES1   0.0000
    10 C10     -2.3857   6.0589  13.9525   C.3       1 RES1   0.0000
    11 C11     -1.7288   7.1084  13.0875   C.2       1 RES1   0.0000
    12 O12     -2.4192   8.0189  12.6010   O.co2     1 RES1   0.0000
    13 O13     -0.4917   7.1039  12.9023   O.co2     1 RES1  -1.0000
    14 C14     -4.3746   8.6353  14.7313   C.2       1 RES1   0.0000
    15 C15     -4.6073   9.6650  15.6325   C.2       1 RES1   0.0000
@<TRIPOS>BOND
     1     1     2    1
     2     2     3    2
     3     2     4    2
     4     2     5    1
     5     5     6    2
     6     6     7    1
     7     7     8    2
     8     8     9    1
     9     9    10    1
    10    10    11    1
    11    11    12    2
    12    11    13    1
    13     8    14    1
    14    14    15    2
    15    15     5    1
@<TRIPOS>SUBSTRUCTURE
     1 RES1        1 GROUP             0 ****  ****    0  
@<TRIPOS>MOLECULE
ligand_9
    15    15     1     0     0
SMALL
USER_CHARGES
****
Generated from the CSD

@<TRIPOS>ATOM
     1 N1      -3.7159  11.2230  18.6937   N.3       1 RES1   0.0000
     2 S2      -5.1019  10.6271  18.1733   S.o2      1 RES1   0.0000
     3 O3      -5.7979   9.9692  19.2522   O.2       1 RES1   0.0000
     4 O4      -5.8339  11.6380  17.4251   O.2       1 RES1   0.0000
     5 C5      -4.7369   9.3561  16.9844   C.2       1 RES1   0.0000
     6 C6      -4.5735   8.0366  17.4083   C.2       1 RES1   0.0000
     7 C7      -4.2757   7.0507  16.4882   C.2       1 RES1   0.0000
     8 C8      -4.1986   7.3165  15.1340   C.2       1 RES1   0.0000
     9 C9      -3.8578   6.2087  14.1978   C.3       1 RES1   0.0000
    10 C10     -2.3857   6.0589  13.9525   C.3       1 RES1   0.0000
    11 C11     -1.7288   7.1084  13.0875   C.2       1 RES1   0.0000
    12 O12     -2.4192   8.0189  12.6010   O.co2     1 RES1   0.0000
    13 O13     -0.4917   7.1039  12.9023   O.co2     1 RES1  -1.0000
    14 C14     -4.3746   8.6353  14.7313   C.2       1 RES1   0.0000
    15 C15     -4.6073   9.6650  15.6325   C.2       1 RES1   0.0000
@<TRIPOS>BOND
     1     1     2    1
     2     2     3    2
     3     2     4    2
     4     2     5    1
     5     5     6    2
     6     6     7    1
     7     7     8    2
     8     8     9    1
     9     9    10    1
    10    10    11    1
    11    11    12    2
    12    11    13    1
    13     8    14    1
    14    14    15    2
    15    15     5    1
@<TRIPOS>SUBSTRUCTURE
     1 RES1        1 GROUP             0 ****  ****    0  
@<TRIPOS>MOLECULE
ligand_10
    15    15     1     0     0
SMALL
USER_CHARGES
****
Generated from the CSD

@<TRIPOS>ATOM
     1 N1      -5.7383   2.2358  19.2667   N.3       1 RES1   0.0000
     2 S2      -6.0563   1.8109  17.7617   S.o2      1 RES1   0.0000
     3 O3      -5.3320   0.6114  17.4189   O.2       1 RES1   0.0000
     4 O4      -7.4933   1.8113  17.5327   O.2       1 RES1   0.0000
     5 C5      -5.4244   3.0824  16.6910   C.2       1 RES1   0.0000
     6 C6      -4.7858   4.1958  17.2388   C.2       1 RES1   0.0000
     7 C7      -4.3073   5.1912  16.4096   C.2       1 RES1   0.0000
     8 C8      -4.3798   5.0907  15.0329   C.2       1 RES1   0.0000
     9 C9      -3.8578   6.2087  14.1978   C.3       1 RES1   0.0000
    10 C10     -2.3920   6.1030  13.8980   C.3       1 RES1   0.0000
    11 C11     -1.7880   7.2010  13.0550   C.2       1 RES1   0.0000
    12 O12     -2.5090   8.1280  12.6510   O.co2     1 RES1   0.0000
    13 O13     -0.5620   7.2180  12.8070   O.co2     1 RES1  -1.0000
    14 C14     -5.0104   3.9691  14.5071   C.2       1 RES1   0.0000
    15 C15     -5.5646   2.9809  15.3091   C.2       1 RES1   0.0000
@<TRIPOS>BOND
     1     1     2    1
     2     2     3    2
     3     2     4    2
     4     2     5    1
     5     5     6    2
     6     6     7    1
     7     7     8    2
     8     8     9    1
     9     9    10    1
    10    10    11    1
    11    11    12    2
    12    11    13    1
    13     8    14    1
    14    14    15    2
    15    15     5    1
@<TRIPOS>SUBSTRUCTURE
     1 RES1        1 GROUP             0 ****  ****    0  
@<TRIPOS>MOLECULE
ligand_11
    15    15     1     0     0
SMALL
USER_CHARGES
****
Generated from the CSD

@<TRIPOS>ATOM
     1 N1      -6.5185   0.4547  16.3945   N.3       1 RES1   0.0000
     2 S2      -5.9109   1.4999  17.4362   S.o2      1 RES1   0.0000
     3 O3      -6.9535   2.0177  18.2882   O.2       1 RES1   0.0000
     4 O4      -4.7365   0.9370  18.0853   O.2       1 RES1   0.0000
     5 C5      -5.2987   2.8932  16.5163   C.2       1 RES1   0.0000
     6 C6      -5.4102   2.9086  15.1253   C.2       1 RES1   0.0000
     7 C7      -4.9223   3.9834  14.4083   C.2       1 RES1   0.0000
     8 C8      -4.3798   5.0907  15.0329   C.2       1 RES1   0.0000
     9 C9      -3.8578   6.2087  14.1978   C.3       1 RES1   0.0000
    10 C10     -2.3920   6.1030  13.8980   C.3       1 RES1   0.0000
    11 C11     -1.7880   7.2010  13.0550   C.2       1 RES1   0.0000
    12 O12     -2.5090   8.1280  12.6510   O.co2     1 RES1   0.0000
    13 O13     -0.5620   7.2180  12.8070   O.co2     1 RES1  -1.0000
    14 C14     -4.2872   5.0599  16.4195   C.2       1 RES1   0.0000
    15 C15     -4.7035   3.9692  17.1703   C.2       1 RES1   0.0000
@<TRIPOS>BOND
     1     1     2    1
     2     2     3    2
     3     2     4    2
     4     2     5    1
     5     5     6    2
     6     6     7    1
     7     7     8    2
     8     8     9    1
     9     9    10    1
    10    10    11    1
    11    11    12    2
    12    11    13    1
    13     8    14    1
    14    14    15    2
    15    15     5    1
@<TRIPOS>SUBSTRUCTURE
     1 RES1        1 GROUP             0 ****  ****    0  
@<TRIPOS>MOLECULE
ligand_12
    15    15     1     0     0
SMALL
USER_CHARGES
****
Generated from the CSD

@<TRIPOS>ATOM
     1 N1      -6.2065   1.9175  18.7053   N.3       1 RES1   0.0000
     2 S2      -4.7096   1.5217  18.3185   S.o2      1 RES1   0.0000
     3 O3      -3.9248   1.3151  19.5112   O.2       1 RES1   0.0000
     4 O4      -4.7120   0.4557  17.3281   O.2       1 RES1   0.0000
     5 C5      -3.9750   2.9124  17.4888   C.2       1 RES1   0.0000
     6 C6      -4.0771   3.0250  16.1015   C.2       1 RES1   0.0000
     7 C7      -3.4947   4.0969  15.4540   C.2       1 RES1   0.0000
     8 C8      -2.8627   5.1119  16.1475   C.2       1 RES1   0.0000
     9 C9      -2.2421   6.2313  15.3848   C.3       1 RES1   0.0000
    10 C10     -2.3920   6.1030  13.8980   C.3       1 RES1   0.0000
    11 C11     -1.7880   7.2010  13.0550   C.2       1 RES1   0.0000
    12 O12     -2.5090   8.1280  12.6510   O.co2     1 RES1   0.0000
    13 O13     -0.5620   7.2180  12.8070   O.co2     1 RES1  -1.0000
    14 C14     -2.7808   4.9859  17.5293   C.2       1 RES1   0.0000
    15 C15     -3.2933   3.8899  18.2096   C.2       1 RES1   0.0000
@<TRIPOS>BOND
     1     1     2    1
     2     2     3    2
     3     2     4    2
     4     2     5    1
     5     5     6    2
     6     6     7    1
     7     7     8    2
     8     8     9    1
     9     9    10    1
    10    10    11    1
    11    11    12    2
    12    11    13    1
    13     8    14    1
    14    14    15    2
    15    15     5    1
@<TRIPOS>SUBSTRUCTURE
     1 RES1        1 GROUP             0 ****  ****    0  
@<TRIPOS>MOLECULE
ligand_13
    15    15     1     0     0
SMALL
USER_CHARGES
****
Generated from the CSD

@<TRIPOS>ATOM
     1 N1      -3.6170   0.3606  18.3884   N.3       1 RES1   0.0000
     2 S2      -4.7096   1.5217  18.3185   S.o2      1 RES1   0.0000
     3 O3      -5.8199   1.1122  17.4935   O.2       1 RES1   0.0000
     4 O4      -5.0150   2.0051  19.6566   O.2       1 RES1   0.0000
     5 C5      -3.9750   2.9124  17.4888   C.2       1 RES1   0.0000
     6 C6      -4.0771   3.0250  16.1015   C.2       1 RES1   0.0000
     7 C7      -3.4947   4.0969  15.4540   C.2       1 RES1   0.0000
     8 C8      -2.8627   5.1119  16.1475   C.2       1 RES1   0.0000
     9 C9      -2.2421   6.2313  15.3848   C.3       1 RES1   0.0000
    10 C10     -2.3920   6.1030  13.8980   C.3       1 RES1   0.0000
    11 C11     -1.7880   7.2010  13.0550   C.2       1 RES1   0.0000
    12 O12     -2.5090   8.1280  12.6510   O.co2     1 RES1   0.0000
    13 O13     -0.5620   7.2180  12.8070   O.co2     1 RES1  -1.0000
    14 C14     -2.7808   4.9859  17.5293   C.2       1 RES1   0.0000
    15 C15     -3.2933   3.8899  18.2096   C.2       1 RES1   0.0000
@<TRIPOS>BOND
     1     1     2    1
     2     2     3    2
     3     2     4    2
     4     2     5    1
     5     5     6    2
     6     6     7    1
     7     7     8    2
     8     8     9    1
     9     9    10    1
    10    10    11    1
    11    11    12    2
    12    11    13    1
    13     8    14    1
    14    14    15    2
    15    15     5    1
@<TRIPOS>SUBSTRUCTURE
     1 RES1        1 GROUP             0 ****  ****    0  
@<TRIPOS>MOLECULE
ligand_14
    15    15     1     0     0
SMALL
USER_CHARGES
****
Generated from the CSD

@<TRIPOS>ATOM
     1 N1      -5.6490  11.9280  17.2688   N.3       1 RES1   0.0000
     2 S2      -5.4178  10.5882  18.1044   S.o2      1 RES1   0.0000
     3 O3      -4.3089  10.7522  19.0124   O.2       1 RES1   0.0000
     4 O4      -6.6771  10.1230  18.6659   O.2       1 RES1   0.0000
     5 C5      -4.9285   9.3131  16.9656   C.2       1 RES1   0.0000
     6 C6      -5.8996   8.5146  16.3599   C.2       1 RES1   0.0000
     7 C7      -5.5204   7.5144  15.4863   C.2       1 RES1   0.0000
     8 C8      -4.1986   7.3165  15.1340   C.2       1 RES1   0.0000
     9 C9      -3.8578   6.2087  14.1978   C.3       1 RES1   0.0000
    10 C10     -2.3925   6.1059  13.8944   C.3       1 RES1   0.0000
    11 C11     -1.7936   7.2030  13.0467   C.2       1 RES1   0.0000
    12 O12     -2.5180   8.1270  12.6420   O.co2     1 RES1   0.0000
    13 O13     -0.5683   7.2225  12.7953   O.co2     1 RES1  -1.0000
    14 C14     -3.2478   8.1290  15.7406   C.2       1 RES1   0.0000
    15 C15     -3.5833   9.0991  16.6750   C.2       1 RES1   0.0000
@<TRIPOS>BOND
     1     1     2    1
     2     2     3    2
     3     2     4    2
     4     2     5    1
     5     5     6    2
     6     6     7    1
     7     7     8    2
     8     8     9    1
     9     9    10    1
    10    10    11    1
    11    11    12    2
    12    11    13    1
    13     8    14    1
    14    14    15    2
    15    15     5    1
@<TRIPOS>SUBSTRUCTURE
     1 RES1        1 GROUP             0 ****  ****    0  
@<TRIPOS>MOLECULE
ligand_15
    15    15     1     0     0
SMALL
USER_CHARGES
****
Generated from the CSD

@<TRIPOS>ATOM
     1 N1      -5.4560   9.9500  19.5666   N.3       1 RES1   0.0000
     2 S2      -5.4178  10.5882  18.1044   S.o2      1 RES1   0.0000
     3 O3      -6.7436  10.9891  17.7009   O.2       1 RES1   0.0000
     4 O4      -4.3636  11.5876  18.0200   O.2       1 RES1   0.0000
     5 C5      -4.9285   9.3131  16.9656   C.2       1 RES1   0.0000
     6 C6      -5.8996   8.5146  16.3599   C.2       1 RES1   0.0000
     7 C7      -5.5204   7.5144  15.4863   C.2       1 RES1   0.0000
     8 C8      -4.1986   7.3165  15.1340   C.2       1 RES1   0.0000
     9 C9      -3.8578   6.2087  14.1978   C.3       1 RES1   0.0000
    10 C10     -2.3925   6.1059  13.8944   C.3       1 RES1   0.0000
    11 C11     -1.7936   7.2030  13.0467   C.2       1 RES1   0.0000
    12 O12     -2.5180   8.1270  12.6420   O.co2     1 RES1   0.0000
    13 O13     -0.5683   7.2225  12.7953   O.co2     1 RES1  -1.0000
    14 C14     -3.2478   8.1290  15.7406   C.2       1 RES1   0.0000
    15 C15     -3.5833   9.0991  16.6750   C.2       1 RES1   0.0000
@<TRIPOS>BOND
     1     1     2    1
     2     2     3    2
     3     2     4    2
     4     2     5    1
     5     5     6    2
     6     6     7    1
     7     7     8    2
     8     8     9    1
     9     9    10    1
    10    10    11    1
    11    11    12    2
    12    11    13    1
    13     8    14    1
    14    14    15    2
    15    15     5    1
@<TRIPOS>SUBSTRUCTURE
     1 RES1        1 GROUP             0 ****  ****    0  
@<TRIPOS>MOLECULE
ligand_16
    15    15     1     0     0
SMALL
USER_CHARGES
****
Generated from the CSD

@<TRIPOS>ATOM
     1 N1      -7.8577   3.8709   9.3105   N.3       1 RES1   0.0000
     2 S2      -7.5602   5.4328   9.4476   S.o2      1 RES1   0.0000
     3 O3      -6.8524   5.9091   8.2843   O.2       1 RES1   0.0000
     4 O4      -8.7715   6.1431   9.8292   O.2       1 RES1   0.0000
     5 C5      -6.4495   5.6580  10.8178   C.2       1 RES1   0.0000
     6 C6      -6.9623   5.8604  12.0999   C.2       1 RES1   0.0000
     7 C7      -6.1012   6.0500  13.1629   C.2       1 RES1   0.0000
     8 C8      -4.7292   5.9788  13.0114   C.2       1 RES1   0.0000
     9 C9      -3.8578   6.2087  14.1978   C.3       1 RES1   0.0000
    10 C10     -2.3915   6.1241  13.8936   C.3       1 RES1   0.0000
    11 C11     -1.7968   7.2536  13.0864   C.2       1 RES1   0.0000
    12 O12     -2.5253   8.1878  12.7134   O.co2     1 RES1   0.0000
    13 O13     -0.5712   7.2881  12.8381   O.co2     1 RES1  -1.0000
    14 C14     -4.2389   5.7662  11.7282   C.2       1 RES1   0.0000
    15 C15     -5.0704   5.6395  10.6240   C.2       1 RES1   0.0000
@<TRIPOS>BOND
     1     1     2    1
     2     2     3    2
     3     2     4    2
     4     2     5    1
     5     5     6    2
     6     6     7    1
     7     7     8    2
     8     8     9    1
     9     9    10    1
    10    10    11    1
    11    11    12    2
    12    11    13    1
    13     8    14    1
    14    14    15    2
    15    15     5    1
@<TRIPOS>SUBSTRUCTURE
     1 RES1        1 GROUP             0 ****  ****    0  
@<TRIPOS>MOLECULE
ligand_17
    15    15     1     0     0
SMALL
USER_CHARGES
****
Generated from the CSD

@<TRIPOS>ATOM
     1 N1      -7.8740   6.8707   8.8305   N.3       1 RES1   0.0000
     2 S2      -7.5602   5.4328   9.4476   S.o2      1 RES1   0.0000
     3 O3      -8.7601   4.8566  10.0037   O.2       1 RES1   0.0000
     4 O4      -6.8143   4.6280   8.4918   O.2       1 RES1   0.0000
     5 C5      -6.4495   5.6580  10.8178   C.2       1 RES1   0.0000
     6 C6      -6.9623   5.8604  12.0999   C.2       1 RES1   0.0000
     7 C7      -6.1012   6.0500  13.1629   C.2       1 RES1   0.0000
     8 C8      -4.7292   5.9788  13.0114   C.2       1 RES1   0.0000
     9 C9      -3.8578   6.2087  14.1978   C.3       1 RES1   0.0000
    10 C10     -2.3915   6.1241  13.8936   C.3       1 RES1   0.0000
    11 C11     -1.7968   7.2536  13.0864   C.2       1 RES1   0.0000
    12 O12     -2.5253   8.1878  12.7134   O.co2     1 RES1   0.0000
    13 O13     -0.5712   7.2881  12.8381   O.co2     1 RES1  -1.0000
    14 C14     -4.2389   5.7662  11.7282   C.2       1 RES1   0.0000
    15 C15     -5.0704   5.6395  10.6240   C.2       1 RES1   0.0000
@<TRIPOS>BOND
     1     1     2    1
     2     2     3    2
     3     2     4    2
     4     2     5    1
     5     5     6    2
     6     6     7    1
     7     7     8    2
     8     8     9    1
     9     9    10    1
    10    10    11    1
    11    11    12    2
    12    11    13    1
    13     8    14    1
    14    14    15    2
    15    15     5    1
@<TRIPOS>SUBSTRUCTURE
     1 RES1        1 GROUP             0 ****  ****    0  
@<TRIPOS>MOLECULE
ligand_18
    15    15     1     0     0
SMALL
USER_CHARGES
****
Generated from the CSD

@<TRIPOS>ATOM
     1 N1       4.3624   5.2038  16.2067   N.3       1 RES1   0.0000
     2 S2       3.4428   5.6395  17.4360   S.o2      1 RES1   0.0000
     3 O3       3.4201   4.5987  18.4347   O.2       1 RES1   0.0000
     4 O4       3.7962   6.9803  17.8772   O.2       1 RES1   0.0000
     5 C5       1.7720   5.7807  16.8438   C.2       1 RES1   0.0000
     6 C6       1.3142   7.0009  16.3448   C.2       1 RES1   0.0000
     7 C7       0.0125   7.1162  15.8980   C.2       1 RES1   0.0000
     8 C8      -0.8455   6.0330  15.8646   C.2       1 RES1   0.0000
     9 C9      -2.2421   6.2313  15.3848   C.3       1 RES1   0.0000
    10 C10     -2.3920   6.1030  13.8980   C.3       1 RES1   0.0000
    11 C11     -1.7880   7.2010  13.0550   C.2       1 RES1   0.0000
    12 O12     -2.5090   8.1280  12.6510   O.co2     1 RES1   0.0000
    13 O13     -0.5620   7.2180  12.8070   O.co2     1 RES1  -1.0000
    14 C14     -0.3670   4.8242  16.3565   C.2       1 RES1   0.0000
    15 C15      0.9122   4.6855  16.8774   C.2       1 RES1   0.0000
@<TRIPOS>BOND
     1     1     2    1
     2     2     3    2
     3     2     4    2
     4     2     5    1
     5     5     6    2
     6     6     7    1
     7     7     8    2
     8     8     9    1
     9     9    10    1
    10    10    11    1
    11    11    12    2
    12    11    13    1
    13     8    14    1
    14    14    15    2
    15    15     5    1
@<TRIPOS>SUBSTRUCTURE
     1 RES1        1 GROUP             0 ****  ****    0  
@<TRIPOS>MOLECULE
ligand_19
    15    15     1     0     0
SMALL
USER_CHARGES
****
Generated from the CSD

@<TRIPOS>ATOM
     1 N1       3.4426   5.9974  18.9913   N.3       1 RES1   0.0000
     2 S2       3.4428   5.6395  17.4360   S.o2      1 RES1   0.0000
     3 O3       4.2057   6.6177  16.6997   O.2       1 RES1   0.0000
     4 O4       3.7893   4.2395  17.2430   O.2       1 RES1   0.0000
     5 C5       1.7720   5.7807  16.8438   C.2       1 RES1   0.0000
     6 C6       1.3142   7.0009  16.3448   C.2       1 RES1   0.0000
     7 C7       0.0125   7.1162  15.8980   C.2       1 RES1   0.0000
     8 C8      -0.8455   6.0330  15.8646   C.2       1 RES1   0.0000
     9 C9      -2.2421   6.2313  15.3848   C.3       1 RES1   0.0000
    10 C10     -2.3920   6.1030  13.8980   C.3       1 RES1   0.0000
    11 C11     -1.7880   7.2010  13.0550   C.2       1 RES1   0.0000
    12 O12     -2.5090   8.1280  12.6510   O.co2     1 RES1   0.0000
    13 O13     -0.5620   7.2180  12.8070   O.co2     1 RES1  -1.0000
    14 C14     -0.3670   4.8242  16.3565   C.2       1 RES1   0.0000
    15 C15      0.9122   4.6855  16.8774   C.2       1 RES1   0.0000
@<TRIPOS>BOND
     1     1     2    1
     2     2     3    2
     3     2     4    2
     4     2     5    1
     5     5     6    2
     6     6     7    1
     7     7     8    2
     8     8     9    1
     9     9    10    1
    10    10    11    1
    11    11    12    2
    12    11    13    1
    13     8    14    1
    14    14    15    2
    15    15     5    1
@<TRIPOS>SUBSTRUCTURE
     1 RES1        1 GROUP             0 ****  ****    0  
@<TRIPOS>MOLECULE
ligand_20
    15    15     1     0     0
SMALL
USER_CHARGES
****
Generated from the CSD

@<TRIPOS>ATOM
     1 N1      -6.3567  11.3834  16.7545   N.3       1 RES1   0.0000
     2 S2      -5.6567  10.5604  17.9291   S.o2      1 RES1   0.0000
     3 O3      -4.7626  11.4148  18.6719   O.2       1 RES1   0.0000
     4 O4      -6.6539   9.8188  18.6861   O.2       1 RES1   0.0000
     5 C5      -4.6304   9.3136  17.1847   C.2       1 RES1   0.0000
     6 C6      -5.1616   8.0534  16.9071   C.2       1 RES1   0.0000
     7 C7      -4.3619   7.0793  16.3422   C.2       1 RES1   0.0000
     8 C8      -3.0536   7.3325  15.9752   C.2       1 RES1   0.0000
     9 C9      -2.2421   6.2313  15.3848   C.3       1 RES1   0.0000
    10 C10     -2.3920   6.1030  13.8980   C.3       1 RES1   0.0000
    11 C11     -1.7880   7.2010  13.0550   C.2       1 RES1   0.0000
    12 O12     -2.5090   8.1280  12.6510   O.co2     1 RES1   0.0000
    13 O13     -0.5620   7.2180  12.8070   O.co2     1 RES1  -1.0000
    14 C14     -2.5466   8.5971  16.2509   C.2       1 RES1   0.0000
    15 C15     -3.2979   9.5805  16.8797   C.2       1 RES1   0.0000
@<TRIPOS>BOND
     1     1     2    1
     2     2     3    2
     3     2     4    2
     4     2     5    1
     5     5     6    2
     6     6     7    1
     7     7     8    2
     8     8     9    1
     9     9    10    1
    10    10    11    1
    11    11    12    2
    12    11    13    1
    13     8    14    1
    14    14    15    2
    15    15     5    1
@<TRIPOS>SUBSTRUCTURE
     1 RES1        1 GROUP             0 ****  ****    0  
@<TRIPOS>MOLECULE
ligand_21
    15    15     1     0     0
SMALL
USER_CHARGES
****
Generated from the CSD

@<TRIPOS>ATOM
     1 N1      -5.5216  10.4236  19.5134   N.3       1 RES1   0.0000
     2 S2      -5.6567  10.5604  17.9291   S.o2      1 RES1   0.0000
     3 O3      -7.0056  10.2585  17.5161   O.2       1 RES1   0.0000
     4 O4      -5.0895  11.8244  17.4840   O.2       1 RES1   0.0000
     5 C5      -4.6304   9.3136  17.1847   C.2       1 RES1   0.0000
     6 C6      -5.1616   8.0534  16.9071   C.2       1 RES1   0.0000
     7 C7      -4.3619   7.0793  16.3422   C.2       1 RES1   0.0000
     8 C8      -3.0536   7.3325  15.9752   C.2       1 RES1   0.0000
     9 C9      -2.2421   6.2313  15.3848   C.3       1 RES1   0.0000
    10 C10     -2.3920   6.1030  13.8980   C.3       1 RES1   0.0000
    11 C11     -1.7880   7.2010  13.0550   C.2       1 RES1   0.0000
    12 O12     -2.5090   8.1280  12.6510   O.co2     1 RES1   0.0000
    13 O13     -0.5620   7.2180  12.8070   O.co2     1 RES1  -1.0000
    14 C14     -2.5466   8.5971  16.2509   C.2       1 RES1   0.0000
    15 C15     -3.2979   9.5805  16.8797   C.2       1 RES1   0.0000
@<TRIPOS>BOND
     1     1     2    1
     2     2     3    2
     3     2     4    2
     4     2     5    1
     5     5     6    2
     6     6     7    1
     7     7     8    2
     8     8     9    1
     9     9    10    1
    10    10    11    1
    11    11    12    2
    12    11    13    1
    13     8    14    1
    14    14    15    2
    15    15     5    1
@<TRIPOS>SUBSTRUCTURE
     1 RES1        1 GROUP             0 ****  ****    0  
@<TRIPOS>MOLECULE
ligand_22
    15    15     1     0     0
SMALL
USER_CHARGES
****
Generated from the CSD

@<TRIPOS>ATOM
     1 N1      -5.8958   1.8353  18.6920   N.3       1 RES1   0.0000
     2 S2      -6.1844   1.4260  17.1768   S.o2      1 RES1   0.0000
     3 O3      -5.4924   0.2029  16.8506   O.2       1 RES1   0.0000
     4 O4      -7.6132   1.4771  16.9061   O.2       1 RES1   0.0000
     5 C5      -5.4777   2.6777  16.1298   C.2       1 RES1   0.0000
     6 C6      -5.9126   3.9992  16.2389   C.2       1 RES1   0.0000
     7 C7      -5.3752   4.9700  15.4165   C.2       1 RES1   0.0000
     8 C8      -4.3594   4.6877  14.5226   C.2       1 RES1   0.0000
     9 C9      -3.8361   5.7795  13.6543   C.3       1 RES1   0.0000
    10 C10     -2.3920   6.1030  13.8980   C.3       1 RES1   0.0000
    11 C11     -1.7880   7.2010  13.0550   C.2       1 RES1   0.0000
    12 O12     -2.5090   8.1280  12.6510   O.co2     1 RES1   0.0000
    13 O13     -0.5620   7.2180  12.8070   O.co2     1 RES1  -1.0000
    14 C14     -3.9334   3.3673  14.4366   C.2       1 RES1   0.0000
    15 C15     -4.4963   2.3515  15.1969   C.2       1 RES1   0.0000
@<TRIPOS>BOND
     1     1     2    1
     2     2     3    2
     3     2     4    2
     4     2     5    1
     5     5     6    2
     6     6     7    1
     7     7     8    2
     8     8     9    1
     9     9    10    1
    10    10    11    1
    11    11    12    2
    12    11    13    1
    13     8    14    1
    14    14    15    2
    15    15     5    1
@<TRIPOS>SUBSTRUCTURE
     1 RES1        1 GROUP             0 ****  ****    0  
@<TRIPOS>MOLECULE
ligand_23
    15    15     1     0     0
SMALL
USER_CHARGES
****
Generated from the CSD

@<TRIPOS>ATOM
     1 N1      -6.8618   0.3278  16.2376   N.3       1 RES1   0.0000
     2 S2      -6.1844   1.4260  17.1768   S.o2      1 RES1   0.0000
     3 O3      -7.1894   2.0945  17.9667   O.2       1 RES1   0.0000
     4 O4      -5.0516   0.8505  17.8860   O.2       1 RES1   0.0000
     5 C5      -5.4777   2.6777  16.1298   C.2       1 RES1   0.0000
     6 C6      -5.9126   3.9992  16.2389   C.2       1 RES1   0.0000
     7 C7      -5.3752   4.9700  15.4165   C.2       1 RES1   0.0000
     8 C8      -4.3594   4.6877  14.5226   C.2       1 RES1   0.0000
     9 C9      -3.8361   5.7795  13.6543   C.3       1 RES1   0.0000
    10 C10     -2.3920   6.1030  13.8980   C.3       1 RES1   0.0000
    11 C11     -1.7880   7.2010  13.0550   C.2       1 RES1   0.0000
    12 O12     -2.5090   8.1280  12.6510   O.co2     1 RES1   0.0000
    13 O13     -0.5620   7.2180  12.8070   O.co2     1 RES1  -1.0000
    14 C14     -3.9334   3.3673  14.4366   C.2       1 RES1   0.0000
    15 C15     -4.4963   2.3515  15.1969   C.2       1 RES1   0.0000
@<TRIPOS>BOND
     1     1     2    1
     2     2     3    2
     3     2     4    2
     4     2     5    1
     5     5     6    2
     6     6     7    1
     7     7     8    2
     8     8     9    1
     9     9    10    1
    10    10    11    1
    11    11    12    2
    12    11    13    1
    13     8    14    1
    14    14    15    2
    15    15     5    1
@<TRIPOS>SUBSTRUCTURE
     1 RES1        1 GROUP             0 ****  ****    0  
@<TRIPOS>MOLECULE
ligand_24
    15    15     1     0     0
SMALL
USER_CHARGES
****
Generated from the CSD

@<TRIPOS>ATOM
     1 N1      -4.8613  12.0852  17.3021   N.3       1 RES1   0.0000
     2 S2      -5.4602  10.7376  17.9121   S.o2      1 RES1   0.0000
     3 O3      -4.8602  10.4614  19.1946   O.2       1 RES1   0.0000
     4 O4      -6.9137  10.7589  17.8458   O.2       1 RES1   0.0000
     5 C5      -4.9757   9.3960  16.8503   C.2       1 RES1   0.0000
     6 C6      -5.3683   9.3953  15.5111   C.2       1 RES1   0.0000
     7 C7      -5.0052   8.3469  14.6887   C.2       1 RES1   0.0000
     8 C8      -4.1986   7.3165  15.1340   C.2       1 RES1   0.0000
     9 C9      -3.8578   6.2087  14.1978   C.3       1 RES1   0.0000
    10 C10     -2.3920   6.1030  13.8980   C.3       1 RES1   0.0000
    11 C11     -1.7880   7.2010  13.0550   C.2       1 RES1   0.0000
    12 O12     -2.5090   8.1280  12.6510   O.co2     1 RES1   0.0000
    13 O13     -0.5620   7.2180  12.8070   O.co2     1 RES1  -1.0000
    14 C14     -3.8099   7.3412  16.4683   C.2       1 RES1   0.0000
    15 C15     -4.2112   8.3414  17.3432   C.2       1 RES1   0.0000
@<TRIPOS>BOND
     1     1     2    1
     2     2     3    2
     3     2     4    2
     4     2     5    1
     5     5     6    2
     6     6     7    1
     7     7     8    2
     8     8     9    1
     9     9    10    1
    10    10    11    1
    11    11    12    2
    12    11    13    1
    13     8    14    1
    14    14    15    2
    15    15     5    1
@<TRIPOS>SUBSTRUCTURE
     1 RES1        1 GROUP             0 ****  ****    0  
@<TRIPOS>MOLECULE
ligand_25
    15    15     1     0     0
SMALL
USER_CHARGES
****
Generated from the CSD

@<TRIPOS>ATOM
     1 N1      -6.3258  10.1283  19.1064   N.3       1 RES1   0.0000
     2 S2      -5.4602  10.7376  17.9121   S.o2      1 RES1   0.0000
     3 O3      -6.2748  11.6083  17.1000   O.2       1 RES1   0.0000
     4 O4      -4.2097  11.2784  18.4232   O.2       1 RES1   0.0000
     5 C5      -4.9757   9.3960  16.8503   C.2       1 RES1   0.0000
     6 C6      -5.3683   9.3953  15.5111   C.2       1 RES1   0.0000
     7 C7      -5.0052   8.3469  14.6887   C.2       1 RES1   0.0000
     8 C8      -4.1986   7.3165  15.1340   C.2       1 RES1   0.0000
     9 C9      -3.8578   6.2087  14.1978   C.3       1 RES1   0.0000
    10 C10     -2.3920   6.1030  13.8980   C.3       1 RES1   0.0000
    11 C11     -1.7880   7.2010  13.0550   C.2       1 RES1   0.0000
    12 O12     -2.5090   8.1280  12.6510   O.co2     1 RES1   0.0000
    13 O13     -0.5620   7.2180  12.8070   O.co2     1 RES1  -1.0000
    14 C14     -3.8099   7.3412  16.4683   C.2       1 RES1   0.0000
    15 C15     -4.2112   8.3414  17.3432   C.2       1 RES1   0.0000
@<TRIPOS>BOND
     1     1     2    1
     2     2     3    2
     3     2     4    2
     4     2     5    1
     5     5     6    2
     6     6     7    1
     7     7     8    2
     8     8     9    1
     9     9    10    1
    10    10    11    1
    11    11    12    2
    12    11    13    1
    13     8    14    1
    14    14    15    2
    15    15     5    1
@<TRIPOS>SUBSTRUCTURE
     1 RES1        1 GROUP             0 ****  ****    0  
@<TRIPOS>MOLECULE
ligand_26
    15    15     1     0     0
SMALL
USER_CHARGES
****
Generated from the CSD

@<TRIPOS>ATOM
     1 N1      -7.1818   3.7790   8.8851   N.3       1 RES1   0.0000
     2 S2      -7.5790   5.1937   9.5077   S.o2      1 RES1   0.0000
     3 O3      -7.3419   6.2446   8.5482   O.2       1 RES1   0.0000
     4 O4      -8.9026   5.1243  10.1082   O.2       1 RES1   0.0000
     5 C5      -6.4792   5.5196  10.8665   C.2       1 RES1   0.0000
     6 C6      -6.4391   4.6429  11.9515   C.2       1 RES1   0.0000
     7 C7      -5.5960   4.9022  13.0142   C.2       1 RES1   0.0000
     8 C8      -4.7292   5.9788  13.0114   C.2       1 RES1   0.0000
     9 C9      -3.8578   6.2087  14.1978   C.3       1 RES1   0.0000
    10 C10     -2.3946   6.0462  13.9109   C.3       1 RES1   0.0000
    11 C11     -1.6993   7.2058  13.2379   C.2       1 RES1   0.0000
    12 O12     -2.3269   8.2570  13.0293   O.co2     1 RES1   0.0000
    13 O13     -0.4860   7.1405  12.9402   O.co2     1 RES1  -1.0000
    14 C14     -4.7774   6.8342  11.9168   C.2       1 RES1   0.0000
    15 C15     -5.6592   6.6454  10.8615   C.2       1 RES1   0.0000
@<TRIPOS>BOND
     1     1     2    1
     2     2     3    2
     3     2     4    2
     4     2     5    1
     5     5     6    2
     6     6     7    1
     7     7     8    2
     8     8     9    1
     9     9    10    1
    10    10    11    1
    11    11    12    2
    12    11    13    1
    13     8    14    1
    14    14    15    2
    15    15     5    1
@<TRIPOS>SUBSTRUCTURE
     1 RES1        1 GROUP             0 ****  ****    0  
@<TRIPOS>MOLECULE
ligand_27
    15    15     1     0     0
SMALL
USER_CHARGES
****
Generated from the CSD

@<TRIPOS>ATOM
     1 N1      -8.5814   6.4291   9.3825   N.3       1 RES1   0.0000
     2 S2      -7.5790   5.1937   9.5077   S.o2      1 RES1   0.0000
     3 O3      -8.3034   3.9985   9.8651   O.2       1 RES1   0.0000
     4 O4      -6.7162   5.1266   8.3379   O.2       1 RES1   0.0000
     5 C5      -6.4792   5.5196  10.8665   C.2       1 RES1   0.0000
     6 C6      -6.4391   4.6429  11.9515   C.2       1 RES1   0.0000
     7 C7      -5.5960   4.9022  13.0142   C.2       1 RES1   0.0000
     8 C8      -4.7292   5.9788  13.0114   C.2       1 RES1   0.0000
     9 C9      -3.8578   6.2087  14.1978   C.3       1 RES1   0.0000
    10 C10     -2.3946   6.0462  13.9109   C.3       1 RES1   0.0000
    11 C11     -1.6993   7.2058  13.2379   C.2       1 RES1   0.0000
    12 O12     -2.3269   8.2570  13.0293   O.co2     1 RES1   0.0000
    13 O13     -0.4860   7.1405  12.9402   O.co2     1 RES1  -1.0000
    14 C14     -4.7774   6.8342  11.9168   C.2       1 RES1   0.0000
    15 C15     -5.6592   6.6454  10.8615   C.2       1 RES1   0.0000
@<TRIPOS>BOND
     1     1     2    1
     2     2     3    2
     3     2     4    2
     4     2     5    1
     5     5     6    2
     6     6     7    1
     7     7     8    2
     8     8     9    1
     9     9    10    1
    10    10    11    1
    11    11    12    2
    12    11    13    1
    13     8    14    1
    14    14    15    2
    15    15     5    1
@<TRIPOS>SUBSTRUCTURE
     1 RES1        1 GROUP             0 ****  ****    0  
@<TRIPOS>MOLECULE
ligand_28
    15    15     1     0     0
SMALL
USER_CHARGES
****
Generated from the CSD

@<TRIPOS>ATOM
     1 N1      -5.6759   2.0594  19.4017   N.3       1 RES1   0.0000
     2 S2      -5.9017   1.7987  17.8435   S.o2      1 RES1   0.0000
     3 O3      -5.1726   0.6269  17.4236   O.2       1 RES1   0.0000
     4 O4      -7.3207   1.8513  17.5260   O.2       1 RES1   0.0000
     5 C5      -5.1852   3.1612  16.9533   C.2       1 RES1   0.0000
     6 C6      -5.9890   3.9505  16.1297   C.2       1 RES1   0.0000
     7 C7      -5.4314   5.0002  15.4264   C.2       1 RES1   0.0000
     8 C8      -4.0994   5.3433  15.5628   C.2       1 RES1   0.0000
     9 C9      -3.5592   6.4777  14.7622   C.3       1 RES1   0.0000
    10 C10     -2.3920   6.1030  13.8980   C.3       1 RES1   0.0000
    11 C11     -1.7880   7.2010  13.0550   C.2       1 RES1   0.0000
    12 O12     -2.5090   8.1280  12.6510   O.co2     1 RES1   0.0000
    13 O13     -0.5620   7.2180  12.8070   O.co2     1 RES1  -1.0000
    14 C14     -3.3182   4.5509  16.3959   C.2       1 RES1   0.0000
    15 C15     -3.8266   3.4466  17.0659   C.2       1 RES1   0.0000
@<TRIPOS>BOND
     1     1     2    1
     2     2     3    2
     3     2     4    2
     4     2     5    1
     5     5     6    2
     6     6     7    1
     7     7     8    2
     8     8     9    1
     9     9    10    1
    10    10    11    1
    11    11    12    2
    12    11    13    1
    13     8    14    1
    14    14    15    2
    15    15     5    1
@<TRIPOS>SUBSTRUCTURE
     1 RES1        1 GROUP             0 ****  ****    0  
@<TRIPOS>MOLECULE
ligand_29
    15    15     1     0     0
SMALL
USER_CHARGES
****
Generated from the CSD

@<TRIPOS>ATOM
     1 N1      -6.5217   0.7882  16.7752   N.3       1 RES1   0.0000
     2 S2      -5.9017   1.7987  17.8435   S.o2      1 RES1   0.0000
     3 O3      -6.9482   2.3669  18.6578   O.2       1 RES1   0.0000
     4 O4      -4.7827   1.1753  18.5340   O.2       1 RES1   0.0000
     5 C5      -5.1852   3.1612  16.9533   C.2       1 RES1   0.0000
     6 C6      -5.9890   3.9505  16.1297   C.2       1 RES1   0.0000
     7 C7      -5.4314   5.0002  15.4264   C.2       1 RES1   0.0000
     8 C8      -4.0994   5.3433  15.5628   C.2       1 RES1   0.0000
     9 C9      -3.5592   6.4777  14.7622   C.3       1 RES1   0.0000
    10 C10     -2.3920   6.1030  13.8980   C.3       1 RES1   0.0000
    11 C11     -1.7880   7.2010  13.0550   C.2       1 RES1   0.0000
    12 O12     -2.5090   8.1280  12.6510   O.co2     1 RES1   0.0000
    13 O13     -0.5620   7.2180  12.8070   O.co2     1 RES1  -1.0000
    14 C14     -3.3182   4.5509  16.3959   C.2       1 RES1   0.0000
    15 C15     -3.8266   3.4466  17.0659   C.2       1 RES1   0.0000
@<TRIPOS>BOND
     1     1     2    1
     2     2     3    2
     3     2     4    2
     4     2     5    1
     5     5     6    2
     6     6     7    1
     7     7     8    2
     8     8     9    1
     9     9    10    1
    10    10    11    1
    11    11    12    2
    12    11    13    1
    13     8    14    1
    14    14    15    2
    15    15     5    1
@<TRIPOS>SUBSTRUCTURE
     1 RES1        1 GROUP             0 ****  ****    0  
@<TRIPOS>MOLECULE
ligand_30
    15    15     1     0     0
SMALL
USER_CHARGES
****
Generated from the CSD

@<TRIPOS>ATOM
     1 N1       2.8868  10.5656  15.8930   N.3       1 RES1   0.0000
     2 S2       2.0869  10.0887  17.1890   S.o2      1 RES1   0.0000
     3 O3       2.9602   9.3535  18.0710   O.2       1 RES1   0.0000
     4 O4       1.3457  11.2031  17.7600   O.2       1 RES1   0.0000
     5 C5       0.8404   8.9334  16.6658   C.2       1 RES1   0.0000
     6 C6      -0.4287   9.3950  16.3141   C.2       1 RES1   0.0000
     7 C7      -1.4023   8.4976  15.9215   C.2       1 RES1   0.0000
     8 C8      -1.1411   7.1459  15.7984   C.2       1 RES1   0.0000
     9 C9      -2.2421   6.2313  15.3848   C.3       1 RES1   0.0000
    10 C10     -2.3867   6.0966  13.8980   C.3       1 RES1   0.0000
    11 C11     -1.7763   7.1890  13.0523   C.2       1 RES1   0.0000
    12 O12     -2.4931   8.1162  12.6414   O.co2     1 RES1   0.0000
    13 O13     -0.5493   7.2013  12.8089   O.co2     1 RES1  -1.0000
    14 C14      0.1321   6.7078  16.1437   C.2       1 RES1   0.0000
    15 C15      1.1164   7.5695  16.6080   C.2       1 RES1   0.0000
@<TRIPOS>BOND
     1     1     2    1
     2     2     3    2
     3     2     4    2
     4     2     5    1
     5     5     6    2
     6     6     7    1
     7     7     8    2
     8     8     9    1
     9     9    10    1
    10    10    11    1
    11    11    12    2
    12    11    13    1
    13     8    14    1
    14    14    15    2
    15    15     5    1
@<TRIPOS>SUBSTRUCTURE
     1 RES1        1 GROUP             0 ****  ****    0  
@<TRIPOS>MOLECULE
ligand_31
    15    15     1     0     0
SMALL
USER_CHARGES
****
Generated from the CSD

@<TRIPOS>ATOM
     1 N1       1.9730  10.2476  18.7728   N.3       1 RES1   0.0000
     2 S2       2.0869  10.0887  17.1890   S.o2      1 RES1   0.0000
     3 O3       1.7659  11.3358  16.5387   O.2       1 RES1   0.0000
     4 O4       3.3503   9.4583  16.8371   O.2       1 RES1   0.0000
     5 C5       0.8404   8.9334  16.6658   C.2       1 RES1   0.0000
     6 C6      -0.4287   9.3950  16.3141   C.2       1 RES1   0.0000
     7 C7      -1.4023   8.4976  15.9215   C.2       1 RES1   0.0000
     8 C8      -1.1411   7.1459  15.7984   C.2       1 RES1   0.0000
     9 C9      -2.2421   6.2313  15.3848   C.3       1 RES1   0.0000
    10 C10     -2.3867   6.0966  13.8980   C.3       1 RES1   0.0000
    11 C11     -1.7763   7.1890  13.0523   C.2       1 RES1   0.0000
    12 O12     -2.4931   8.1162  12.6414   O.co2     1 RES1   0.0000
    13 O13     -0.5493   7.2013  12.8089   O.co2     1 RES1  -1.0000
    14 C14      0.1321   6.7078  16.1437   C.2       1 RES1   0.0000
    15 C15      1.1164   7.5695  16.6080   C.2       1 RES1   0.0000
@<TRIPOS>BOND
     1     1     2    1
     2     2     3    2
     3     2     4    2
     4     2     5    1
     5     5     6    2
     6     6     7    1
     7     7     8    2
     8     8     9    1
     9     9    10    1
    10    10    11    1
    11    11    12    2
    12    11    13    1
    13     8    14    1
    14    14    15    2
    15    15     5    1
@<TRIPOS>SUBSTRUCTURE
     1 RES1        1 GROUP             0 ****  ****    0  
@<TRIPOS>MOLECULE
ligand_32
    15    15     1     0     0
SMALL
USER_CHARGES
****
Generated from the CSD

@<TRIPOS>ATOM
     1 N1      -4.1601   0.9219  18.7460   N.3       1 RES1   0.0000
     2 S2      -5.3170   2.0036  18.5505   S.o2      1 RES1   0.0000
     3 O3      -6.4090   1.4349  17.7985   O.2       1 RES1   0.0000
     4 O4      -5.6385   2.6307  19.8235   O.2       1 RES1   0.0000
     5 C5      -4.6689   3.3196  17.5455   C.2       1 RES1   0.0000
     6 C6      -3.5617   4.0466  17.9849   C.2       1 RES1   0.0000
     7 C7      -3.0659   5.0785  17.2124   C.2       1 RES1   0.0000
     8 C8      -3.5934   5.3779  15.9704   C.2       1 RES1   0.0000
     9 C9      -3.0204   6.5146  15.1962   C.3       1 RES1   0.0000
    10 C10     -2.3920   6.1030  13.8980   C.3       1 RES1   0.0000
    11 C11     -1.7880   7.2010  13.0550   C.2       1 RES1   0.0000
    12 O12     -2.5090   8.1280  12.6510   O.co2     1 RES1   0.0000
    13 O13     -0.5620   7.2180  12.8070   O.co2     1 RES1  -1.0000
    14 C14     -4.6895   4.6354  15.5465   C.2       1 RES1   0.0000
    15 C15     -5.2588   3.6365  16.3242   C.2       1 RES1   0.0000
@<TRIPOS>BOND
     1     1     2    1
     2     2     3    2
     3     2     4    2
     4     2     5    1
     5     5     6    2
     6     6     7    1
     7     7     8    2
     8     8     9    1
     9     9    10    1
    10    10    11    1
    11    11    12    2
    12    11    13    1
    13     8    14    1
    14    14    15    2
    15    15     5    1
@<TRIPOS>SUBSTRUCTURE
     1 RES1        1 GROUP             0 ****  ****    0  
@<TRIPOS>MOLECULE
ligand_33
    15    15     1     0     0
SMALL
USER_CHARGES
****
Generated from the CSD

@<TRIPOS>ATOM
     1 N1      -6.8307   2.3610  18.9080   N.3       1 RES1   0.0000
     2 S2      -5.3170   2.0036  18.5505   S.o2      1 RES1   0.0000
     3 O3      -4.5123   1.9892  19.7477   O.2       1 RES1   0.0000
     4 O4      -5.2671   0.8250  17.6984   O.2       1 RES1   0.0000
     5 C5      -4.6689   3.3196  17.5455   C.2       1 RES1   0.0000
     6 C6      -3.5617   4.0466  17.9849   C.2       1 RES1   0.0000
     7 C7      -3.0659   5.0785  17.2124   C.2       1 RES1   0.0000
     8 C8      -3.5934   5.3779  15.9704   C.2       1 RES1   0.0000
     9 C9      -3.0204   6.5146  15.1962   C.3       1 RES1   0.0000
    10 C10     -2.3920   6.1030  13.8980   C.3       1 RES1   0.0000
    11 C11     -1.7880   7.2010  13.0550   C.2       1 RES1   0.0000
    12 O12     -2.5090   8.1280  12.6510   O.co2     1 RES1   0.0000
    13 O13     -0.5620   7.2180  12.8070   O.co2     1 RES1  -1.0000
    14 C14     -4.6895   4.6354  15.5465   C.2       1 RES1   0.0000
    15 C15     -5.2588   3.6365  16.3242   C.2       1 RES1   0.0000
@<TRIPOS>BOND
     1     1     2    1
     2     2     3    2
     3     2     4    2
     4     2     5    1
     5     5     6    2
     6     6     7    1
     7     7     8    2
     8     8     9    1
     9     9    10    1
    10    10    11    1
    11    11    12    2
    12    11    13    1
    13     8    14    1
    14    14    15    2
    15    15     5    1
@<TRIPOS>SUBSTRUCTURE
     1 RES1        1 GROUP             0 ****  ****    0  
@<TRIPOS>MOLECULE
ligand_34
    15    15     1     0     0
SMALL
USER_CHARGES
****
Generated from the CSD

@<TRIPOS>ATOM
     1 N1      -5.9054   2.2669  19.5735   N.3       1 RES1   0.0000
     2 S2      -5.3917   1.7669  18.1477   S.o2      1 RES1   0.0000
     3 O3      -4.3231   0.8114  18.3100   O.2       1 RES1   0.0000
     4 O4      -6.5198   1.3721  17.3176   O.2       1 RES1   0.0000
     5 C5      -4.6739   3.1601  17.3075   C.2       1 RES1   0.0000
     6 C6      -5.2025   3.5808  16.0864   C.2       1 RES1   0.0000
     7 C7      -4.6371   4.6537  15.4255   C.2       1 RES1   0.0000
     8 C8      -3.5934   5.3779  15.9704   C.2       1 RES1   0.0000
     9 C9      -3.0204   6.5146  15.1962   C.3       1 RES1   0.0000
    10 C10     -2.3920   6.1030  13.8980   C.3       1 RES1   0.0000
    11 C11     -1.7880   7.2010  13.0550   C.2       1 RES1   0.0000
    12 O12     -2.5090   8.1280  12.6510   O.co2     1 RES1   0.0000
    13 O13     -0.5620   7.2180  12.8070   O.co2     1 RES1  -1.0000
    14 C14     -3.0881   4.9488  17.1921   C.2       1 RES1   0.0000
    15 C15     -3.5845   3.8341  17.8539   C.2       1 RES1   0.0000
@<TRIPOS>BOND
     1     1     2    1
     2     2     3    2
     3     2     4    2
     4     2     5    1
     5     5     6    2
     6     6     7    1
     7     7     8    2
     8     8     9    1
     9     9    10    1
    10    10    11    1
    11    11    12    2
    12    11    13    1
    13     8    14    1
    14    14    15    2
    15    15     5    1
@<TRIPOS>SUBSTRUCTURE
     1 RES1        1 GROUP             0 ****  ****    0  
@<TRIPOS>MOLECULE
ligand_35
    15    15     1     0     0
SMALL
USER_CHARGES
****
Generated from the CSD

@<TRIPOS>ATOM
     1 N1      -5.2730   0.5002  17.1843   N.3       1 RES1   0.0000
     2 S2      -5.3917   1.7669  18.1477   S.o2      1 RES1   0.0000
     3 O3      -6.7783   2.1051  18.3576   O.2       1 RES1   0.0000
     4 O4      -4.5644   1.5781  19.3298   O.2       1 RES1   0.0000
     5 C5      -4.6739   3.1601  17.3075   C.2       1 RES1   0.0000
     6 C6      -5.2025   3.5808  16.0864   C.2       1 RES1   0.0000
     7 C7      -4.6371   4.6537  15.4255   C.2       1 RES1   0.0000
     8 C8      -3.5934   5.3779  15.9704   C.2       1 RES1   0.0000
     9 C9      -3.0204   6.5146  15.1962   C.3       1 RES1   0.0000
    10 C10     -2.3920   6.1030  13.8980   C.3       1 RES1   0.0000
    11 C11     -1.7880   7.2010  13.0550   C.2       1 RES1   0.0000
    12 O12     -2.5090   8.1280  12.6510   O.co2     1 RES1   0.0000
    13 O13     -0.5620   7.2180  12.8070   O.co2     1 RES1  -1.0000
    14 C14     -3.0881   4.9488  17.1921   C.2       1 RES1   0.0000
    15 C15     -3.5845   3.8341  17.8539   C.2       1 RES1   0.0000
@<TRIPOS>BOND
     1     1     2    1
     2     2     3    2
     3     2     4    2
     4     2     5    1
     5     5     6    2
     6     6     7    1
     7     7     8    2
     8     8     9    1
     9     9    10    1
    10    10    11    1
    11    11    12    2
    12    11    13    1
    13     8    14    1
    14    14    15    2
    15    15     5    1
@<TRIPOS>SUBSTRUCTURE
     1 RES1        1 GROUP             0 ****  ****    0  
@<TRIPOS>MOLECULE
ligand_36
    15    15     1     0     0
SMALL
USER_CHARGES
****
Generated from the CSD

@<TRIPOS>ATOM
     1 N1      -8.2560   4.1731   9.5032   N.3       1 RES1   0.0000
     2 S2      -7.3938   5.5023   9.3118   S.o2      1 RES1   0.0000
     3 O3      -6.5071   5.3627   8.1825   O.2       1 RES1   0.0000
     4 O4      -8.2600   6.6712   9.3400   O.2       1 RES1   0.0000
     5 C5      -6.3428   5.6801  10.7352   C.2       1 RES1   0.0000
     6 C6      -6.4526   6.8145  11.5405   C.2       1 RES1   0.0000
     7 C7      -5.6272   6.9611  12.6381   C.2       1 RES1   0.0000
     8 C8      -4.7292   5.9788  13.0114   C.2       1 RES1   0.0000
     9 C9      -3.8578   6.2087  14.1978   C.3       1 RES1   0.0000
    10 C10     -2.3920   6.1030  13.8980   C.3       1 RES1   0.0000
    11 C11     -1.7880   7.2010  13.0550   C.2       1 RES1   0.0000
    12 O12     -2.5090   8.1280  12.6510   O.co2     1 RES1   0.0000
    13 O13     -0.5620   7.2180  12.8070   O.co2     1 RES1  -1.0000
    14 C14     -4.6426   4.8522  12.2018   C.2       1 RES1   0.0000
    15 C15     -5.4061   4.6996  11.0527   C.2       1 RES1   0.0000
@<TRIPOS>BOND
     1     1     2    1
     2     2     3    2
     3     2     4    2
     4     2     5    1
     5     5     6    2
     6     6     7    1
     7     7     8    2
     8     8     9    1
     9     9    10    1
    10    10    11    1
    11    11    12    2
    12    11    13    1
    13     8    14    1
    14    14    15    2
    15    15     5    1
@<TRIPOS>SUBSTRUCTURE
     1 RES1        1 GROUP             0 ****  ****    0  
@<TRIPOS>MOLECULE
ligand_37
    15    15     1     0     0
SMALL
USER_CHARGES
****
Generated from the CSD

@<TRIPOS>ATOM
     1 N1      -7.1099   6.7336   8.3371   N.3       1 RES1   0.0000
     2 S2      -7.3938   5.5023   9.3118   S.o2      1 RES1   0.0000
     3 O3      -8.7461   5.5630   9.8106   O.2       1 RES1   0.0000
     4 O4      -6.9679   4.2589   8.6874   O.2       1 RES1   0.0000
     5 C5      -6.3428   5.6801  10.7352   C.2       1 RES1   0.0000
     6 C6      -6.4526   6.8145  11.5405   C.2       1 RES1   0.0000
     7 C7      -5.6272   6.9611  12.6381   C.2       1 RES1   0.0000
     8 C8      -4.7292   5.9788  13.0114   C.2       1 RES1   0.0000
     9 C9      -3.8578   6.2087  14.1978   C.3       1 RES1   0.0000
    10 C10     -2.3920   6.1030  13.8980   C.3       1 RES1   0.0000
    11 C11     -1.7880   7.2010  13.0550   C.2       1 RES1   0.0000
    12 O12     -2.5090   8.1280  12.6510   O.co2     1 RES1   0.0000
    13 O13     -0.5620   7.2180  12.8070   O.co2     1 RES1  -1.0000
    14 C14     -4.6426   4.8522  12.2018   C.2       1 RES1   0.0000
    15 C15     -5.4061   4.6996  11.0527   C.2       1 RES1   0.0000
@<TRIPOS>BOND
     1     1     2    1
     2     2     3    2
     3     2     4    2
     4     2     5    1
     5     5     6    2
     6     6     7    1
     7     7     8    2
     8     8     9    1
     9     9    10    1
    10    10    11    1
    11    11    12    2
    12    11    13    1
    13     8    14    1
    14    14    15    2
    15    15     5    1
@<TRIPOS>SUBSTRUCTURE
     1 RES1        1 GROUP             0 ****  ****    0  
@<TRIPOS>MOLECULE
ligand_38
    15    15     1     0     0
SMALL
USER_CHARGES
****
Generated from the CSD

@<TRIPOS>ATOM
     1 N1       1.7803   1.3878   9.6808   N.3       1 RES1   0.0000
     2 S2       0.2082   1.2322   9.9073   S.o2      1 RES1   0.0000
     3 O3      -0.5088   1.6471   8.7262   O.2       1 RES1   0.0000
     4 O4      -0.0939  -0.0866  10.4428   O.2       1 RES1   0.0000
     5 C5      -0.2726   2.3656  11.1904   C.2       1 RES1   0.0000
     6 C6      -0.8569   1.8801  12.3610   C.2       1 RES1   0.0000
     7 C7      -1.2442   2.7601  13.3524   C.2       1 RES1   0.0000
     8 C8      -1.0094   4.1187  13.2538   C.2       1 RES1   0.0000
     9 C9      -1.4675   5.0134  14.3536   C.3       1 RES1   0.0000
    10 C10     -2.3789   6.1129  13.8954   C.3       1 RES1   0.0000
    11 C11     -1.7271   7.3171  13.2581   C.2       1 RES1   0.0000
    12 O12     -2.4387   8.2187  12.7857   O.co2     1 RES1   0.0000
    13 O13     -0.4826   7.4439  13.2511   O.co2     1 RES1  -1.0000
    14 C14     -0.4171   4.5809  12.0843   C.2       1 RES1   0.0000
    15 C15     -0.0764   3.7359  11.0370   C.2       1 RES1   0.0000
@<TRIPOS>BOND
     1     1     2    1
     2     2     3    2
     3     2     4    2
     4     2     5    1
     5     5     6    2
     6     6     7    1
     7     7     8    2
     8     8     9    1
     9     9    10    1
    10    10    11    1
    11    11    12    2
    12    11    13    1
    13     8    14    1
    14    14    15    2
    15    15     5    1
@<TRIPOS>SUBSTRUCTURE
     1 RES1        1 GROUP             0 ****  ****    0  
@<TRIPOS>MOLECULE
ligand_39
    15    15     1     0     0
SMALL
USER_CHARGES
****
Generated from the CSD

@<TRIPOS>ATOM
     1 N1      -1.0992   0.4529   9.4276   N.3       1 RES1   0.0000
     2 S2       0.2082   1.2322   9.9073   S.o2      1 RES1   0.0000
     3 O3       1.1382   0.3152  10.5198   O.2       1 RES1   0.0000
     4 O4       0.7118   2.0762   8.8342   O.2       1 RES1   0.0000
     5 C5      -0.2726   2.3656  11.1904   C.2       1 RES1   0.0000
     6 C6      -0.8569   1.8801  12.3610   C.2       1 RES1   0.0000
     7 C7      -1.2442   2.7601  13.3524   C.2       1 RES1   0.0000
     8 C8      -1.0094   4.1187  13.2538   C.2       1 RES1   0.0000
     9 C9      -1.4675   5.0134  14.3536   C.3       1 RES1   0.0000
    10 C10     -2.3789   6.1129  13.8954   C.3       1 RES1   0.0000
    11 C11     -1.7271   7.3171  13.2581   C.2       1 RES1   0.0000
    12 O12     -2.4387   8.2187  12.7857   O.co2     1 RES1   0.0000
    13 O13     -0.4826   7.4439  13.2511   O.co2     1 RES1  -1.0000
    14 C14     -0.4171   4.5809  12.0843   C.2       1 RES1   0.0000
    15 C15     -0.0764   3.7359  11.0370   C.2       1 RES1   0.0000
@<TRIPOS>BOND
     1     1     2    1
     2     2     3    2
     3     2     4    2
     4     2     5    1
     5     5     6    2
     6     6     7    1
     7     7     8    2
     8     8     9    1
     9     9    10    1
    10    10    11    1
    11    11    12    2
    12    11    13    1
    13     8    14    1
    14    14    15    2
    15    15     5    1
@<TRIPOS>SUBSTRUCTURE
     1 RES1        1 GROUP             0 ****  ****    0  
@<TRIPOS>MOLECULE
ligand_40
    15    15     1     0     0
SMALL
USER_CHARGES
****
Generated from the CSD

@<TRIPOS>ATOM
     1 N1      -7.0655   1.1459  17.2162   N.3       1 RES1   0.0000
     2 S2      -5.5513   0.8256  16.8270   S.o2      1 RES1   0.0000
     3 O3      -4.7223   0.8276  18.0076   O.2       1 RES1   0.0000
     4 O4      -5.4906  -0.3494  15.9708   O.2       1 RES1   0.0000
     5 C5      -4.9553   2.1591  15.8129   C.2       1 RES1   0.0000
     6 C6      -4.5122   1.8988  14.5154   C.2       1 RES1   0.0000
     7 C7      -4.0355   2.9311  13.7315   C.2       1 RES1   0.0000
     8 C8      -4.0439   4.2423  14.1686   C.2       1 RES1   0.0000
     9 C9      -3.5000   5.3052  13.2773   C.3       1 RES1   0.0000
    10 C10     -2.3920   6.1030  13.8980   C.3       1 RES1   0.0000
    11 C11     -1.7880   7.2010  13.0550   C.2       1 RES1   0.0000
    12 O12     -2.5090   8.1280  12.6510   O.co2     1 RES1   0.0000
    13 O13     -0.5620   7.2180  12.8070   O.co2     1 RES1  -1.0000
    14 C14     -4.4986   4.4817  15.4601   C.2       1 RES1   0.0000
    15 C15     -4.9212   3.4626  16.3025   C.2       1 RES1   0.0000
@<TRIPOS>BOND
     1     1     2    1
     2     2     3    2
     3     2     4    2
     4     2     5    1
     5     5     6    2
     6     6     7    1
     7     7     8    2
     8     8     9    1
     9     9    10    1
    10    10    11    1
    11    11    12    2
    12    11    13    1
    13     8    14    1
    14    14    15    2
    15    15     5    1
@<TRIPOS>SUBSTRUCTURE
     1 RES1        1 GROUP             0 ****  ****    0  
@<TRIPOS>MOLECULE
ligand_41
    15    15     1     0     0
SMALL
USER_CHARGES
****
Generated from the CSD

@<TRIPOS>ATOM
     1 N1      -4.3651  -0.2286  16.9960   N.3       1 RES1   0.0000
     2 S2      -5.5513   0.8256  16.8270   S.o2      1 RES1   0.0000
     3 O3      -6.6444   0.2327  16.0957   O.2       1 RES1   0.0000
     4 O4      -5.8618   1.4419  18.1081   O.2       1 RES1   0.0000
     5 C5      -4.9553   2.1591  15.8129   C.2       1 RES1   0.0000
     6 C6      -4.5122   1.8988  14.5154   C.2       1 RES1   0.0000
     7 C7      -4.0355   2.9311  13.7315   C.2       1 RES1   0.0000
     8 C8      -4.0439   4.2423  14.1686   C.2       1 RES1   0.0000
     9 C9      -3.5000   5.3052  13.2773   C.3       1 RES1   0.0000
    10 C10     -2.3920   6.1030  13.8980   C.3       1 RES1   0.0000
    11 C11     -1.7880   7.2010  13.0550   C.2       1 RES1   0.0000
    12 O12     -2.5090   8.1280  12.6510   O.co2     1 RES1   0.0000
    13 O13     -0.5620   7.2180  12.8070   O.co2     1 RES1  -1.0000
    14 C14     -4.4986   4.4817  15.4601   C.2       1 RES1   0.0000
    15 C15     -4.9212   3.4626  16.3025   C.2       1 RES1   0.0000
@<TRIPOS>BOND
     1     1     2    1
     2     2     3    2
     3     2     4    2
     4     2     5    1
     5     5     6    2
     6     6     7    1
     7     7     8    2
     8     8     9    1
     9     9    10    1
    10    10    11    1
    11    11    12    2
    12    11    13    1
    13     8    14    1
    14    14    15    2
    15    15     5    1
@<TRIPOS>SUBSTRUCTURE
     1 RES1        1 GROUP             0 ****  ****    0  
@<TRIPOS>MOLECULE
ligand_42
    15    15     1     0     0
SMALL
USER_CHARGES
****
Generated from the CSD

@<TRIPOS>ATOM
     1 N1      -4.5333   0.6711  17.9250   N.3       1 RES1   0.0000
     2 S2      -5.7784   1.6473  17.7163   S.o2      1 RES1   0.0000
     3 O3      -6.8196   0.9760  16.9772   O.2       1 RES1   0.0000
     4 O4      -6.1494   2.2653  18.9804   O.2       1 RES1   0.0000
     5 C5      -5.2464   2.9973  16.6884   C.2       1 RES1   0.0000
     6 C6      -3.9296   3.0414  16.2286   C.2       1 RES1   0.0000
     7 C7      -3.5108   4.0967  15.4422   C.2       1 RES1   0.0000
     8 C8      -4.3798   5.0907  15.0329   C.2       1 RES1   0.0000
     9 C9      -3.8578   6.2087  14.1978   C.3       1 RES1   0.0000
    10 C10     -2.3920   6.1030  13.8980   C.3       1 RES1   0.0000
    11 C11     -1.7880   7.2010  13.0550   C.2       1 RES1   0.0000
    12 O12     -2.5090   8.1280  12.6510   O.co2     1 RES1   0.0000
    13 O13     -0.5620   7.2180  12.8070   O.co2     1 RES1  -1.0000
    14 C14     -5.6895   5.0229  15.4934   C.2       1 RES1   0.0000
    15 C15     -6.1305   4.0158  16.3408   C.2       1 RES1   0.0000
@<TRIPOS>BOND
     1     1     2    1
     2     2     3    2
     3     2     4    2
     4     2     5    1
     5     5     6    2
     6     6     7    1
     7     7     8    2
     8     8     9    1
     9     9    10    1
    10    10    11    1
    11    11    12    2
    12    11    13    1
    13     8    14    1
    14    14    15    2
    15    15     5    1
@<TRIPOS>SUBSTRUCTURE
     1 RES1        1 GROUP             0 ****  ****    0  
@<TRIPOS>MOLECULE
ligand_43
    15    15     1     0     0
SMALL
USER_CHARGES
****
Generated from the CSD

@<TRIPOS>ATOM
     1 N1      -7.7235   2.0194  17.7362   N.3       1 RES1   0.0000
     2 S2      -6.1888   1.6635  17.4815   S.o2      1 RES1   0.0000
     3 O3      -5.4659   1.6531  18.7299   O.2       1 RES1   0.0000
     4 O4      -6.0804   0.4831  16.6376   O.2       1 RES1   0.0000
     5 C5      -5.4767   2.9782  16.5189   C.2       1 RES1   0.0000
     6 C6      -6.2665   4.0630  16.1356   C.2       1 RES1   0.0000
     7 C7      -5.7187   5.0779  15.3757   C.2       1 RES1   0.0000
     8 C8      -4.3798   5.0907  15.0329   C.2       1 RES1   0.0000
     9 C9      -3.8578   6.2087  14.1978   C.3       1 RES1   0.0000
    10 C10     -2.3916   6.1040  13.8997   C.3       1 RES1   0.0000
    11 C11     -1.7876   7.2021  13.0568   C.2       1 RES1   0.0000
    12 O12     -2.5089   8.1283  12.6515   O.co2     1 RES1   0.0000
    13 O13     -0.5613   7.2200  12.8101   O.co2     1 RES1  -1.0000
    14 C14     -3.6080   4.0061  15.4332   C.2       1 RES1   0.0000
    15 C15     -4.1375   2.9343  16.1387   C.2       1 RES1   0.0000
@<TRIPOS>BOND
     1     1     2    1
     2     2     3    2
     3     2     4    2
     4     2     5    1
     5     5     6    2
     6     6     7    1
     7     7     8    2
     8     8     9    1
     9     9    10    1
    10    10    11    1
    11    11    12    2
    12    11    13    1
    13     8    14    1
    14    14    15    2
    15    15     5    1
@<TRIPOS>SUBSTRUCTURE
     1 RES1        1 GROUP             0 ****  ****    0  
@<TRIPOS>MOLECULE
ligand_44
    15    15     1     0     0
SMALL
USER_CHARGES
****
Generated from the CSD

@<TRIPOS>ATOM
     1 N1      -4.1680  13.0697  14.1651   N.3       1 RES1   0.0000
     2 S2      -4.6991  12.3433  15.4831   S.o2      1 RES1   0.0000
     3 O3      -4.0643  12.9037  16.6511   O.2       1 RES1   0.0000
     4 O4      -6.1532  12.2888  15.4751   O.2       1 RES1   0.0000
     5 C5      -4.1794  10.6441  15.4161   C.2       1 RES1   0.0000
     6 C6      -5.0029   9.6904  14.8161   C.2       1 RES1   0.0000
     7 C7      -4.6073   8.3678  14.7761   C.2       1 RES1   0.0000
     8 C8      -3.3771   7.9599  15.2565   C.2       1 RES1   0.0000
     9 C9      -3.0204   6.5146  15.1962   C.3       1 RES1   0.0000
    10 C10     -2.3919   6.1030  13.8980   C.3       1 RES1   0.0000
    11 C11     -1.7946   7.2020  13.0515   C.2       1 RES1   0.0000
    12 O12     -2.5302   8.0972  12.6044   O.co2     1 RES1   0.0000
    13 O13     -0.5622   7.2526  12.8431   O.co2     1 RES1  -1.0000
    14 C14     -2.5675   8.9269  15.8410   C.2       1 RES1   0.0000
    15 C15     -2.9590  10.2531  15.9616   C.2       1 RES1   0.0000
@<TRIPOS>BOND
     1     1     2    1
     2     2     3    2
     3     2     4    2
     4     2     5    1
     5     5     6    2
     6     6     7    1
     7     7     8    2
     8     8     9    1
     9     9    10    1
    10    10    11    1
    11    11    12    2
    12    11    13    1
    13     8    14    1
    14    14    15    2
    15    15     5    1
@<TRIPOS>SUBSTRUCTURE
     1 RES1        1 GROUP             0 ****  ****    0  
@<TRIPOS>MOLECULE
ligand_45
    15    15     1     0     0
SMALL
USER_CHARGES
****
Generated from the CSD

@<TRIPOS>ATOM
     1 N1      -5.5162  12.5521  16.8379   N.3       1 RES1   0.0000
     2 S2      -4.6991  12.3433  15.4831   S.o2      1 RES1   0.0000
     3 O3      -5.5641  12.5359  14.3448   O.2       1 RES1   0.0000
     4 O4      -3.4627  13.1098  15.5191   O.2       1 RES1   0.0000
     5 C5      -4.1794  10.6441  15.4161   C.2       1 RES1   0.0000
     6 C6      -5.0029   9.6904  14.8161   C.2       1 RES1   0.0000
     7 C7      -4.6073   8.3678  14.7761   C.2       1 RES1   0.0000
     8 C8      -3.3771   7.9599  15.2565   C.2       1 RES1   0.0000
     9 C9      -3.0204   6.5146  15.1962   C.3       1 RES1   0.0000
    10 C10     -2.3919   6.1030  13.8980   C.3       1 RES1   0.0000
    11 C11     -1.7946   7.2020  13.0515   C.2       1 RES1   0.0000
    12 O12     -2.5302   8.0972  12.6044   O.co2     1 RES1   0.0000
    13 O13     -0.5622   7.2526  12.8431   O.co2     1 RES1  -1.0000
    14 C14     -2.5675   8.9269  15.8410   C.2       1 RES1   0.0000
    15 C15     -2.9590  10.2531  15.9616   C.2       1 RES1   0.0000
@<TRIPOS>BOND
     1     1     2    1
     2     2     3    2
     3     2     4    2
     4     2     5    1
     5     5     6    2
     6     6     7    1
     7     7     8    2
     8     8     9    1
     9     9    10    1
    10    10    11    1
    11    11    12    2
    12    11    13    1
    13     8    14    1
    14    14    15    2
    15    15     5    1
@<TRIPOS>SUBSTRUCTURE
     1 RES1        1 GROUP             0 ****  ****    0  
@<TRIPOS>MOLECULE
ligand_46
    15    15     1     0     0
SMALL
USER_CHARGES
****
Generated from the CSD

@<TRIPOS>ATOM
     1 N1      -3.4588   0.4687  18.5982   N.3       1 RES1   0.0000
     2 S2      -4.5603   1.6235  18.5895   S.o2      1 RES1   0.0000
     3 O3      -5.7359   1.1855  17.8773   O.2       1 RES1   0.0000
     4 O4      -4.7505   2.1462  19.9341   O.2       1 RES1   0.0000
     5 C5      -3.9092   2.9908  17.6574   C.2       1 RES1   0.0000
     6 C6      -2.6344   2.9030  17.0965   C.2       1 RES1   0.0000
     7 C7      -2.1215   3.9695  16.3846   C.2       1 RES1   0.0000
     8 C8      -2.8627   5.1119  16.1475   C.2       1 RES1   0.0000
     9 C9      -2.2421   6.2313  15.3848   C.3       1 RES1   0.0000
    10 C10     -2.3920   6.1030  13.8980   C.3       1 RES1   0.0000
    11 C11     -1.7880   7.2010  13.0550   C.2       1 RES1   0.0000
    12 O12     -2.5090   8.1280  12.6510   O.co2     1 RES1   0.0000
    13 O13     -0.5620   7.2180  12.8070   O.co2     1 RES1  -1.0000
    14 C14     -4.1339   5.1753  16.7061   C.2       1 RES1   0.0000
    15 C15     -4.6577   4.1526  17.4850   C.2       1 RES1   0.0000
@<TRIPOS>BOND
     1     1     2    1
     2     2     3    2
     3     2     4    2
     4     2     5    1
     5     5     6    2
     6     6     7    1
     7     7     8    2
     8     8     9    1
     9     9    10    1
    10    10    11    1
    11    11    12    2
    12    11    13    1
    13     8    14    1
    14    14    15    2
    15    15     5    1
@<TRIPOS>SUBSTRUCTURE
     1 RES1        1 GROUP             0 ****  ****    0  
@<TRIPOS>MOLECULE
ligand_47
    15    15     1     0     0
SMALL
USER_CHARGES
****
Generated from the CSD

@<TRIPOS>ATOM
     1 N1      -6.4247   2.2550  18.8065   N.3       1 RES1   0.0000
     2 S2      -4.9790   1.7212  18.3921   S.o2      1 RES1   0.0000
     3 O3      -4.1818   1.4767  19.5693   O.2       1 RES1   0.0000
     4 O4      -5.1010   0.6353  17.4312   O.2       1 RES1   0.0000
     5 C5      -4.1508   3.0219  17.5065   C.2       1 RES1   0.0000
     6 C6      -4.7990   4.2400  17.2973   C.2       1 RES1   0.0000
     7 C7      -4.1628   5.2461  16.5971   C.2       1 RES1   0.0000
     8 C8      -2.8627   5.1119  16.1475   C.2       1 RES1   0.0000
     9 C9      -2.2421   6.2313  15.3848   C.3       1 RES1   0.0000
    10 C10     -2.3920   6.1030  13.8980   C.3       1 RES1   0.0000
    11 C11     -1.7880   7.2010  13.0550   C.2       1 RES1   0.0000
    12 O12     -2.5090   8.1280  12.6510   O.co2     1 RES1   0.0000
    13 O13     -0.5620   7.2180  12.8070   O.co2     1 RES1  -1.0000
    14 C14     -2.2311   3.8947  16.3749   C.2       1 RES1   0.0000
    15 C15     -2.8614   2.8359  17.0141   C.2       1 RES1   0.0000
@<TRIPOS>BOND
     1     1     2    1
     2     2     3    2
     3     2     4    2
     4     2     5    1
     5     5     6    2
     6     6     7    1
     7     7     8    2
     8     8     9    1
     9     9    10    1
    10    10    11    1
    11    11    12    2
    12    11    13    1
    13     8    14    1
    14    14    15    2
    15    15     5    1
@<TRIPOS>SUBSTRUCTURE
     1 RES1        1 GROUP             0 ****  ****    0  
@<TRIPOS>MOLECULE
ligand_48
    15    15     1     0     0
SMALL
USER_CHARGES
****
Generated from the CSD

@<TRIPOS>ATOM
     1 N1      -3.4861  13.2112  14.6886   N.3       1 RES1   0.0000
     2 S2      -4.2148  12.4135  15.8631   S.o2      1 RES1   0.0000
     3 O3      -3.5650  12.6787  17.1235   O.2       1 RES1   0.0000
     4 O4      -5.6531  12.6243  15.7963   O.2       1 RES1   0.0000
     5 C5      -3.9949  10.6752  15.5597   C.2       1 RES1   0.0000
     6 C6      -4.9332   9.9809  14.7948   C.2       1 RES1   0.0000
     7 C7      -4.7716   8.6278  14.5703   C.2       1 RES1   0.0000
     8 C8      -3.6626   7.9404  15.0265   C.2       1 RES1   0.0000
     9 C9      -3.5592   6.4777  14.7622   C.3       1 RES1   0.0000
    10 C10     -2.3921   6.1030  13.8978   C.3       1 RES1   0.0000
    11 C11     -1.8350   7.1821  12.9999   C.2       1 RES1   0.0000
    12 O12     -2.6009   8.0342  12.5207   O.co2     1 RES1   0.0000
    13 O13     -0.6062   7.2614  12.7794   O.co2     1 RES1  -1.0000
    14 C14     -2.7347   8.6524  15.7776   C.2       1 RES1   0.0000
    15 C15     -2.8966   9.9969  16.0825   C.2       1 RES1   0.0000
@<TRIPOS>BOND
     1     1     2    1
     2     2     3    2
     3     2     4    2
     4     2     5    1
     5     5     6    2
     6     6     7    1
     7     7     8    2
     8     8     9    1
     9     9    10    1
    10    10    11    1
    11    11    12    2
    12    11    13    1
    13     8    14    1
    14    14    15    2
    15    15     5    1
@<TRIPOS>SUBSTRUCTURE
     1 RES1        1 GROUP             0 ****  ****    0  
@<TRIPOS>MOLECULE
ligand_49
    15    15     1     0     0
SMALL
USER_CHARGES
****
Generated from the CSD

@<TRIPOS>ATOM
     1 N1      -5.0645  12.5724  17.2046   N.3       1 RES1   0.0000
     2 S2      -4.2148  12.4135  15.8631   S.o2      1 RES1   0.0000
     3 O3      -4.9621  12.9185  14.7372   O.2       1 RES1   0.0000
     4 O4      -2.8687  12.9310  16.0570   O.2       1 RES1   0.0000
     5 C5      -3.9949  10.6752  15.5597   C.2       1 RES1   0.0000
     6 C6      -4.9332   9.9809  14.7948   C.2       1 RES1   0.0000
     7 C7      -4.7716   8.6278  14.5703   C.2       1 RES1   0.0000
     8 C8      -3.6626   7.9404  15.0265   C.2       1 RES1   0.0000
     9 C9      -3.5592   6.4777  14.7622   C.3       1 RES1   0.0000
    10 C10     -2.3921   6.1030  13.8978   C.3       1 RES1   0.0000
    11 C11     -1.8350   7.1821  12.9999   C.2       1 RES1   0.0000
    12 O12     -2.6009   8.0342  12.5207   O.co2     1 RES1   0.0000
    13 O13     -0.6062   7.2614  12.7794   O.co2     1 RES1  -1.0000
    14 C14     -2.7347   8.6524  15.7776   C.2       1 RES1   0.0000
    15 C15     -2.8966   9.9969  16.0825   C.2       1 RES1   0.0000
@<TRIPOS>BOND
     1     1     2    1
     2     2     3    2
     3     2     4    2
     4     2     5    1
     5     5     6    2
     6     6     7    1
     7     7     8    2
     8     8     9    1
     9     9    10    1
    10    10    11    1
    11    11    12    2
    12    11    13    1
    13     8    14    1
    14    14    15    2
    15    15     5    1
@<TRIPOS>SUBSTRUCTURE
     1 RES1        1 GROUP             0 ****  ****    0  
@<TRIPOS>MOLECULE
ligand_50
    15    15     1     0     0
SMALL
USER_CHARGES
****
Generated from the CSD

@<TRIPOS>ATOM
     1 N1      -7.6685   3.5089   9.3809   N.3       1 RES1   0.0000
     2 S2      -7.5137   5.0942   9.4790   S.o2      1 RES1   0.0000
     3 O3      -6.8349   5.6018   8.3116   O.2       1 RES1   0.0000
     4 O4      -8.7888   5.7028   9.8270   O.2       1 RES1   0.0000
     5 C5      -6.4470   5.4537  10.8556   C.2       1 RES1   0.0000
     6 C6      -5.9206   4.4086  11.6160   C.2       1 RES1   0.0000
     7 C7      -5.1036   4.6866  12.6943   C.2       1 RES1   0.0000
     8 C8      -4.7292   5.9788  13.0114   C.2       1 RES1   0.0000
     9 C9      -3.8578   6.2087  14.1978   C.3       1 RES1   0.0000
    10 C10     -2.3921   6.0989  13.8989   C.3       1 RES1   0.0000
    11 C11     -1.7837   7.1973  13.0596   C.2       1 RES1   0.0000
    12 O12     -2.5007   8.1292  12.6598   O.co2     1 RES1   0.0000
    13 O13     -0.5578   7.2096  12.8107   O.co2     1 RES1  -1.0000
    14 C14     -5.2561   7.0046  12.2354   C.2       1 RES1   0.0000
    15 C15     -6.1346   6.7700  11.1865   C.2       1 RES1   0.0000
@<TRIPOS>BOND
     1     1     2    1
     2     2     3    2
     3     2     4    2
     4     2     5    1
     5     5     6    2
     6     6     7    1
     7     7     8    2
     8     8     9    1
     9     9    10    1
    10    10    11    1
    11    11    12    2
    12    11    13    1
    13     8    14    1
    14    14    15    2
    15    15     5    1
@<TRIPOS>SUBSTRUCTURE
     1 RES1        1 GROUP             0 ****  ****    0  
@<TRIPOS>MOLECULE
ligand_51
    15    15     1     0     0
SMALL
USER_CHARGES
****
Generated from the CSD

@<TRIPOS>ATOM
     1 N1      -7.6284   6.9082   8.6927   N.3       1 RES1   0.0000
     2 S2      -7.2998   5.4505   9.2528   S.o2      1 RES1   0.0000
     3 O3      -8.5099   4.8028   9.6967   O.2       1 RES1   0.0000
     4 O4      -6.4631   4.7263   8.3080   O.2       1 RES1   0.0000
     5 C5      -6.2895   5.6390  10.7040   C.2       1 RES1   0.0000
     6 C6      -5.9361   6.9162  11.1415   C.2       1 RES1   0.0000
     7 C7      -5.1395   7.0640  12.2600   C.2       1 RES1   0.0000
     8 C8      -4.7292   5.9788  13.0114   C.2       1 RES1   0.0000
     9 C9      -3.8578   6.2087  14.1978   C.3       1 RES1   0.0000
    10 C10     -2.3936   6.0633  13.9069   C.3       1 RES1   0.0000
    11 C11     -1.7504   7.1552  13.0854   C.2       1 RES1   0.0000
    12 O12     -2.4362   8.1181  12.7048   O.co2     1 RES1   0.0000
    13 O13     -0.5255   7.1301  12.8325   O.co2     1 RES1  -1.0000
    14 C14     -5.1004   4.7160  12.5645   C.2       1 RES1   0.0000
    15 C15     -5.8423   4.5231  11.4073   C.2       1 RES1   0.0000
@<TRIPOS>BOND
     1     1     2    1
     2     2     3    2
     3     2     4    2
     4     2     5    1
     5     5     6    2
     6     6     7    1
     7     7     8    2
     8     8     9    1
     9     9    10    1
    10    10    11    1
    11    11    12    2
    12    11    13    1
    13     8    14    1
    14    14    15    2
    15    15     5    1
@<TRIPOS>SUBSTRUCTURE
     1 RES1        1 GROUP             0 ****  ****    0  
@<TRIPOS>MOLECULE
ligand_52
    15    15     1     0     0
SMALL
USER_CHARGES
****
Generated from the CSD

@<TRIPOS>ATOM
     1 N1      -5.1759   9.9433  19.6134   N.3       1 RES1   0.0000
     2 S2      -5.1019  10.6271  18.1733   S.o2      1 RES1   0.0000
     3 O3      -6.3938  11.1525  17.8043   O.2       1 RES1   0.0000
     4 O4      -3.9678  11.5363  18.1067   O.2       1 RES1   0.0000
     5 C5      -4.7369   9.3561  16.9844   C.2       1 RES1   0.0000
     6 C6      -4.5735   8.0366  17.4083   C.2       1 RES1   0.0000
     7 C7      -4.2757   7.0507  16.4882   C.2       1 RES1   0.0000
     8 C8      -4.1986   7.3165  15.1340   C.2       1 RES1   0.0000
     9 C9      -3.8578   6.2087  14.1978   C.3       1 RES1   0.0000
    10 C10     -2.3857   6.0589  13.9525   C.3       1 RES1   0.0000
    11 C11     -1.7288   7.1084  13.0875   C.2       1 RES1   0.0000
    12 O12     -2.4192   8.0189  12.6010   O.co2     1 RES1   0.0000
    13 O13     -0.4917   7.1039  12.9023   O.co2     1 RES1  -1.0000
    14 C14     -4.3746   8.6353  14.7313   C.2       1 RES1   0.0000
    15 C15     -4.6073   9.6650  15.6325   C.2       1 RES1   0.0000
@<TRIPOS>BOND
     1     1     2    1
     2     2     3    2
     3     2     4    2
     4     2     5    1
     5     5     6    2
     6     6     7    1
     7     7     8    2
     8     8     9    1
     9     9    10    1
    10    10    11    1
    11    11    12    2
    12    11    13    1
    13     8    14    1
    14    14    15    2
    15    15     5    1
@<TRIPOS>SUBSTRUCTURE
     1 RES1        1 GROUP             0 ****  ****    0  
@<TRIPOS>MOLECULE
ligand_53
    15    15     1     0     0
SMALL
USER_CHARGES
****
Generated from the CSD

@<TRIPOS>ATOM
     1 N1      -5.5047  12.1124  16.9268   N.3       1 RES1   0.0000
     2 S2      -5.3896  10.8140  17.8475   S.o2      1 RES1   0.0000
     3 O3      -4.3055  10.9641  18.7874   O.2       1 RES1   0.0000
     4 O4      -6.6952  10.4621  18.3850   O.2       1 RES1   0.0000
     5 C5      -4.9423   9.4444  16.8051   C.2       1 RES1   0.0000
     6 C6      -4.7616   9.6454  15.4360   C.2       1 RES1   0.0000
     7 C7      -4.4284   8.5800  14.6228   C.2       1 RES1   0.0000
     8 C8      -4.1986   7.3165  15.1340   C.2       1 RES1   0.0000
     9 C9      -3.8578   6.2087  14.1978   C.3       1 RES1   0.0000
    10 C10     -2.3838   6.0345  13.9821   C.3       1 RES1   0.0000
    11 C11     -1.6932   7.0702  13.1268   C.2       1 RES1   0.0000
    12 O12     -2.3600   7.9866  12.6190   O.co2     1 RES1   0.0000
    13 O13     -0.4522   7.0486  12.9706   O.co2     1 RES1  -1.0000
    14 C14     -4.3738   7.1397  16.5015   C.2       1 RES1   0.0000
    15 C15     -4.7748   8.1698  17.3410   C.2       1 RES1   0.0000
@<TRIPOS>BOND
     1     1     2    1
     2     2     3    2
     3     2     4    2
     4     2     5    1
     5     5     6    2
     6     6     7    1
     7     7     8    2
     8     8     9    1
     9     9    10    1
    10    10    11    1
    11    11    12    2
    12    11    13    1
    13     8    14    1
    14    14    15    2
    15    15     5    1
@<TRIPOS>SUBSTRUCTURE
     1 RES1        1 GROUP             0 ****  ****    0  
@<TRIPOS>MOLECULE
ligand_54
    15    15     1     0     0
SMALL
USER_CHARGES
****
Generated from the CSD

@<TRIPOS>ATOM
     1 N1      -7.1830   5.7838   8.1669   N.3       1 RES1   0.0000
     2 S2      -7.6766   5.3074   9.6078   S.o2      1 RES1   0.0000
     3 O3      -8.5327   6.3078  10.1971   O.2       1 RES1   0.0000
     4 O4      -8.1889   3.9471   9.5387   O.2       1 RES1   0.0000
     5 C5      -6.2511   5.2038  10.6657   C.2       1 RES1   0.0000
     6 C6      -5.5363   4.0082  10.7507   C.2       1 RES1   0.0000
     7 C7      -4.4374   3.9217  11.5829   C.2       1 RES1   0.0000
     8 C8      -3.9738   5.0125  12.2940   C.2       1 RES1   0.0000
     9 C9      -2.7919   4.8452  13.1856   C.3       1 RES1   0.0000
    10 C10     -2.3403   6.1206  13.8328   C.3       1 RES1   0.0000
    11 C11     -1.6414   7.1242  12.9465   C.2       1 RES1   0.0000
    12 O12     -2.2856   8.0747  12.4734   O.co2     1 RES1   0.0000
    13 O13     -0.4121   7.0416  12.7299   O.co2     1 RES1  -1.0000
    14 C14     -4.6938   6.1967  12.1877   C.2       1 RES1   0.0000
    15 C15     -5.8424   6.3039  11.4157   C.2       1 RES1   0.0000
@<TRIPOS>BOND
     1     1     2    1
     2     2     3    2
     3     2     4    2
     4     2     5    1
     5     5     6    2
     6     6     7    1
     7     7     8    2
     8     8     9    1
     9     9    10    1
    10    10    11    1
    11    11    12    2
    12    11    13    1
    13     8    14    1
    14    14    15    2
    15    15     5    1
@<TRIPOS>SUBSTRUCTURE
     1 RES1        1 GROUP             0 ****  ****    0  
@<TRIPOS>MOLECULE
ligand_55
    15    15     1     0     0
SMALL
USER_CHARGES
****
Generated from the CSD

@<TRIPOS>ATOM
     1 N1      -8.9547   4.8879  10.4665   N.3       1 RES1   0.0000
     2 S2      -7.6766   5.3074   9.6078   S.o2      1 RES1   0.0000
     3 O3      -7.4521   4.3529   8.5497   O.2       1 RES1   0.0000
     4 O4      -7.7616   6.7110   9.2336   O.2       1 RES1   0.0000
     5 C5      -6.2511   5.2038  10.6657   C.2       1 RES1   0.0000
     6 C6      -5.5363   4.0082  10.7507   C.2       1 RES1   0.0000
     7 C7      -4.4374   3.9217  11.5829   C.2       1 RES1   0.0000
     8 C8      -3.9738   5.0125  12.2940   C.2       1 RES1   0.0000
     9 C9      -2.7919   4.8452  13.1856   C.3       1 RES1   0.0000
    10 C10     -2.3403   6.1206  13.8328   C.3       1 RES1   0.0000
    11 C11     -1.6414   7.1242  12.9465   C.2       1 RES1   0.0000
    12 O12     -2.2856   8.0747  12.4734   O.co2     1 RES1   0.0000
    13 O13     -0.4121   7.0416  12.7299   O.co2     1 RES1  -1.0000
    14 C14     -4.6938   6.1967  12.1877   C.2       1 RES1   0.0000
    15 C15     -5.8424   6.3039  11.4157   C.2       1 RES1   0.0000
@<TRIPOS>BOND
     1     1     2    1
     2     2     3    2
     3     2     4    2
     4     2     5    1
     5     5     6    2
     6     6     7    1
     7     7     8    2
     8     8     9    1
     9     9    10    1
    10    10    11    1
    11    11    12    2
    12    11    13    1
    13     8    14    1
    14    14    15    2
    15    15     5    1
@<TRIPOS>SUBSTRUCTURE
     1 RES1        1 GROUP             0 ****  ****    0  
@<TRIPOS>MOLECULE
ligand_56
    15    15     1     0     0
SMALL
USER_CHARGES
****
Generated from the CSD

@<TRIPOS>ATOM
     1 N1      -6.8327  10.2060  18.2965   N.3       1 RES1   0.0000
     2 S2      -5.3762  10.7573  17.9475   S.o2      1 RES1   0.0000
     3 O3      -5.4643  11.8117  16.9669   O.2       1 RES1   0.0000
     4 O4      -4.6409  11.0426  19.1703   O.2       1 RES1   0.0000
     5 C5      -4.4684   9.4426  17.1667   C.2       1 RES1   0.0000
     6 C6      -3.7158   8.5623  17.9452   C.2       1 RES1   0.0000
     7 C7      -2.9985   7.5496  17.3391   C.2       1 RES1   0.0000
     8 C8      -3.0536   7.3325  15.9752   C.2       1 RES1   0.0000
     9 C9      -2.2421   6.2313  15.3848   C.3       1 RES1   0.0000
    10 C10     -2.3110   6.1681  13.8879   C.3       1 RES1   0.0000
    11 C11     -1.5414   7.2205  13.1254   C.2       1 RES1   0.0000
    12 O12     -2.1374   8.2214  12.6947   O.co2     1 RES1   0.0000
    13 O13     -0.3037   7.1242  12.9719   O.co2     1 RES1  -1.0000
    14 C14     -3.8171   8.2141  15.2189   C.2       1 RES1   0.0000
    15 C15     -4.4967   9.2849  15.7832   C.2       1 RES1   0.0000
@<TRIPOS>BOND
     1     1     2    1
     2     2     3    2
     3     2     4    2
     4     2     5    1
     5     5     6    2
     6     6     7    1
     7     7     8    2
     8     8     9    1
     9     9    10    1
    10    10    11    1
    11    11    12    2
    12    11    13    1
    13     8    14    1
    14    14    15    2
    15    15     5    1
@<TRIPOS>SUBSTRUCTURE
     1 RES1        1 GROUP             0 ****  ****    0  
@<TRIPOS>MOLECULE
ligand_57
    15    15     1     0     0
SMALL
USER_CHARGES
****
Generated from the CSD

@<TRIPOS>ATOM
     1 N1      -4.4194  12.0319  18.0281   N.3       1 RES1   0.0000
     2 S2      -5.3762  10.7573  17.9475   S.o2      1 RES1   0.0000
     3 O3      -5.6904  10.2853  19.2740   O.2       1 RES1   0.0000
     4 O4      -6.4919  11.0227  17.0518   O.2       1 RES1   0.0000
     5 C5      -4.4684   9.4426  17.1667   C.2       1 RES1   0.0000
     6 C6      -3.7158   8.5623  17.9452   C.2       1 RES1   0.0000
     7 C7      -2.9985   7.5496  17.3391   C.2       1 RES1   0.0000
     8 C8      -3.0536   7.3325  15.9752   C.2       1 RES1   0.0000
     9 C9      -2.2421   6.2313  15.3848   C.3       1 RES1   0.0000
    10 C10     -2.3110   6.1681  13.8879   C.3       1 RES1   0.0000
    11 C11     -1.5414   7.2205  13.1254   C.2       1 RES1   0.0000
    12 O12     -2.1374   8.2214  12.6947   O.co2     1 RES1   0.0000
    13 O13     -0.3037   7.1242  12.9719   O.co2     1 RES1  -1.0000
    14 C14     -3.8171   8.2141  15.2189   C.2       1 RES1   0.0000
    15 C15     -4.4967   9.2849  15.7832   C.2       1 RES1   0.0000
@<TRIPOS>BOND
     1     1     2    1
     2     2     3    2
     3     2     4    2
     4     2     5    1
     5     5     6    2
     6     6     7    1
     7     7     8    2
     8     8     9    1
     9     9    10    1
    10    10    11    1
    11    11    12    2
    12    11    13    1
    13     8    14    1
    14    14    15    2
    15    15     5    1
@<TRIPOS>SUBSTRUCTURE
     1 RES1        1 GROUP             0 ****  ****    0  
@<TRIPOS>MOLECULE
ligand_58
    15    15     1     0     0
SMALL
USER_CHARGES
****
Generated from the CSD

@<TRIPOS>ATOM
     1 N1      -6.9878   6.8075   7.7925   N.3       1 RES1   0.0000
     2 S2      -5.9313   7.8656   8.3502   S.o2      1 RES1   0.0000
     3 O3      -4.7993   7.9557   7.4605   O.2       1 RES1   0.0000
     4 O4      -6.6028   9.1071   8.7039   O.2       1 RES1   0.0000
     5 C5      -5.2923   7.2398   9.8871   C.2       1 RES1   0.0000
     6 C6      -5.9288   7.5641  11.0859   C.2       1 RES1   0.0000
     7 C7      -5.4254   7.0908  12.2817   C.2       1 RES1   0.0000
     8 C8      -4.3370   6.2402  12.3289   C.2       1 RES1   0.0000
     9 C9      -3.8361   5.7795  13.6543   C.3       1 RES1   0.0000
    10 C10     -2.4007   6.1305  13.9108   C.3       1 RES1   0.0000
    11 C11     -1.8419   7.3112  13.1527   C.2       1 RES1   0.0000
    12 O12     -2.5846   8.2679  12.8779   O.co2     1 RES1   0.0000
    13 O13     -0.6296   7.3622  12.8486   O.co2     1 RES1  -1.0000
    14 C14     -3.7236   5.9211  11.1230   C.2       1 RES1   0.0000
    15 C15     -4.1581   6.4317   9.9076   C.2       1 RES1   0.0000
@<TRIPOS>BOND
     1     1     2    1
     2     2     3    2
     3     2     4    2
     4     2     5    1
     5     5     6    2
     6     6     7    1
     7     7     8    2
     8     8     9    1
     9     9    10    1
    10    10    11    1
    11    11    12    2
    12    11    13    1
    13     8    14    1
    14    14    15    2
    15    15     5    1
@<TRIPOS>SUBSTRUCTURE
     1 RES1        1 GROUP             0 ****  ****    0  
@<TRIPOS>MOLECULE
ligand_59
    15    15     1     0     0
SMALL
USER_CHARGES
****
Generated from the CSD

@<TRIPOS>ATOM
     1 N1      -5.2264   9.2680   8.0620   N.3       1 RES1   0.0000
     2 S2      -5.9313   7.8656   8.3502   S.o2      1 RES1   0.0000
     3 O3      -7.3464   8.0527   8.5589   O.2       1 RES1   0.0000
     4 O4      -5.5275   6.8862   7.3526   O.2       1 RES1   0.0000
     5 C5      -5.2923   7.2398   9.8871   C.2       1 RES1   0.0000
     6 C6      -5.9288   7.5641  11.0859   C.2       1 RES1   0.0000
     7 C7      -5.4254   7.0908  12.2817   C.2       1 RES1   0.0000
     8 C8      -4.3370   6.2402  12.3289   C.2       1 RES1   0.0000
     9 C9      -3.8361   5.7795  13.6543   C.3       1 RES1   0.0000
    10 C10     -2.4007   6.1305  13.9108   C.3       1 RES1   0.0000
    11 C11     -1.8419   7.3112  13.1527   C.2       1 RES1   0.0000
    12 O12     -2.5846   8.2679  12.8779   O.co2     1 RES1   0.0000
    13 O13     -0.6296   7.3622  12.8486   O.co2     1 RES1  -1.0000
    14 C14     -3.7236   5.9211  11.1230   C.2       1 RES1   0.0000
    15 C15     -4.1581   6.4317   9.9076   C.2       1 RES1   0.0000
@<TRIPOS>BOND
     1     1     2    1
     2     2     3    2
     3     2     4    2
     4     2     5    1
     5     5     6    2
     6     6     7    1
     7     7     8    2
     8     8     9    1
     9     9    10    1
    10    10    11    1
    11    11    12    2
    12    11    13    1
    13     8    14    1
    14    14    15    2
    15    15     5    1
@<TRIPOS>SUBSTRUCTURE
     1 RES1        1 GROUP             0 ****  ****    0  
@<TRIPOS>MOLECULE
ligand_60
    15    15     1     0     0
SMALL
USER_CHARGES
****
Generated from the CSD

@<TRIPOS>ATOM
     1 N1      -6.3932  10.4771  18.7672   N.3       1 RES1   0.0000
     2 S2      -5.0181  10.7843  18.0178   S.o2      1 RES1   0.0000
     3 O3      -5.1466  11.9707  17.2072   O.2       1 RES1   0.0000
     4 O4      -3.9108  10.7368  18.9607   O.2       1 RES1   0.0000
     5 C5      -4.7065   9.4518  16.8822   C.2       1 RES1   0.0000
     6 C6      -3.5478   8.6853  17.0140   C.2       1 RES1   0.0000
     7 C7      -3.2972   7.6593  16.1241   C.2       1 RES1   0.0000
     8 C8      -4.1986   7.3165  15.1340   C.2       1 RES1   0.0000
     9 C9      -3.8578   6.2087  14.1978   C.3       1 RES1   0.0000
    10 C10     -2.4044   6.1556  13.8312   C.3       1 RES1   0.0000
    11 C11     -1.8640   7.3085  13.0188   C.2       1 RES1   0.0000
    12 O12     -2.6238   8.2350  12.6922   O.co2     1 RES1   0.0000
    13 O13     -0.6508   7.3692  12.7201   O.co2     1 RES1  -1.0000
    14 C14     -5.3513   8.0858  15.0260   C.2       1 RES1   0.0000
    15 C15     -5.6061   9.1676  15.8576   C.2       1 RES1   0.0000
@<TRIPOS>BOND
     1     1     2    1
     2     2     3    2
     3     2     4    2
     4     2     5    1
     5     5     6    2
     6     6     7    1
     7     7     8    2
     8     8     9    1
     9     9    10    1
    10    10    11    1
    11    11    12    2
    12    11    13    1
    13     8    14    1
    14    14    15    2
    15    15     5    1
@<TRIPOS>SUBSTRUCTURE
     1 RES1        1 GROUP             0 ****  ****    0  
@<TRIPOS>MOLECULE
ligand_61
    15    15     1     0     0
SMALL
USER_CHARGES
****
Generated from the CSD

@<TRIPOS>ATOM
     1 N1      -3.8145  11.8248  17.8933   N.3       1 RES1   0.0000
     2 S2      -5.0181  10.7843  18.0178   S.o2      1 RES1   0.0000
     3 O3      -5.0276  10.1883  19.3315   O.2       1 RES1   0.0000
     4 O4      -6.2559  11.3901  17.5506   O.2       1 RES1   0.0000
     5 C5      -4.7065   9.4518  16.8822   C.2       1 RES1   0.0000
     6 C6      -3.5478   8.6853  17.0140   C.2       1 RES1   0.0000
     7 C7      -3.2972   7.6593  16.1241   C.2       1 RES1   0.0000
     8 C8      -4.1986   7.3165  15.1340   C.2       1 RES1   0.0000
     9 C9      -3.8578   6.2087  14.1978   C.3       1 RES1   0.0000
    10 C10     -2.4044   6.1556  13.8312   C.3       1 RES1   0.0000
    11 C11     -1.8640   7.3085  13.0188   C.2       1 RES1   0.0000
    12 O12     -2.6238   8.2350  12.6922   O.co2     1 RES1   0.0000
    13 O13     -0.6508   7.3692  12.7201   O.co2     1 RES1  -1.0000
    14 C14     -5.3513   8.0858  15.0260   C.2       1 RES1   0.0000
    15 C15     -5.6061   9.1676  15.8576   C.2       1 RES1   0.0000
@<TRIPOS>BOND
     1     1     2    1
     2     2     3    2
     3     2     4    2
     4     2     5    1
     5     5     6    2
     6     6     7    1
     7     7     8    2
     8     8     9    1
     9     9    10    1
    10    10    11    1
    11    11    12    2
    12    11    13    1
    13     8    14    1
    14    14    15    2
    15    15     5    1
@<TRIPOS>SUBSTRUCTURE
     1 RES1        1 GROUP             0 ****  ****    0  
@<TRIPOS>MOLECULE
ligand_62
    15    15     1     0     0
SMALL
USER_CHARGES
****
Generated from the CSD

@<TRIPOS>ATOM
     1 N1      -6.8359   4.4298   8.4105   N.3       1 RES1   0.0000
     2 S2      -7.5982   5.3143   9.4984   S.o2      1 RES1   0.0000
     3 O3      -7.8966   6.6188   8.9596   O.2       1 RES1   0.0000
     4 O4      -8.7023   4.5612  10.0738   O.2       1 RES1   0.0000
     5 C5      -6.4816   5.5927  10.8541   C.2       1 RES1   0.0000
     6 C6      -6.8208   5.1503  12.1335   C.2       1 RES1   0.0000
     7 C7      -5.9613   5.3785  13.1902   C.2       1 RES1   0.0000
     8 C8      -4.7292   5.9788  13.0114   C.2       1 RES1   0.0000
     9 C9      -3.8578   6.2087  14.1978   C.3       1 RES1   0.0000
    10 C10     -2.3914   6.1542  13.8876   C.3       1 RES1   0.0000
    11 C11     -1.7832   7.3821  13.2524   C.2       1 RES1   0.0000
    12 O12     -2.4927   8.3815  13.0520   O.co2     1 RES1   0.0000
    13 O13     -0.5633   7.4248  12.9785   O.co2     1 RES1  -1.0000
    14 C14     -4.4061   6.4028  11.7276   C.2       1 RES1   0.0000
    15 C15     -5.2720   6.2531  10.6532   C.2       1 RES1   0.0000
@<TRIPOS>BOND
     1     1     2    1
     2     2     3    2
     3     2     4    2
     4     2     5    1
     5     5     6    2
     6     6     7    1
     7     7     8    2
     8     8     9    1
     9     9    10    1
    10    10    11    1
    11    11    12    2
    12    11    13    1
    13     8    14    1
    14    14    15    2
    15    15     5    1
@<TRIPOS>SUBSTRUCTURE
     1 RES1        1 GROUP             0 ****  ****    0  
@<TRIPOS>MOLECULE
ligand_63
    15    15     1     0     0
SMALL
USER_CHARGES
****
Generated from the CSD

@<TRIPOS>ATOM
     1 N1      -8.9748   6.0456   9.8402   N.3       1 RES1   0.0000
     2 S2      -7.5982   5.3143   9.4984   S.o2      1 RES1   0.0000
     3 O3      -7.7944   3.8865   9.4365   O.2       1 RES1   0.0000
     4 O4      -6.9618   5.9508   8.3550   O.2       1 RES1   0.0000
     5 C5      -6.4816   5.5927  10.8541   C.2       1 RES1   0.0000
     6 C6      -6.8208   5.1503  12.1335   C.2       1 RES1   0.0000
     7 C7      -5.9613   5.3785  13.1902   C.2       1 RES1   0.0000
     8 C8      -4.7292   5.9788  13.0114   C.2       1 RES1   0.0000
     9 C9      -3.8578   6.2087  14.1978   C.3       1 RES1   0.0000
    10 C10     -2.3914   6.1542  13.8876   C.3       1 RES1   0.0000
    11 C11     -1.7832   7.3821  13.2524   C.2       1 RES1   0.0000
    12 O12     -2.4927   8.3815  13.0520   O.co2     1 RES1   0.0000
    13 O13     -0.5633   7.4248  12.9785   O.co2     1 RES1  -1.0000
    14 C14     -4.4061   6.4028  11.7276   C.2       1 RES1   0.0000
    15 C15     -5.2720   6.2531  10.6532   C.2       1 RES1   0.0000
@<TRIPOS>BOND
     1     1     2    1
     2     2     3    2
     3     2     4    2
     4     2     5    1
     5     5     6    2
     6     6     7    1
     7     7     8    2
     8     8     9    1
     9     9    10    1
    10    10    11    1
    11    11    12    2
    12    11    13    1
    13     8    14    1
    14    14    15    2
    15    15     5    1
@<TRIPOS>SUBSTRUCTURE
     1 RES1        1 GROUP             0 ****  ****    0  
@<TRIPOS>MOLECULE
ligand_64
    15    15     1     0     0
SMALL
USER_CHARGES
****
Generated from the CSD

@<TRIPOS>ATOM
     1 N1       4.3351   6.5827  16.7243   N.3       1 RES1   0.0000
     2 S2       3.4020   5.5646  17.5239   S.o2      1 RES1   0.0000
     3 O3       3.7976   4.2048  17.2488   O.2       1 RES1   0.0000
     4 O4       3.3058   5.9622  18.9203   O.2       1 RES1   0.0000
     5 C5       1.7487   5.7271  16.8895   C.2       1 RES1   0.0000
     6 C6       1.0945   6.9574  16.9663   C.2       1 RES1   0.0000
     7 C7      -0.1949   7.0816  16.4872   C.2       1 RES1   0.0000
     8 C8      -0.8455   6.0330  15.8646   C.2       1 RES1   0.0000
     9 C9      -2.2421   6.2313  15.3848   C.3       1 RES1   0.0000
    10 C10     -2.3920   6.1030  13.8980   C.3       1 RES1   0.0000
    11 C11     -1.7880   7.2010  13.0550   C.2       1 RES1   0.0000
    12 O12     -2.5090   8.1280  12.6510   O.co2     1 RES1   0.0000
    13 O13     -0.5620   7.2180  12.8070   O.co2     1 RES1  -1.0000
    14 C14     -0.1728   4.8190  15.7891   C.2       1 RES1   0.0000
    15 C15      1.0967   4.6360  16.3200   C.2       1 RES1   0.0000
@<TRIPOS>BOND
     1     1     2    1
     2     2     3    2
     3     2     4    2
     4     2     5    1
     5     5     6    2
     6     6     7    1
     7     7     8    2
     8     8     9    1
     9     9    10    1
    10    10    11    1
    11    11    12    2
    12    11    13    1
    13     8    14    1
    14    14    15    2
    15    15     5    1
@<TRIPOS>SUBSTRUCTURE
     1 RES1        1 GROUP             0 ****  ****    0  
@<TRIPOS>MOLECULE
ligand_65
    15    15     1     0     0
SMALL
USER_CHARGES
****
Generated from the CSD

@<TRIPOS>ATOM
     1 N1       3.3786   4.4570  18.6726   N.3       1 RES1   0.0000
     2 S2       3.4020   5.5646  17.5239   S.o2      1 RES1   0.0000
     3 O3       3.7388   6.8523  18.0801   O.2       1 RES1   0.0000
     4 O4       4.1907   5.0989  16.3932   O.2       1 RES1   0.0000
     5 C5       1.7487   5.7271  16.8895   C.2       1 RES1   0.0000
     6 C6       1.0945   6.9574  16.9663   C.2       1 RES1   0.0000
     7 C7      -0.1949   7.0816  16.4872   C.2       1 RES1   0.0000
     8 C8      -0.8455   6.0330  15.8646   C.2       1 RES1   0.0000
     9 C9      -2.2421   6.2313  15.3848   C.3       1 RES1   0.0000
    10 C10     -2.3920   6.1030  13.8980   C.3       1 RES1   0.0000
    11 C11     -1.7880   7.2010  13.0550   C.2       1 RES1   0.0000
    12 O12     -2.5090   8.1280  12.6510   O.co2     1 RES1   0.0000
    13 O13     -0.5620   7.2180  12.8070   O.co2     1 RES1  -1.0000
    14 C14     -0.1728   4.8190  15.7891   C.2       1 RES1   0.0000
    15 C15      1.0967   4.6360  16.3200   C.2       1 RES1   0.0000
@<TRIPOS>BOND
     1     1     2    1
     2     2     3    2
     3     2     4    2
     4     2     5    1
     5     5     6    2
     6     6     7    1
     7     7     8    2
     8     8     9    1
     9     9    10    1
    10    10    11    1
    11    11    12    2
    12    11    13    1
    13     8    14    1
    14    14    15    2
    15    15     5    1
@<TRIPOS>SUBSTRUCTURE
     1 RES1        1 GROUP             0 ****  ****    0  
@<TRIPOS>MOLECULE
ligand_66
    15    15     1     0     0
SMALL
USER_CHARGES
****
Generated from the CSD

@<TRIPOS>ATOM
     1 N1      -7.0751  10.3713  17.5480   N.3       1 RES1   0.0000
     2 S2      -5.5594  10.5977  17.9933   S.o2      1 RES1   0.0000
     3 O3      -5.0729  11.8563  17.4832   O.2       1 RES1   0.0000
     4 O4      -5.4137  10.3549  19.4206   O.2       1 RES1   0.0000
     5 C5      -4.5691   9.3427  17.2146   C.2       1 RES1   0.0000
     6 C6      -4.8272   7.9960  17.4738   C.2       1 RES1   0.0000
     7 C7      -4.0497   7.0204  16.8811   C.2       1 RES1   0.0000
     8 C8      -3.0536   7.3325  15.9752   C.2       1 RES1   0.0000
     9 C9      -2.2421   6.2313  15.3848   C.3       1 RES1   0.0000
    10 C10     -2.3920   6.1030  13.8980   C.3       1 RES1   0.0000
    11 C11     -1.7880   7.2010  13.0550   C.2       1 RES1   0.0000
    12 O12     -2.5090   8.1280  12.6510   O.co2     1 RES1   0.0000
    13 O13     -0.5620   7.2180  12.8070   O.co2     1 RES1  -1.0000
    14 C14     -2.8192   8.6792  15.7230   C.2       1 RES1   0.0000
    15 C15     -3.5333   9.6904  16.3509   C.2       1 RES1   0.0000
@<TRIPOS>BOND
     1     1     2    1
     2     2     3    2
     3     2     4    2
     4     2     5    1
     5     5     6    2
     6     6     7    1
     7     7     8    2
     8     8     9    1
     9     9    10    1
    10    10    11    1
    11    11    12    2
    12    11    13    1
    13     8    14    1
    14    14    15    2
    15    15     5    1
@<TRIPOS>SUBSTRUCTURE
     1 RES1        1 GROUP             0 ****  ****    0  
@<TRIPOS>MOLECULE
ligand_67
    15    15     1     0     0
SMALL
USER_CHARGES
****
Generated from the CSD

@<TRIPOS>ATOM
     1 N1      -4.5887  11.5148  18.8672   N.3       1 RES1   0.0000
     2 S2      -5.5594  10.5977  17.9933   S.o2      1 RES1   0.0000
     3 O3      -6.4847   9.8951  18.8485   O.2       1 RES1   0.0000
     4 O4      -6.1200  11.3664  16.8923   O.2       1 RES1   0.0000
     5 C5      -4.5691   9.3427  17.2146   C.2       1 RES1   0.0000
     6 C6      -4.8272   7.9960  17.4738   C.2       1 RES1   0.0000
     7 C7      -4.0497   7.0204  16.8811   C.2       1 RES1   0.0000
     8 C8      -3.0536   7.3325  15.9752   C.2       1 RES1   0.0000
     9 C9      -2.2421   6.2313  15.3848   C.3       1 RES1   0.0000
    10 C10     -2.3920   6.1030  13.8980   C.3       1 RES1   0.0000
    11 C11     -1.7880   7.2010  13.0550   C.2       1 RES1   0.0000
    12 O12     -2.5090   8.1280  12.6510   O.co2     1 RES1   0.0000
    13 O13     -0.5620   7.2180  12.8070   O.co2     1 RES1  -1.0000
    14 C14     -2.8192   8.6792  15.7230   C.2       1 RES1   0.0000
    15 C15     -3.5333   9.6904  16.3509   C.2       1 RES1   0.0000
@<TRIPOS>BOND
     1     1     2    1
     2     2     3    2
     3     2     4    2
     4     2     5    1
     5     5     6    2
     6     6     7    1
     7     7     8    2
     8     8     9    1
     9     9    10    1
    10    10    11    1
    11    11    12    2
    12    11    13    1
    13     8    14    1
    14    14    15    2
    15    15     5    1
@<TRIPOS>SUBSTRUCTURE
     1 RES1        1 GROUP             0 ****  ****    0  
@<TRIPOS>MOLECULE
ligand_68
    15    15     1     0     0
SMALL
USER_CHARGES
****
Generated from the CSD

@<TRIPOS>ATOM
     1 N1      -6.2398  -0.1161  16.2151   N.3       1 RES1   0.0000
     2 S2      -5.5673   1.0451  17.0790   S.o2      1 RES1   0.0000
     3 O3      -6.5575   1.6849  17.9103   O.2       1 RES1   0.0000
     4 O4      -4.3644   0.5521  17.7329   O.2       1 RES1   0.0000
     5 C5      -4.9935   2.2981  15.9553   C.2       1 RES1   0.0000
     6 C6      -3.6376   2.6261  15.9164   C.2       1 RES1   0.0000
     7 C7      -3.1925   3.6092  15.0545   C.2       1 RES1   0.0000
     8 C8      -4.0439   4.2423  14.1686   C.2       1 RES1   0.0000
     9 C9      -3.5000   5.3052  13.2773   C.3       1 RES1   0.0000
    10 C10     -2.4245   6.1337  13.9147   C.3       1 RES1   0.0000
    11 C11     -1.8590   7.2666  13.0915   C.2       1 RES1   0.0000
    12 O12     -2.6127   8.1725  12.6994   O.co2     1 RES1   0.0000
    13 O13     -0.6337   7.3331  12.8485   O.co2     1 RES1  -1.0000
    14 C14     -5.3887   3.8939  14.2162   C.2       1 RES1   0.0000
    15 C15     -5.8855   2.9604  15.1154   C.2       1 RES1   0.0000
@<TRIPOS>BOND
     1     1     2    1
     2     2     3    2
     3     2     4    2
     4     2     5    1
     5     5     6    2
     6     6     7    1
     7     7     8    2
     8     8     9    1
     9     9    10    1
    10    10    11    1
    11    11    12    2
    12    11    13    1
    13     8    14    1
    14    14    15    2
    15    15     5    1
@<TRIPOS>SUBSTRUCTURE
     1 RES1        1 GROUP             0 ****  ****    0  
@<TRIPOS>MOLECULE
ligand_69
    15    15     1     0     0
SMALL
USER_CHARGES
****
Generated from the CSD

@<TRIPOS>ATOM
     1 N1      -5.2105   1.5166  18.5613   N.3       1 RES1   0.0000
     2 S2      -5.5673   1.0451  17.0790   S.o2      1 RES1   0.0000
     3 O3      -4.8312  -0.1500  16.7456   O.2       1 RES1   0.0000
     4 O4      -7.0105   1.0130  16.8959   O.2       1 RES1   0.0000
     5 C5      -4.9935   2.2981  15.9553   C.2       1 RES1   0.0000
     6 C6      -3.6376   2.6261  15.9164   C.2       1 RES1   0.0000
     7 C7      -3.1925   3.6092  15.0545   C.2       1 RES1   0.0000
     8 C8      -4.0439   4.2423  14.1686   C.2       1 RES1   0.0000
     9 C9      -3.5000   5.3052  13.2773   C.3       1 RES1   0.0000
    10 C10     -2.4245   6.1337  13.9147   C.3       1 RES1   0.0000
    11 C11     -1.8590   7.2666  13.0915   C.2       1 RES1   0.0000
    12 O12     -2.6127   8.1725  12.6994   O.co2     1 RES1   0.0000
    13 O13     -0.6337   7.3331  12.8485   O.co2     1 RES1  -1.0000
    14 C14     -5.3887   3.8939  14.2162   C.2       1 RES1   0.0000
    15 C15     -5.8855   2.9604  15.1154   C.2       1 RES1   0.0000
@<TRIPOS>BOND
     1     1     2    1
     2     2     3    2
     3     2     4    2
     4     2     5    1
     5     5     6    2
     6     6     7    1
     7     7     8    2
     8     8     9    1
     9     9    10    1
    10    10    11    1
    11    11    12    2
    12    11    13    1
    13     8    14    1
    14    14    15    2
    15    15     5    1
@<TRIPOS>SUBSTRUCTURE
     1 RES1        1 GROUP             0 ****  ****    0  
@<TRIPOS>MOLECULE
ligand_70
    15    15     1     0     0
SMALL
USER_CHARGES
****
Generated from the CSD

@<TRIPOS>ATOM
     1 N1      -5.0951   5.0381   6.7249   N.3       1 RES1   0.0000
     2 S2      -3.6156   5.3929   7.2065   S.o2      1 RES1   0.0000
     3 O3      -2.6987   4.3537   6.8063   O.2       1 RES1   0.0000
     4 O4      -3.2802   6.7590   6.8338   O.2       1 RES1   0.0000
     5 C5      -3.6059   5.3908   8.9848   C.2       1 RES1   0.0000
     6 C6      -2.7679   4.5119   9.6723   C.2       1 RES1   0.0000
     7 C7      -2.7697   4.4988  11.0534   C.2       1 RES1   0.0000
     8 C8      -3.5337   5.3845  11.7899   C.2       1 RES1   0.0000
     9 C9      -3.5000   5.3052  13.2773   C.3       1 RES1   0.0000
    10 C10     -2.3920   6.1030  13.8980   C.3       1 RES1   0.0000
    11 C11     -1.7880   7.2010  13.0550   C.2       1 RES1   0.0000
    12 O12     -2.5090   8.1280  12.6510   O.co2     1 RES1   0.0000
    13 O13     -0.5620   7.2180  12.8070   O.co2     1 RES1  -1.0000
    14 C14     -4.3538   6.2587  11.0859   C.2       1 RES1   0.0000
    15 C15     -4.4309   6.2554   9.7000   C.2       1 RES1   0.0000
@<TRIPOS>BOND
     1     1     2    1
     2     2     3    2
     3     2     4    2
     4     2     5    1
     5     5     6    2
     6     6     7    1
     7     7     8    2
     8     8     9    1
     9     9    10    1
    10    10    11    1
    11    11    12    2
    12    11    13    1
    13     8    14    1
    14    14    15    2
    15    15     5    1
@<TRIPOS>SUBSTRUCTURE
     1 RES1        1 GROUP             0 ****  ****    0  
@<TRIPOS>MOLECULE
ligand_71
    15    15     1     0     0
SMALL
USER_CHARGES
****
Generated from the CSD

@<TRIPOS>ATOM
     1 N1      -2.2017   6.2709   6.7251   N.3       1 RES1   0.0000
     2 S2      -3.6588   5.8633   7.2326   S.o2      1 RES1   0.0000
     3 O3      -4.5904   6.9370   6.9869   O.2       1 RES1   0.0000
     4 O4      -4.0140   4.5439   6.7324   O.2       1 RES1   0.0000
     5 C5      -3.5883   5.6764   8.9996   C.2       1 RES1   0.0000
     6 C6      -4.3922   6.4753   9.8138   C.2       1 RES1   0.0000
     7 C7      -4.3281   6.3415  11.1869   C.2       1 RES1   0.0000
     8 C8      -3.5337   5.3845  11.7899   C.2       1 RES1   0.0000
     9 C9      -3.5000   5.3052  13.2773   C.3       1 RES1   0.0000
    10 C10     -2.3796   6.0864  13.8968   C.3       1 RES1   0.0000
    11 C11     -1.7647   7.1797  13.0557   C.2       1 RES1   0.0000
    12 O12     -2.4720   8.1248  12.6697   O.co2     1 RES1   0.0000
    13 O13     -0.5420   7.1743  12.7914   O.co2     1 RES1  -1.0000
    14 C14     -2.7484   4.5920  10.9607   C.2       1 RES1   0.0000
    15 C15     -2.7339   4.7427   9.5809   C.2       1 RES1   0.0000
@<TRIPOS>BOND
     1     1     2    1
     2     2     3    2
     3     2     4    2
     4     2     5    1
     5     5     6    2
     6     6     7    1
     7     7     8    2
     8     8     9    1
     9     9    10    1
    10    10    11    1
    11    11    12    2
    12    11    13    1
    13     8    14    1
    14    14    15    2
    15    15     5    1
@<TRIPOS>SUBSTRUCTURE
     1 RES1        1 GROUP             0 ****  ****    0  
@<TRIPOS>MOLECULE
ligand_72
    15    15     1     0     0
SMALL
USER_CHARGES
****
Generated from the CSD

@<TRIPOS>ATOM
     1 N1      -5.0712   0.3095  17.4244   N.3       1 RES1   0.0000
     2 S2      -6.1844   1.4260  17.1768   S.o2      1 RES1   0.0000
     3 O3      -7.2905   0.8709  16.4356   O.2       1 RES1   0.0000
     4 O4      -6.4928   2.1126  18.4221   O.2       1 RES1   0.0000
     5 C5      -5.4777   2.6777  16.1298   C.2       1 RES1   0.0000
     6 C6      -5.9126   3.9992  16.2389   C.2       1 RES1   0.0000
     7 C7      -5.3752   4.9700  15.4165   C.2       1 RES1   0.0000
     8 C8      -4.3594   4.6877  14.5226   C.2       1 RES1   0.0000
     9 C9      -3.8361   5.7795  13.6543   C.3       1 RES1   0.0000
    10 C10     -2.3920   6.1030  13.8980   C.3       1 RES1   0.0000
    11 C11     -1.7880   7.2010  13.0550   C.2       1 RES1   0.0000
    12 O12     -2.5090   8.1280  12.6510   O.co2     1 RES1   0.0000
    13 O13     -0.5620   7.2180  12.8070   O.co2     1 RES1  -1.0000
    14 C14     -3.9334   3.3673  14.4366   C.2       1 RES1   0.0000
    15 C15     -4.4963   2.3515  15.1969   C.2       1 RES1   0.0000
@<TRIPOS>BOND
     1     1     2    1
     2     2     3    2
     3     2     4    2
     4     2     5    1
     5     5     6    2
     6     6     7    1
     7     7     8    2
     8     8     9    1
     9     9    10    1
    10    10    11    1
    11    11    12    2
    12    11    13    1
    13     8    14    1
    14    14    15    2
    15    15     5    1
@<TRIPOS>SUBSTRUCTURE
     1 RES1        1 GROUP             0 ****  ****    0  
@<TRIPOS>MOLECULE
ligand_73
    15    15     1     0     0
SMALL
USER_CHARGES
****
Generated from the CSD

@<TRIPOS>ATOM
     1 N1      -7.2649   1.5187  17.6228   N.3       1 RES1   0.0000
     2 S2      -5.7503   1.2399  17.2043   S.o2      1 RES1   0.0000
     3 O3      -4.8993   1.2624  18.3690   O.2       1 RES1   0.0000
     4 O4      -5.6743   0.0682  16.3448   O.2       1 RES1   0.0000
     5 C5      -5.2097   2.5905  16.1817   C.2       1 RES1   0.0000
     6 C6      -4.2465   2.3713  15.1960   C.2       1 RES1   0.0000
     7 C7      -3.8149   3.4222  14.4106   C.2       1 RES1   0.0000
     8 C8      -4.3594   4.6877  14.5226   C.2       1 RES1   0.0000
     9 C9      -3.8361   5.7795  13.6543   C.3       1 RES1   0.0000
    10 C10     -2.3920   6.1030  13.8980   C.3       1 RES1   0.0000
    11 C11     -1.7880   7.2010  13.0550   C.2       1 RES1   0.0000
    12 O12     -2.5090   8.1280  12.6510   O.co2     1 RES1   0.0000
    13 O13     -0.5620   7.2180  12.8070   O.co2     1 RES1  -1.0000
    14 C14     -5.3248   4.8827  15.5035   C.2       1 RES1   0.0000
    15 C15     -5.7349   3.8684  16.3577   C.2       1 RES1   0.0000
@<TRIPOS>BOND
     1     1     2    1
     2     2     3    2
     3     2     4    2
     4     2     5    1
     5     5     6    2
     6     6     7    1
     7     7     8    2
     8     8     9    1
     9     9    10    1
    10    10    11    1
    11    11    12    2
    12    11    13    1
    13     8    14    1
    14    14    15    2
    15    15     5    1
@<TRIPOS>SUBSTRUCTURE
     1 RES1        1 GROUP             0 ****  ****    0  
@<TRIPOS>MOLECULE
ligand_74
    15    15     1     0     0
SMALL
USER_CHARGES
****
Generated from the CSD

@<TRIPOS>ATOM
     1 N1      -6.4988  10.2749  18.7099   N.3       1 RES1   0.0000
     2 S2      -5.3694  10.8678  17.7507   S.o2      1 RES1   0.0000
     3 O3      -5.9733  11.5624  16.6400   O.2       1 RES1   0.0000
     4 O4      -4.3772  11.5917  18.5309   O.2       1 RES1   0.0000
     5 C5      -4.4818   9.4991  17.0429   C.2       1 RES1   0.0000
     6 C6      -3.1102   9.3722  17.2667   C.2       1 RES1   0.0000
     7 C7      -2.4166   8.3179  16.7057   C.2       1 RES1   0.0000
     8 C8      -3.0536   7.3325  15.9752   C.2       1 RES1   0.0000
     9 C9      -2.2421   6.2313  15.3848   C.3       1 RES1   0.0000
    10 C10     -2.3920   6.1030  13.8980   C.3       1 RES1   0.0000
    11 C11     -1.7880   7.2010  13.0550   C.2       1 RES1   0.0000
    12 O12     -2.5090   8.1280  12.6510   O.co2     1 RES1   0.0000
    13 O13     -0.5620   7.2180  12.8070   O.co2     1 RES1  -1.0000
    14 C14     -4.4216   7.4719  15.7723   C.2       1 RES1   0.0000
    15 C15     -5.1413   8.5533  16.2618   C.2       1 RES1   0.0000
@<TRIPOS>BOND
     1     1     2    1
     2     2     3    2
     3     2     4    2
     4     2     5    1
     5     5     6    2
     6     6     7    1
     7     7     8    2
     8     8     9    1
     9     9    10    1
    10    10    11    1
    11    11    12    2
    12    11    13    1
    13     8    14    1
    14    14    15    2
    15    15     5    1
@<TRIPOS>SUBSTRUCTURE
     1 RES1        1 GROUP             0 ****  ****    0  
@<TRIPOS>MOLECULE
ligand_75
    15    15     1     0     0
SMALL
USER_CHARGES
****
Generated from the CSD

@<TRIPOS>ATOM
     1 N1      -4.7286  12.2137  17.1811   N.3       1 RES1   0.0000
     2 S2      -5.3694  10.8678  17.7507   S.o2      1 RES1   0.0000
     3 O3      -5.1588  10.7795  19.1751   O.2       1 RES1   0.0000
     4 O4      -6.7335  10.7171  17.2671   O.2       1 RES1   0.0000
     5 C5      -4.4818   9.4991  17.0429   C.2       1 RES1   0.0000
     6 C6      -3.1102   9.3722  17.2667   C.2       1 RES1   0.0000
     7 C7      -2.4166   8.3179  16.7057   C.2       1 RES1   0.0000
     8 C8      -3.0536   7.3325  15.9752   C.2       1 RES1   0.0000
     9 C9      -2.2421   6.2313  15.3848   C.3       1 RES1   0.0000
    10 C10     -2.3920   6.1030  13.8980   C.3       1 RES1   0.0000
    11 C11     -1.7880   7.2010  13.0550   C.2       1 RES1   0.0000
    12 O12     -2.5090   8.1280  12.6510   O.co2     1 RES1   0.0000
    13 O13     -0.5620   7.2180  12.8070   O.co2     1 RES1  -1.0000
    14 C14     -4.4216   7.4719  15.7723   C.2       1 RES1   0.0000
    15 C15     -5.1413   8.5533  16.2618   C.2       1 RES1   0.0000
@<TRIPOS>BOND
     1     1     2    1
     2     2     3    2
     3     2     4    2
     4     2     5    1
     5     5     6    2
     6     6     7    1
     7     7     8    2
     8     8     9    1
     9     9    10    1
    10    10    11    1
    11    11    12    2
    12    11    13    1
    13     8    14    1
    14    14    15    2
    15    15     5    1
@<TRIPOS>SUBSTRUCTURE
     1 RES1        1 GROUP             0 ****  ****    0  
@<TRIPOS>MOLECULE
ligand_76
    15    15     1     0     0
SMALL
USER_CHARGES
****
Generated from the CSD

@<TRIPOS>ATOM
     1 N1      -7.3300   5.2704   8.2105   N.3       1 RES1   0.0000
     2 S2      -7.7493   5.4782   9.7362   S.o2      1 RES1   0.0000
     3 O3      -8.2223   6.8251   9.9439   O.2       1 RES1   0.0000
     4 O4      -8.6145   4.3923  10.1716   O.2       1 RES1   0.0000
     5 C5      -6.2838   5.3195  10.7308   C.2       1 RES1   0.0000
     6 C6      -6.2148   4.3276  11.7101   C.2       1 RES1   0.0000
     7 C7      -5.0830   4.2122  12.4933   C.2       1 RES1   0.0000
     8 C8      -3.9738   5.0125  12.2940   C.2       1 RES1   0.0000
     9 C9      -2.7919   4.8452  13.1856   C.3       1 RES1   0.0000
    10 C10     -2.4408   6.0815  13.9587   C.3       1 RES1   0.0000
    11 C11     -1.8399   7.2260  13.1776   C.2       1 RES1   0.0000
    12 O12     -2.5670   8.1632  12.8098   O.co2     1 RES1   0.0000
    13 O13     -0.6112   7.2690  12.9464   O.co2     1 RES1  -1.0000
    14 C14     -4.0591   5.9874  11.3068   C.2       1 RES1   0.0000
    15 C15     -5.2039   6.1793  10.5458   C.2       1 RES1   0.0000
@<TRIPOS>BOND
     1     1     2    1
     2     2     3    2
     3     2     4    2
     4     2     5    1
     5     5     6    2
     6     6     7    1
     7     7     8    2
     8     8     9    1
     9     9    10    1
    10    10    11    1
    11    11    12    2
    12    11    13    1
    13     8    14    1
    14    14    15    2
    15    15     5    1
@<TRIPOS>SUBSTRUCTURE
     1 RES1        1 GROUP             0 ****  ****    0  
@<TRIPOS>MOLECULE
ligand_77
    15    15     1     0     0
SMALL
USER_CHARGES
****
Generated from the CSD

@<TRIPOS>ATOM
     1 N1      -8.9750   5.7734  10.7145   N.3       1 RES1   0.0000
     2 S2      -7.7493   5.4782   9.7362   S.o2      1 RES1   0.0000
     3 O3      -7.9255   4.2016   9.0878   O.2       1 RES1   0.0000
     4 O4      -7.4981   6.6307   8.8840   O.2       1 RES1   0.0000
     5 C5      -6.2838   5.3195  10.7308   C.2       1 RES1   0.0000
     6 C6      -6.2148   4.3276  11.7101   C.2       1 RES1   0.0000
     7 C7      -5.0830   4.2122  12.4933   C.2       1 RES1   0.0000
     8 C8      -3.9738   5.0125  12.2940   C.2       1 RES1   0.0000
     9 C9      -2.7919   4.8452  13.1856   C.3       1 RES1   0.0000
    10 C10     -2.4408   6.0815  13.9587   C.3       1 RES1   0.0000
    11 C11     -1.8399   7.2260  13.1776   C.2       1 RES1   0.0000
    12 O12     -2.5670   8.1632  12.8098   O.co2     1 RES1   0.0000
    13 O13     -0.6112   7.2690  12.9464   O.co2     1 RES1  -1.0000
    14 C14     -4.0591   5.9874  11.3068   C.2       1 RES1   0.0000
    15 C15     -5.2039   6.1793  10.5458   C.2       1 RES1   0.0000
@<TRIPOS>BOND
     1     1     2    1
     2     2     3    2
     3     2     4    2
     4     2     5    1
     5     5     6    2
     6     6     7    1
     7     7     8    2
     8     8     9    1
     9     9    10    1
    10    10    11    1
    11    11    12    2
    12    11    13    1
    13     8    14    1
    14    14    15    2
    15    15     5    1
@<TRIPOS>SUBSTRUCTURE
     1 RES1        1 GROUP             0 ****  ****    0  
@<TRIPOS>MOLECULE
ligand_78
    15    15     1     0     0
SMALL
USER_CHARGES
****
Generated from the CSD

@<TRIPOS>ATOM
     1 N1       0.3956   8.7551  20.5663   N.3       1 RES1   0.0000
     2 S2       1.1509   8.1984  19.2754   S.o2      1 RES1   0.0000
     3 O3       1.9245   9.2486  18.6592   O.2       1 RES1   0.0000
     4 O4       1.8430   6.9587  19.5942   O.2       1 RES1   0.0000
     5 C5      -0.0814   7.7372  18.0793   C.2       1 RES1   0.0000
     6 C6      -0.1529   6.4175  17.6312   C.2       1 RES1   0.0000
     7 C7      -1.1000   6.0608  16.6914   C.2       1 RES1   0.0000
     8 C8      -2.0365   6.9623  16.2216   C.2       1 RES1   0.0000
     9 C9      -3.0204   6.5146  15.1962   C.3       1 RES1   0.0000
    10 C10     -2.3920   6.1030  13.8980   C.3       1 RES1   0.0000
    11 C11     -1.7880   7.2010  13.0550   C.2       1 RES1   0.0000
    12 O12     -2.5090   8.1280  12.6510   O.co2     1 RES1   0.0000
    13 O13     -0.5620   7.2180  12.8070   O.co2     1 RES1  -1.0000
    14 C14     -1.9546   8.2691  16.6881   C.2       1 RES1   0.0000
    15 C15     -0.9746   8.6821  17.5802   C.2       1 RES1   0.0000
@<TRIPOS>BOND
     1     1     2    1
     2     2     3    2
     3     2     4    2
     4     2     5    1
     5     5     6    2
     6     6     7    1
     7     7     8    2
     8     8     9    1
     9     9    10    1
    10    10    11    1
    11    11    12    2
    12    11    13    1
    13     8    14    1
    14    14    15    2
    15    15     5    1
@<TRIPOS>SUBSTRUCTURE
     1 RES1        1 GROUP             0 ****  ****    0  
@<TRIPOS>MOLECULE
ligand_79
    15    15     1     0     0
SMALL
USER_CHARGES
****
Generated from the CSD

@<TRIPOS>ATOM
     1 N1       2.5844   7.8955  18.6428   N.3       1 RES1   0.0000
     2 S2       1.1509   8.1984  19.2754   S.o2      1 RES1   0.0000
     3 O3       0.9233   7.3525  20.4217   O.2       1 RES1   0.0000
     4 O4       0.9751   9.6313  19.4579   O.2       1 RES1   0.0000
     5 C5      -0.0814   7.7372  18.0793   C.2       1 RES1   0.0000
     6 C6      -0.1529   6.4175  17.6312   C.2       1 RES1   0.0000
     7 C7      -1.1000   6.0608  16.6914   C.2       1 RES1   0.0000
     8 C8      -2.0365   6.9623  16.2216   C.2       1 RES1   0.0000
     9 C9      -3.0204   6.5146  15.1962   C.3       1 RES1   0.0000
    10 C10     -2.3920   6.1030  13.8980   C.3       1 RES1   0.0000
    11 C11     -1.7880   7.2010  13.0550   C.2       1 RES1   0.0000
    12 O12     -2.5090   8.1280  12.6510   O.co2     1 RES1   0.0000
    13 O13     -0.5620   7.2180  12.8070   O.co2     1 RES1  -1.0000
    14 C14     -1.9546   8.2691  16.6881   C.2       1 RES1   0.0000
    15 C15     -0.9746   8.6821  17.5802   C.2       1 RES1   0.0000
@<TRIPOS>BOND
     1     1     2    1
     2     2     3    2
     3     2     4    2
     4     2     5    1
     5     5     6    2
     6     6     7    1
     7     7     8    2
     8     8     9    1
     9     9    10    1
    10    10    11    1
    11    11    12    2
    12    11    13    1
    13     8    14    1
    14    14    15    2
    15    15     5    1
@<TRIPOS>SUBSTRUCTURE
     1 RES1        1 GROUP             0 ****  ****    0  
@<TRIPOS>MOLECULE
ligand_80
    15    15     1     0     0
SMALL
USER_CHARGES
****
Generated from the CSD

@<TRIPOS>ATOM
     1 N1       1.8785  11.4108  16.5555   N.3       1 RES1   0.0000
     2 S2       2.1260  10.0052  17.2695   S.o2      1 RES1   0.0000
     3 O3       3.3824   9.4420  16.8389   O.2       1 RES1   0.0000
     4 O4       1.9041  10.1239  18.7027   O.2       1 RES1   0.0000
     5 C5       0.8706   8.8789  16.7061   C.2       1 RES1   0.0000
     6 C6      -0.4751   9.1706  16.9336   C.2       1 RES1   0.0000
     7 C7      -1.4508   8.2899  16.5096   C.2       1 RES1   0.0000
     8 C8      -1.1411   7.1459  15.7984   C.2       1 RES1   0.0000
     9 C9      -2.2421   6.2313  15.3848   C.3       1 RES1   0.0000
    10 C10     -2.4133   6.1285  13.8983   C.3       1 RES1   0.0000
    11 C11     -1.8451   7.2546  13.0675   C.2       1 RES1   0.0000
    12 O12     -2.5865   8.1846  12.7100   O.co2     1 RES1   0.0000
    13 O13     -0.6273   7.2906  12.7839   O.co2     1 RES1  -1.0000
    14 C14      0.2044   6.8788  15.5734   C.2       1 RES1   0.0000
    15 C15      1.2168   7.7040  16.0432   C.2       1 RES1   0.0000
@<TRIPOS>BOND
     1     1     2    1
     2     2     3    2
     3     2     4    2
     4     2     5    1
     5     5     6    2
     6     6     7    1
     7     7     8    2
     8     8     9    1
     9     9    10    1
    10    10    11    1
    11    11    12    2
    12    11    13    1
    13     8    14    1
    14    14    15    2
    15    15     5    1
@<TRIPOS>SUBSTRUCTURE
     1 RES1        1 GROUP             0 ****  ****    0  
@<TRIPOS>MOLECULE
ligand_81
    15    15     1     0     0
SMALL
USER_CHARGES
****
Generated from the CSD

@<TRIPOS>ATOM
     1 N1       3.3175   9.0931  17.8503   N.3       1 RES1   0.0000
     2 S2       2.3579   9.9072  16.8689   S.o2      1 RES1   0.0000
     3 O3       1.7861  11.0391  17.5567   O.2       1 RES1   0.0000
     4 O4       3.0331  10.1650  15.6060   O.2       1 RES1   0.0000
     5 C5       0.9892   8.8535  16.4465   C.2       1 RES1   0.0000
     6 C6       1.2231   7.6383  15.8014   C.2       1 RES1   0.0000
     7 C7       0.1601   6.8255  15.4597   C.2       1 RES1   0.0000
     8 C8      -1.1411   7.1459  15.7984   C.2       1 RES1   0.0000
     9 C9      -2.2421   6.2313  15.3848   C.3       1 RES1   0.0000
    10 C10     -2.4348   6.1539  13.8994   C.3       1 RES1   0.0000
    11 C11     -1.9055   7.3087  13.0825   C.2       1 RES1   0.0000
    12 O12     -2.6701   8.2349  12.7666   O.co2     1 RES1   0.0000
    13 O13     -0.6959   7.3713  12.7695   O.co2     1 RES1  -1.0000
    14 C14     -1.3517   8.3557  16.4497   C.2       1 RES1   0.0000
    15 C15     -0.3169   9.2311  16.7489   C.2       1 RES1   0.0000
@<TRIPOS>BOND
     1     1     2    1
     2     2     3    2
     3     2     4    2
     4     2     5    1
     5     5     6    2
     6     6     7    1
     7     7     8    2
     8     8     9    1
     9     9    10    1
    10    10    11    1
    11    11    12    2
    12    11    13    1
    13     8    14    1
    14    14    15    2
    15    15     5    1
@<TRIPOS>SUBSTRUCTURE
     1 RES1        1 GROUP             0 ****  ****    0  
@<TRIPOS>MOLECULE
ligand_82
    15    15     1     0     0
SMALL
USER_CHARGES
****
Generated from the CSD

@<TRIPOS>ATOM
     1 N1      -4.3286  10.9153  19.0233   N.3       1 RES1   0.0000
     2 S2      -5.4602  10.7376  17.9121   S.o2      1 RES1   0.0000
     3 O3      -6.7001  10.3272  18.5247   O.2       1 RES1   0.0000
     4 O4      -5.4990  11.9046  17.0437   O.2       1 RES1   0.0000
     5 C5      -4.9757   9.3960  16.8503   C.2       1 RES1   0.0000
     6 C6      -5.3683   9.3953  15.5111   C.2       1 RES1   0.0000
     7 C7      -5.0052   8.3469  14.6887   C.2       1 RES1   0.0000
     8 C8      -4.1986   7.3165  15.1340   C.2       1 RES1   0.0000
     9 C9      -3.8578   6.2087  14.1978   C.3       1 RES1   0.0000
    10 C10     -2.3920   6.1030  13.8980   C.3       1 RES1   0.0000
    11 C11     -1.7880   7.2010  13.0550   C.2       1 RES1   0.0000
    12 O12     -2.5090   8.1280  12.6510   O.co2     1 RES1   0.0000
    13 O13     -0.5620   7.2180  12.8070   O.co2     1 RES1  -1.0000
    14 C14     -3.8099   7.3412  16.4683   C.2       1 RES1   0.0000
    15 C15     -4.2112   8.3414  17.3432   C.2       1 RES1   0.0000
@<TRIPOS>BOND
     1     1     2    1
     2     2     3    2
     3     2     4    2
     4     2     5    1
     5     5     6    2
     6     6     7    1
     7     7     8    2
     8     8     9    1
     9     9    10    1
    10    10    11    1
    11    11    12    2
    12    11    13    1
    13     8    14    1
    14    14    15    2
    15    15     5    1
@<TRIPOS>SUBSTRUCTURE
     1 RES1        1 GROUP             0 ****  ****    0  
@<TRIPOS>MOLECULE
ligand_83
    15    15     1     0     0
SMALL
USER_CHARGES
****
Generated from the CSD

@<TRIPOS>ATOM
     1 N1      -6.9147   5.7926   8.1860   N.3       1 RES1   0.0000
     2 S2      -7.5790   5.1937   9.5077   S.o2      1 RES1   0.0000
     3 O3      -8.8014   5.8961   9.8132   O.2       1 RES1   0.0000
     4 O4      -7.6463   3.7426   9.4227   O.2       1 RES1   0.0000
     5 C5      -6.4792   5.5196  10.8665   C.2       1 RES1   0.0000
     6 C6      -6.4391   4.6429  11.9515   C.2       1 RES1   0.0000
     7 C7      -5.5960   4.9022  13.0142   C.2       1 RES1   0.0000
     8 C8      -4.7292   5.9788  13.0114   C.2       1 RES1   0.0000
     9 C9      -3.8578   6.2087  14.1978   C.3       1 RES1   0.0000
    10 C10     -2.3946   6.0462  13.9109   C.3       1 RES1   0.0000
    11 C11     -1.6993   7.2058  13.2379   C.2       1 RES1   0.0000
    12 O12     -2.3269   8.2570  13.0293   O.co2     1 RES1   0.0000
    13 O13     -0.4860   7.1405  12.9402   O.co2     1 RES1  -1.0000
    14 C14     -4.7774   6.8342  11.9168   C.2       1 RES1   0.0000
    15 C15     -5.6592   6.6454  10.8615   C.2       1 RES1   0.0000
@<TRIPOS>BOND
     1     1     2    1
     2     2     3    2
     3     2     4    2
     4     2     5    1
     5     5     6    2
     6     6     7    1
     7     7     8    2
     8     8     9    1
     9     9    10    1
    10    10    11    1
    11    11    12    2
    12    11    13    1
    13     8    14    1
    14    14    15    2
    15    15     5    1
@<TRIPOS>SUBSTRUCTURE
     1 RES1        1 GROUP             0 ****  ****    0  
@<TRIPOS>MOLECULE
ligand_84
    15    15     1     0     0
SMALL
USER_CHARGES
****
Generated from the CSD

@<TRIPOS>ATOM
     1 N1      -6.8584  11.2982  17.3852   N.3       1 RES1   0.0000
     2 S2      -5.4602  10.7376  17.9121   S.o2      1 RES1   0.0000
     3 O3      -4.4350  11.7425  17.7699   O.2       1 RES1   0.0000
     4 O4      -5.6244  10.1327  19.2253   O.2       1 RES1   0.0000
     5 C5      -4.9757   9.3960  16.8503   C.2       1 RES1   0.0000
     6 C6      -5.3683   9.3953  15.5111   C.2       1 RES1   0.0000
     7 C7      -5.0052   8.3469  14.6887   C.2       1 RES1   0.0000
     8 C8      -4.1986   7.3165  15.1340   C.2       1 RES1   0.0000
     9 C9      -3.8578   6.2087  14.1978   C.3       1 RES1   0.0000
    10 C10     -2.3920   6.1030  13.8980   C.3       1 RES1   0.0000
    11 C11     -1.7880   7.2010  13.0550   C.2       1 RES1   0.0000
    12 O12     -2.5090   8.1280  12.6510   O.co2     1 RES1   0.0000
    13 O13     -0.5620   7.2180  12.8070   O.co2     1 RES1  -1.0000
    14 C14     -3.8099   7.3412  16.4683   C.2       1 RES1   0.0000
    15 C15     -4.2112   8.3414  17.3432   C.2       1 RES1   0.0000
@<TRIPOS>BOND
     1     1     2    1
     2     2     3    2
     3     2     4    2
     4     2     5    1
     5     5     6    2
     6     6     7    1
     7     7     8    2
     8     8     9    1
     9     9    10    1
    10    10    11    1
    11    11    12    2
    12    11    13    1
    13     8    14    1
    14    14    15    2
    15    15     5    1
@<TRIPOS>SUBSTRUCTURE
     1 RES1        1 GROUP             0 ****  ****    0  
@<TRIPOS>MOLECULE
ligand_85
    15    15     1     0     0
SMALL
USER_CHARGES
****
Generated from the CSD

@<TRIPOS>ATOM
     1 N1      -8.8486   4.4155  10.0816   N.3       1 RES1   0.0000
     2 S2      -7.5790   5.1937   9.5077   S.o2      1 RES1   0.0000
     3 O3      -6.8438   4.3469   8.6002   O.2       1 RES1   0.0000
     4 O4      -7.9724   6.5083   9.0234   O.2       1 RES1   0.0000
     5 C5      -6.4792   5.5196  10.8665   C.2       1 RES1   0.0000
     6 C6      -6.4391   4.6429  11.9515   C.2       1 RES1   0.0000
     7 C7      -5.5960   4.9022  13.0142   C.2       1 RES1   0.0000
     8 C8      -4.7292   5.9788  13.0114   C.2       1 RES1   0.0000
     9 C9      -3.8578   6.2087  14.1978   C.3       1 RES1   0.0000
    10 C10     -2.3946   6.0462  13.9109   C.3       1 RES1   0.0000
    11 C11     -1.6993   7.2058  13.2379   C.2       1 RES1   0.0000
    12 O12     -2.3269   8.2570  13.0293   O.co2     1 RES1   0.0000
    13 O13     -0.4860   7.1405  12.9402   O.co2     1 RES1  -1.0000
    14 C14     -4.7774   6.8342  11.9168   C.2       1 RES1   0.0000
    15 C15     -5.6592   6.6454  10.8615   C.2       1 RES1   0.0000
@<TRIPOS>BOND
     1     1     2    1
     2     2     3    2
     3     2     4    2
     4     2     5    1
     5     5     6    2
     6     6     7    1
     7     7     8    2
     8     8     9    1
     9     9    10    1
    10    10    11    1
    11    11    12    2
    12    11    13    1
    13     8    14    1
    14    14    15    2
    15    15     5    1
@<TRIPOS>SUBSTRUCTURE
     1 RES1        1 GROUP             0 ****  ****    0  
@<TRIPOS>MOLECULE
ligand_86
    15    15     1     0     0
SMALL
USER_CHARGES
****
Generated from the CSD

@<TRIPOS>ATOM
     1 N1      -5.3989   0.6004  17.2127   N.3       1 RES1   0.0000
     2 S2      -4.7096   1.5217  18.3185   S.o2      1 RES1   0.0000
     3 O3      -5.7087   2.0726  19.2015   O.2       1 RES1   0.0000
     4 O4      -3.5915   0.8202  18.9309   O.2       1 RES1   0.0000
     5 C5      -3.9750   2.9124  17.4888   C.2       1 RES1   0.0000
     6 C6      -4.0771   3.0250  16.1015   C.2       1 RES1   0.0000
     7 C7      -3.4947   4.0969  15.4540   C.2       1 RES1   0.0000
     8 C8      -2.8627   5.1119  16.1475   C.2       1 RES1   0.0000
     9 C9      -2.2421   6.2313  15.3848   C.3       1 RES1   0.0000
    10 C10     -2.3920   6.1030  13.8980   C.3       1 RES1   0.0000
    11 C11     -1.7880   7.2010  13.0550   C.2       1 RES1   0.0000
    12 O12     -2.5090   8.1280  12.6510   O.co2     1 RES1   0.0000
    13 O13     -0.5620   7.2180  12.8070   O.co2     1 RES1  -1.0000
    14 C14     -2.7808   4.9859  17.5293   C.2       1 RES1   0.0000
    15 C15     -3.2933   3.8899  18.2096   C.2       1 RES1   0.0000
@<TRIPOS>BOND
     1     1     2    1
     2     2     3    2
     3     2     4    2
     4     2     5    1
     5     5     6    2
     6     6     7    1
     7     7     8    2
     8     8     9    1
     9     9    10    1
    10    10    11    1
    11    11    12    2
    12    11    13    1
    13     8    14    1
    14    14    15    2
    15    15     5    1
@<TRIPOS>SUBSTRUCTURE
     1 RES1        1 GROUP             0 ****  ****    0  
@<TRIPOS>MOLECULE
ligand_87
    15    15     1     0     0
SMALL
USER_CHARGES
****
Generated from the CSD

@<TRIPOS>ATOM
     1 N1      -4.4847   2.1233  20.1920   N.3       1 RES1   0.0000
     2 S2      -4.8296   1.8230  18.6630   S.o2      1 RES1   0.0000
     3 O3      -4.2090   0.5896  18.2452   O.2       1 RES1   0.0000
     4 O4      -6.2600   1.9614  18.4344   O.2       1 RES1   0.0000
     5 C5      -4.0850   3.1003  17.6751   C.2       1 RES1   0.0000
     6 C6      -3.3563   4.1180  18.2923   C.2       1 RES1   0.0000
     7 C7      -2.7895   5.1188  17.5277   C.2       1 RES1   0.0000
     8 C8      -2.8627   5.1119  16.1475   C.2       1 RES1   0.0000
     9 C9      -2.2421   6.2313  15.3848   C.3       1 RES1   0.0000
    10 C10     -2.3903   6.1020  13.8979   C.3       1 RES1   0.0000
    11 C11     -1.7862   7.1999  13.0549   C.2       1 RES1   0.0000
    12 O12     -2.5074   8.1261  12.6496   O.co2     1 RES1   0.0000
    13 O13     -0.5599   7.2177  12.8082   O.co2     1 RES1  -1.0000
    14 C14     -3.5843   4.0840  15.5516   C.2       1 RES1   0.0000
    15 C15     -4.2257   3.0986  16.2895   C.2       1 RES1   0.0000
@<TRIPOS>BOND
     1     1     2    1
     2     2     3    2
     3     2     4    2
     4     2     5    1
     5     5     6    2
     6     6     7    1
     7     7     8    2
     8     8     9    1
     9     9    10    1
    10    10    11    1
    11    11    12    2
    12    11    13    1
    13     8    14    1
    14    14    15    2
    15    15     5    1
@<TRIPOS>SUBSTRUCTURE
     1 RES1        1 GROUP             0 ****  ****    0  
@<TRIPOS>MOLECULE
ligand_88
    15    15     1     0     0
SMALL
USER_CHARGES
****
Generated from the CSD

@<TRIPOS>ATOM
     1 N1      -4.7744   0.6830  18.0205   N.3       1 RES1   0.0000
     2 S2      -5.9017   1.7987  17.8435   S.o2      1 RES1   0.0000
     3 O3      -6.9687   1.3011  17.0099   O.2       1 RES1   0.0000
     4 O4      -6.2687   2.3516  19.1385   O.2       1 RES1   0.0000
     5 C5      -5.1852   3.1612  16.9533   C.2       1 RES1   0.0000
     6 C6      -5.9890   3.9505  16.1297   C.2       1 RES1   0.0000
     7 C7      -5.4314   5.0002  15.4264   C.2       1 RES1   0.0000
     8 C8      -4.0994   5.3433  15.5628   C.2       1 RES1   0.0000
     9 C9      -3.5592   6.4777  14.7622   C.3       1 RES1   0.0000
    10 C10     -2.3920   6.1030  13.8980   C.3       1 RES1   0.0000
    11 C11     -1.7880   7.2010  13.0550   C.2       1 RES1   0.0000
    12 O12     -2.5090   8.1280  12.6510   O.co2     1 RES1   0.0000
    13 O13     -0.5620   7.2180  12.8070   O.co2     1 RES1  -1.0000
    14 C14     -3.3182   4.5509  16.3959   C.2       1 RES1   0.0000
    15 C15     -3.8266   3.4466  17.0659   C.2       1 RES1   0.0000
@<TRIPOS>BOND
     1     1     2    1
     2     2     3    2
     3     2     4    2
     4     2     5    1
     5     5     6    2
     6     6     7    1
     7     7     8    2
     8     8     9    1
     9     9    10    1
    10    10    11    1
    11    11    12    2
    12    11    13    1
    13     8    14    1
    14    14    15    2
    15    15     5    1
@<TRIPOS>SUBSTRUCTURE
     1 RES1        1 GROUP             0 ****  ****    0  
@<TRIPOS>MOLECULE
ligand_89
    15    15     1     0     0
SMALL
USER_CHARGES
****
Generated from the CSD

@<TRIPOS>ATOM
     1 N1      -7.1327   2.2160  18.6014   N.3       1 RES1   0.0000
     2 S2      -5.6168   1.9164  18.2024   S.o2      1 RES1   0.0000
     3 O3      -4.7802   1.9300  19.3776   O.2       1 RES1   0.0000
     4 O4      -5.5456   0.7422  17.3459   O.2       1 RES1   0.0000
     5 C5      -5.0457   3.2578  17.1843   C.2       1 RES1   0.0000
     6 C6      -3.6965   3.6139  17.1995   C.2       1 RES1   0.0000
     7 C7      -3.2539   4.6648  16.4203   C.2       1 RES1   0.0000
     8 C8      -4.0994   5.3433  15.5628   C.2       1 RES1   0.0000
     9 C9      -3.5592   6.4777  14.7622   C.3       1 RES1   0.0000
    10 C10     -2.3920   6.1030  13.8980   C.3       1 RES1   0.0000
    11 C11     -1.7880   7.2010  13.0550   C.2       1 RES1   0.0000
    12 O12     -2.5090   8.1280  12.6510   O.co2     1 RES1   0.0000
    13 O13     -0.5620   7.2180  12.8070   O.co2     1 RES1  -1.0000
    14 C14     -5.4373   4.9665  15.5550   C.2       1 RES1   0.0000
    15 C15     -5.9334   3.9614  16.3738   C.2       1 RES1   0.0000
@<TRIPOS>BOND
     1     1     2    1
     2     2     3    2
     3     2     4    2
     4     2     5    1
     5     5     6    2
     6     6     7    1
     7     7     8    2
     8     8     9    1
     9     9    10    1
    10    10    11    1
    11    11    12    2
    12    11    13    1
    13     8    14    1
    14    14    15    2
    15    15     5    1
@<TRIPOS>SUBSTRUCTURE
     1 RES1        1 GROUP             0 ****  ****    0  
@<TRIPOS>MOLECULE
ligand_90
    15    15     1     0     0
SMALL
USER_CHARGES
****
Generated from the CSD

@<TRIPOS>ATOM
     1 N1      -7.0096  10.5611  18.2148   N.3       1 RES1   0.0000
     2 S2      -5.4178  10.5882  18.1044   S.o2      1 RES1   0.0000
     3 O3      -4.9802  11.8307  17.5163   O.2       1 RES1   0.0000
     4 O4      -4.8198  10.2034  19.3739   O.2       1 RES1   0.0000
     5 C5      -4.9285   9.3131  16.9656   C.2       1 RES1   0.0000
     6 C6      -5.8996   8.5146  16.3599   C.2       1 RES1   0.0000
     7 C7      -5.5204   7.5144  15.4863   C.2       1 RES1   0.0000
     8 C8      -4.1986   7.3165  15.1340   C.2       1 RES1   0.0000
     9 C9      -3.8578   6.2087  14.1978   C.3       1 RES1   0.0000
    10 C10     -2.3925   6.1059  13.8944   C.3       1 RES1   0.0000
    11 C11     -1.7936   7.2030  13.0467   C.2       1 RES1   0.0000
    12 O12     -2.5180   8.1270  12.6420   O.co2     1 RES1   0.0000
    13 O13     -0.5683   7.2225  12.7953   O.co2     1 RES1  -1.0000
    14 C14     -3.2478   8.1290  15.7406   C.2       1 RES1   0.0000
    15 C15     -3.5833   9.0991  16.6750   C.2       1 RES1   0.0000
@<TRIPOS>BOND
     1     1     2    1
     2     2     3    2
     3     2     4    2
     4     2     5    1
     5     5     6    2
     6     6     7    1
     7     7     8    2
     8     8     9    1
     9     9    10    1
    10    10    11    1
    11    11    12    2
    12    11    13    1
    13     8    14    1
    14    14    15    2
    15    15     5    1
@<TRIPOS>SUBSTRUCTURE
     1 RES1        1 GROUP             0 ****  ****    0  
@<TRIPOS>MOLECULE
ligand_91
    15    15     1     0     0
SMALL
USER_CHARGES
****
Generated from the CSD

@<TRIPOS>ATOM
     1 N1      -9.0521   5.5144  10.0084   N.3       1 RES1   0.0000
     2 S2      -7.5602   5.4328   9.4476   S.o2      1 RES1   0.0000
     3 O3      -7.2918   4.1108   8.9361   O.2       1 RES1   0.0000
     4 O4      -7.2938   6.5573   8.5634   O.2       1 RES1   0.0000
     5 C5      -6.4495   5.6580  10.8178   C.2       1 RES1   0.0000
     6 C6      -6.9623   5.8604  12.0999   C.2       1 RES1   0.0000
     7 C7      -6.1012   6.0500  13.1629   C.2       1 RES1   0.0000
     8 C8      -4.7292   5.9788  13.0114   C.2       1 RES1   0.0000
     9 C9      -3.8578   6.2087  14.1978   C.3       1 RES1   0.0000
    10 C10     -2.3915   6.1241  13.8936   C.3       1 RES1   0.0000
    11 C11     -1.7968   7.2536  13.0864   C.2       1 RES1   0.0000
    12 O12     -2.5253   8.1878  12.7134   O.co2     1 RES1   0.0000
    13 O13     -0.5712   7.2881  12.8381   O.co2     1 RES1  -1.0000
    14 C14     -4.2389   5.7662  11.7282   C.2       1 RES1   0.0000
    15 C15     -5.0704   5.6395  10.6240   C.2       1 RES1   0.0000
@<TRIPOS>BOND
     1     1     2    1
     2     2     3    2
     3     2     4    2
     4     2     5    1
     5     5     6    2
     6     6     7    1
     7     7     8    2
     8     8     9    1
     9     9    10    1
    10    10    11    1
    11    11    12    2
    12    11    13    1
    13     8    14    1
    14    14    15    2
    15    15     5    1
@<TRIPOS>SUBSTRUCTURE
     1 RES1        1 GROUP             0 ****  ****    0  
@<TRIPOS>MOLECULE
ligand_92
    15    15     1     0     0
SMALL
USER_CHARGES
****
Generated from the CSD

@<TRIPOS>ATOM
     1 N1      -3.6709  11.4946  18.3255   N.3       1 RES1   0.0000
     2 S2      -5.0737  10.8529  17.9165   S.o2      1 RES1   0.0000
     3 O3      -5.7191  10.2859  19.0754   O.2       1 RES1   0.0000
     4 O4      -5.8432  11.7950  17.1179   O.2       1 RES1   0.0000
     5 C5      -4.7507   9.4875  16.8239   C.2       1 RES1   0.0000
     6 C6      -3.4355   9.1674  16.4845   C.2       1 RES1   0.0000
     7 C7      -3.1837   8.1163  15.6246   C.2       1 RES1   0.0000
     8 C8      -4.1986   7.3165  15.1340   C.2       1 RES1   0.0000
     9 C9      -3.8578   6.2087  14.1978   C.3       1 RES1   0.0000
    10 C10     -2.3947   6.1165  13.8810   C.3       1 RES1   0.0000
    11 C11     -1.8157   7.2072  13.0114   C.2       1 RES1   0.0000
    12 O12     -2.5538   8.1177  12.6007   O.co2     1 RES1   0.0000
    13 O13     -0.5933   7.2356  12.7474   O.co2     1 RES1  -1.0000
    14 C14     -5.5006   7.6459  15.4922   C.2       1 RES1   0.0000
    15 C15     -5.7988   8.7357  16.2985   C.2       1 RES1   0.0000
@<TRIPOS>BOND
     1     1     2    1
     2     2     3    2
     3     2     4    2
     4     2     5    1
     5     5     6    2
     6     6     7    1
     7     7     8    2
     8     8     9    1
     9     9    10    1
    10    10    11    1
    11    11    12    2
    12    11    13    1
    13     8    14    1
    14    14    15    2
    15    15     5    1
@<TRIPOS>SUBSTRUCTURE
     1 RES1        1 GROUP             0 ****  ****    0  
@<TRIPOS>MOLECULE
ligand_93
    15    15     1     0     0
SMALL
USER_CHARGES
****
Generated from the CSD

@<TRIPOS>ATOM
     1 N1      -6.2449   4.9027   8.0651   N.3       1 RES1   0.0000
     2 S2      -7.2532   5.1120   9.2843   S.o2      1 RES1   0.0000
     3 O3      -8.0530   6.2937   9.0722   O.2       1 RES1   0.0000
     4 O4      -7.9580   3.8717   9.5716   O.2       1 RES1   0.0000
     5 C5      -6.2870   5.4346  10.7418   C.2       1 RES1   0.0000
     6 C6      -4.8943   5.4644  10.6577   C.2       1 RES1   0.0000
     7 C7      -4.1419   5.7005  11.7915   C.2       1 RES1   0.0000
     8 C8      -4.7292   5.9788  13.0114   C.2       1 RES1   0.0000
     9 C9      -3.8578   6.2087  14.1978   C.3       1 RES1   0.0000
    10 C10     -2.3915   6.1257  13.8932   C.3       1 RES1   0.0000
    11 C11     -1.7998   7.2521  13.0795   C.2       1 RES1   0.0000
    12 O12     -2.5306   8.1825  12.7017   O.co2     1 RES1   0.0000
    13 O13     -0.5744   7.2879  12.8303   O.co2     1 RES1  -1.0000
    14 C14     -6.1177   5.9544  13.0717   C.2       1 RES1   0.0000
    15 C15     -6.9065   5.6536  11.9698   C.2       1 RES1   0.0000
@<TRIPOS>BOND
     1     1     2    1
     2     2     3    2
     3     2     4    2
     4     2     5    1
     5     5     6    2
     6     6     7    1
     7     7     8    2
     8     8     9    1
     9     9    10    1
    10    10    11    1
    11    11    12    2
    12    11    13    1
    13     8    14    1
    14    14    15    2
    15    15     5    1
@<TRIPOS>SUBSTRUCTURE
     1 RES1        1 GROUP             0 ****  ****    0  
@<TRIPOS>MOLECULE
ligand_94
    15    15     1     0     0
SMALL
USER_CHARGES
****
Generated from the CSD

@<TRIPOS>ATOM
     1 N1       0.7249   2.9771   7.7386   N.3       1 RES1   0.0000
     2 S2      -0.2460   4.2432   7.7055   S.o2      1 RES1   0.0000
     3 O3       0.5134   5.4475   7.4732   O.2       1 RES1   0.0000
     4 O4      -1.3762   3.9865   6.8255   O.2       1 RES1   0.0000
     5 C5      -0.9610   4.4245   9.3235   C.2       1 RES1   0.0000
     6 C6      -2.3462   4.3608   9.4805   C.2       1 RES1   0.0000
     7 C7      -2.9040   4.5158  10.7344   C.2       1 RES1   0.0000
     8 C8      -2.1242   4.6672  11.8656   C.2       1 RES1   0.0000
     9 C9      -2.7919   4.8452  13.1856   C.3       1 RES1   0.0000
    10 C10     -2.4595   6.1438  13.8584   C.3       1 RES1   0.0000
    11 C11     -1.9766   7.2668  12.9713   C.2       1 RES1   0.0000
    12 O12     -2.7900   8.1051  12.5494   O.co2     1 RES1   0.0000
    13 O13     -0.7614   7.3950  12.7036   O.co2     1 RES1  -1.0000
    14 C14     -0.7464   4.7178  11.6890   C.2       1 RES1   0.0000
    15 C15     -0.1518   4.6346  10.4375   C.2       1 RES1   0.0000
@<TRIPOS>BOND
     1     1     2    1
     2     2     3    2
     3     2     4    2
     4     2     5    1
     5     5     6    2
     6     6     7    1
     7     7     8    2
     8     8     9    1
     9     9    10    1
    10    10    11    1
    11    11    12    2
    12    11    13    1
    13     8    14    1
    14    14    15    2
    15    15     5    1
@<TRIPOS>SUBSTRUCTURE
     1 RES1        1 GROUP             0 ****  ****    0  
@<TRIPOS>MOLECULE
ligand_95
    15    15     1     0     0
SMALL
USER_CHARGES
****
Generated from the CSD

@<TRIPOS>ATOM
     1 N1      -0.8235   5.4095   6.7819   N.3       1 RES1   0.0000
     2 S2      -0.2460   4.2432   7.7055   S.o2      1 RES1   0.0000
     3 O3      -0.6887   2.9585   7.2209   O.2       1 RES1   0.0000
     4 O4       1.1836   4.4239   7.9075   O.2       1 RES1   0.0000
     5 C5      -0.9610   4.4245   9.3235   C.2       1 RES1   0.0000
     6 C6      -2.3462   4.3608   9.4805   C.2       1 RES1   0.0000
     7 C7      -2.9040   4.5158  10.7344   C.2       1 RES1   0.0000
     8 C8      -2.1242   4.6672  11.8656   C.2       1 RES1   0.0000
     9 C9      -2.7919   4.8452  13.1856   C.3       1 RES1   0.0000
    10 C10     -2.4595   6.1438  13.8584   C.3       1 RES1   0.0000
    11 C11     -1.9766   7.2668  12.9713   C.2       1 RES1   0.0000
    12 O12     -2.7900   8.1051  12.5494   O.co2     1 RES1   0.0000
    13 O13     -0.7614   7.3950  12.7036   O.co2     1 RES1  -1.0000
    14 C14     -0.7464   4.7178  11.6890   C.2       1 RES1   0.0000
    15 C15     -0.1518   4.6346  10.4375   C.2       1 RES1   0.0000
@<TRIPOS>BOND
     1     1     2    1
     2     2     3    2
     3     2     4    2
     4     2     5    1
     5     5     6    2
     6     6     7    1
     7     7     8    2
     8     8     9    1
     9     9    10    1
    10    10    11    1
    11    11    12    2
    12    11    13    1
    13     8    14    1
    14    14    15    2
    15    15     5    1
@<TRIPOS>SUBSTRUCTURE
     1 RES1        1 GROUP             0 ****  ****    0  
@<TRIPOS>MOLECULE
ligand_96
    15    15     1     0     0
SMALL
USER_CHARGES
****
Generated from the CSD

@<TRIPOS>ATOM
     1 N1      -6.5999   4.6500   8.2209   N.3       1 RES1   0.0000
     2 S2      -7.3938   5.5023   9.3118   S.o2      1 RES1   0.0000
     3 O3      -7.6278   6.8401   8.8254   O.2       1 RES1   0.0000
     4 O4      -8.5467   4.7550   9.7911   O.2       1 RES1   0.0000
     5 C5      -6.3428   5.6801  10.7352   C.2       1 RES1   0.0000
     6 C6      -6.4526   6.8145  11.5405   C.2       1 RES1   0.0000
     7 C7      -5.6272   6.9611  12.6381   C.2       1 RES1   0.0000
     8 C8      -4.7292   5.9788  13.0114   C.2       1 RES1   0.0000
     9 C9      -3.8578   6.2087  14.1978   C.3       1 RES1   0.0000
    10 C10     -2.3920   6.1030  13.8980   C.3       1 RES1   0.0000
    11 C11     -1.7880   7.2010  13.0550   C.2       1 RES1   0.0000
    12 O12     -2.5090   8.1280  12.6510   O.co2     1 RES1   0.0000
    13 O13     -0.5620   7.2180  12.8070   O.co2     1 RES1  -1.0000
    14 C14     -4.6426   4.8522  12.2018   C.2       1 RES1   0.0000
    15 C15     -5.4061   4.6996  11.0527   C.2       1 RES1   0.0000
@<TRIPOS>BOND
     1     1     2    1
     2     2     3    2
     3     2     4    2
     4     2     5    1
     5     5     6    2
     6     6     7    1
     7     7     8    2
     8     8     9    1
     9     9    10    1
    10    10    11    1
    11    11    12    2
    12    11    13    1
    13     8    14    1
    14    14    15    2
    15    15     5    1
@<TRIPOS>SUBSTRUCTURE
     1 RES1        1 GROUP             0 ****  ****    0  
@<TRIPOS>MOLECULE
ligand_97
    15    15     1     0     0
SMALL
USER_CHARGES
****
Generated from the CSD

@<TRIPOS>ATOM
     1 N1      -8.8405   5.7293   9.6574   N.3       1 RES1   0.0000
     2 S2      -7.4197   5.0424   9.4200   S.o2      1 RES1   0.0000
     3 O3      -7.5574   3.6066   9.4003   O.2       1 RES1   0.0000
     4 O4      -6.7440   5.6637   8.2909   O.2       1 RES1   0.0000
     5 C5      -6.3937   5.4126  10.8244   C.2       1 RES1   0.0000
     6 C6      -5.4041   4.5103  11.2170   C.2       1 RES1   0.0000
     7 C7      -4.6160   4.7895  12.3162   C.2       1 RES1   0.0000
     8 C8      -4.7292   5.9788  13.0114   C.2       1 RES1   0.0000
     9 C9      -3.8578   6.2087  14.1978   C.3       1 RES1   0.0000
    10 C10     -2.3920   6.1030  13.8980   C.3       1 RES1   0.0000
    11 C11     -1.7880   7.2010  13.0550   C.2       1 RES1   0.0000
    12 O12     -2.5090   8.1280  12.6510   O.co2     1 RES1   0.0000
    13 O13     -0.5620   7.2180  12.8070   O.co2     1 RES1  -1.0000
    14 C14     -5.7140   6.8684  12.5981   C.2       1 RES1   0.0000
    15 C15     -6.5708   6.5935  11.5411   C.2       1 RES1   0.0000
@<TRIPOS>BOND
     1     1     2    1
     2     2     3    2
     3     2     4    2
     4     2     5    1
     5     5     6    2
     6     6     7    1
     7     7     8    2
     8     8     9    1
     9     9    10    1
    10    10    11    1
    11    11    12    2
    12    11    13    1
    13     8    14    1
    14    14    15    2
    15    15     5    1
@<TRIPOS>SUBSTRUCTURE
     1 RES1        1 GROUP             0 ****  ****    0  
@<TRIPOS>MOLECULE
ligand_98
    15    15     1     0     0
SMALL
USER_CHARGES
****
Generated from the CSD

@<TRIPOS>ATOM
     1 N1       4.1452   7.0619  17.2627   N.3       1 RES1   0.0000
     2 S2       3.4428   5.6395  17.4360   S.o2      1 RES1   0.0000
     3 O3       4.0802   4.6623  16.5876   O.2       1 RES1   0.0000
     4 O4       3.3112   5.3131  18.8480   O.2       1 RES1   0.0000
     5 C5       1.7720   5.7807  16.8438   C.2       1 RES1   0.0000
     6 C6       1.3142   7.0009  16.3448   C.2       1 RES1   0.0000
     7 C7       0.0125   7.1162  15.8980   C.2       1 RES1   0.0000
     8 C8      -0.8455   6.0330  15.8646   C.2       1 RES1   0.0000
     9 C9      -2.2421   6.2313  15.3848   C.3       1 RES1   0.0000
    10 C10     -2.3920   6.1030  13.8980   C.3       1 RES1   0.0000
    11 C11     -1.7880   7.2010  13.0550   C.2       1 RES1   0.0000
    12 O12     -2.5090   8.1280  12.6510   O.co2     1 RES1   0.0000
    13 O13     -0.5620   7.2180  12.8070   O.co2     1 RES1  -1.0000
    14 C14     -0.3670   4.8242  16.3565   C.2       1 RES1   0.0000
    15 C15      0.9122   4.6855  16.8774   C.2       1 RES1   0.0000
@<TRIPOS>BOND
     1     1     2    1
     2     2     3    2
     3     2     4    2
     4     2     5    1
     5     5     6    2
     6     6     7    1
     7     7     8    2
     8     8     9    1
     9     9    10    1
    10    10    11    1
    11    11    12    2
    12    11    13    1
    13     8    14    1
    14    14    15    2
    15    15     5    1
@<TRIPOS>SUBSTRUCTURE
     1 RES1        1 GROUP             0 ****  ****    0  
@<TRIPOS>MOLECULE
ligand_99
    15    15     1     0     0
SMALL
USER_CHARGES
****
Generated from the CSD

@<TRIPOS>ATOM
     1 N1       3.5208   3.6758  17.6811   N.3       1 RES1   0.0000
     2 S2       3.4484   5.2083  17.2416   S.o2      1 RES1   0.0000
     3 O3       3.6625   6.0646  18.3826   O.2       1 RES1   0.0000
     4 O4       4.2825   5.4349  16.0710   O.2       1 RES1   0.0000
     5 C5       1.7905   5.5395  16.6902   C.2       1 RES1   0.0000
     6 C6       0.8383   4.5195  16.7048   C.2       1 RES1   0.0000
     7 C7      -0.4459   4.7713  16.2633   C.2       1 RES1   0.0000
     8 C8      -0.8455   6.0330  15.8646   C.2       1 RES1   0.0000
     9 C9      -2.2421   6.2313  15.3848   C.3       1 RES1   0.0000
    10 C10     -2.3920   6.1030  13.8980   C.3       1 RES1   0.0000
    11 C11     -1.7880   7.2010  13.0550   C.2       1 RES1   0.0000
    12 O12     -2.5090   8.1280  12.6510   O.co2     1 RES1   0.0000
    13 O13     -0.5620   7.2180  12.8070   O.co2     1 RES1  -1.0000
    14 C14      0.1153   7.0374  15.8672   C.2       1 RES1   0.0000
    15 C15      1.4329   6.8075  16.2385   C.2       1 RES1   0.0000
@<TRIPOS>BOND
     1     1     2    1
     2     2     3    2
     3     2     4    2
     4     2     5    1
     5     5     6    2
     6     6     7    1
     7     7     8    2
     8     8     9    1
     9     9    10    1
    10    10    11    1
    11    11    12    2
    12    11    13    1
    13     8    14    1
    14    14    15    2
    15    15     5    1
@<TRIPOS>SUBSTRUCTURE
     1 RES1        1 GROUP             0 ****  ****    0  
