@<TRIPOS>MOLECULE
native
    32    35     1     0     0
SMALL
USER_CHARGES
****
Generated from the CSD

@<TRIPOS>ATOM
     1 C1     -16.0130 -21.6030  -0.5070   C.3       1 RES1   0.0000
     2 C2     -15.3910 -20.2460  -0.8210   C.3       1 RES1   0.0000
     3 N3     -15.8870 -19.2000   0.0770   N.3       1 RES1   1.0000
     4 C4     -15.6800 -19.8770  -2.2450   C.2       1 RES1   0.0000
     5 N5     -14.8290 -19.9790  -3.1910   N.2       1 RES1   0.0000
     6 C6     -15.3870 -19.5710  -4.3420   C.2       1 RES1   0.0000
     7 C7     -14.6560 -19.5700  -5.6260   C.2       1 RES1   0.0000
     8 O8     -13.4710 -19.8500  -5.5660   O.2       1 RES1   0.0000
     9 N9     -15.2030 -19.3050  -6.8670   N.am      1 RES1   0.0000
    10 C10    -16.6210 -19.0390  -7.2240   C.3       1 RES1   0.0000
    11 C11    -16.7400 -19.4340  -8.7130   C.3       1 RES1   0.0000
    12 C12    -15.3830 -18.9390  -9.2710   C.3       1 RES1   0.0000
    13 C13    -14.4180 -19.2460  -8.1150   C.3       1 RES1   0.0000
    14 C14    -13.3780 -18.1660  -8.0110   C.2       1 RES1   0.0000
    15 O15    -13.6600 -17.0960  -7.4970   O.2       1 RES1   0.0000
    16 N16    -12.1310 -18.4170  -8.4490   N.am      1 RES1   0.0000
    17 C17    -11.3170 -17.3860  -9.0940   C.3       1 RES1   0.0000
    18 C18     -9.8060 -17.6140  -8.7860   C.3       1 RES1   0.0000
    19 C19     -9.2850 -18.9840  -9.2280   C.2       1 RES1   0.0000
    20 C20     -8.4750 -19.2130 -10.2800   C.2       1 RES1   0.0000
    21 N21     -8.2050 -20.5510 -10.3910   N.2       1 RES1   0.0000
    22 C22     -8.8410 -21.2490  -9.3960   C.2       1 RES1   0.0000
    23 C23     -8.8990 -22.6230  -9.0570   C.2       1 RES1   0.0000
    24 C24     -9.6530 -23.0390  -7.9540   C.2       1 RES1   0.0000
    25 C25    -10.3600 -22.0940  -7.1740   C.2       1 RES1   0.0000
    26 C26    -10.3150 -20.7400  -7.4940   C.2       1 RES1   0.0000
    27 C27     -9.5560 -20.2970  -8.6090   C.2       1 RES1   0.0000
    28 C28    -11.5980 -17.3970 -10.5920   C.2       1 RES1   0.0000
    29 O29    -11.8710 -18.5660 -11.2190   O.co2     1 RES1   0.0000
    30 O30    -11.5850 -16.3600 -11.2160   O.co2     1 RES1  -1.0000
    31 C31    -16.6630 -19.2010  -4.0500   C.2       1 RES1   0.0000
    32 O32    -16.8310 -19.3990  -2.7340   O.3       1 RES1   0.0000
@<TRIPOS>BOND
     1     2     1    1
     2     2     3    1
     3     2     4    1
     4     4     5    2
     5     5     6    1
     6     6     7    1
     7     7     8    2
     8     7     9   am
     9     9    10    1
    10    10    11    1
    11    11    12    1
    12    12    13    1
    13    13    14    1
    14    14    15    2
    15    14    16   am
    16    16    17    1
    17    17    18    1
    18    18    19    1
    19    19    20    2
    20    20    21    1
    21    21    22    1
    22    22    23    2
    23    23    24    1
    24    24    25    2
    25    25    26    1
    26    26    27    2
    27    17    28    1
    28    28    29    2
    29    28    30    1
    30     6    31    2
    31    31    32    1
    32    32     4    1
    33    13     9    1
    34    27    19    1
    35    27    22    1
@<TRIPOS>SUBSTRUCTURE
     1 RES1        1 GROUP             0 ****  ****    0  
@<TRIPOS>MOLECULE
ligand_0
    32    35     1     0     0
SMALL
USER_CHARGES
****
Generated from the CSD

@<TRIPOS>ATOM
     1 C1     -15.9290 -21.6646  -0.6430   C.3       1 RES1   0.0000
     2 C2     -15.3105 -20.3059  -0.9566   C.3       1 RES1   0.0000
     3 N3     -15.7821 -19.2686  -0.0356   N.3       1 RES1   1.0000
     4 C4     -15.6320 -19.9203  -2.3692   C.2       1 RES1   0.0000
     5 N5     -16.3560 -18.9170  -2.6835   N.2       1 RES1   0.0000
     6 C6     -16.4583 -18.8390  -4.0199   C.2       1 RES1   0.0000
     7 C7     -17.2323 -17.7798  -4.6997   C.2       1 RES1   0.0000
     8 O8     -16.8772 -17.5026  -5.8325   O.2       1 RES1   0.0000
     9 N9     -18.3192 -17.1086  -4.1727   N.am      1 RES1   0.0000
    10 C10    -19.0287 -17.3991  -2.9264   C.3       1 RES1   0.0000
    11 C11    -20.1845 -16.5213  -2.9411   C.3       1 RES1   0.0000
    12 C12    -20.2243 -15.7221  -4.0984   C.3       1 RES1   0.0000
    13 C13    -19.0212 -16.0870  -4.9522   C.3       1 RES1   0.0000
    14 C14    -18.1632 -14.8824  -5.2194   C.2       1 RES1   0.0000
    15 O15    -18.4896 -14.0802  -6.0787   O.2       1 RES1   0.0000
    16 N16    -17.0648 -14.6844  -4.4681   N.am      1 RES1   0.0000
    17 C17    -16.1947 -13.5241  -4.6634   C.3       1 RES1   0.0000
    18 C18    -15.2748 -13.3188  -3.4217   C.3       1 RES1   0.0000
    19 C19    -16.0305 -12.9167  -2.1524   C.2       1 RES1   0.0000
    20 C20    -16.1668 -11.6602  -1.6857   C.2       1 RES1   0.0000
    21 N21    -16.9002 -11.6586  -0.5291   N.2       1 RES1   0.0000
    22 C22    -17.2729 -12.9371  -0.2001   C.2       1 RES1   0.0000
    23 C23    -18.0210 -13.4866   0.8698   C.2       1 RES1   0.0000
    24 C24    -18.2393 -14.8673   0.9327   C.2       1 RES1   0.0000
    25 C25    -17.7157 -15.7201  -0.0673   C.2       1 RES1   0.0000
    26 C26    -16.9771 -15.1969  -1.1249   C.2       1 RES1   0.0000
    27 C27    -16.7441 -13.7989  -1.2074   C.2       1 RES1   0.0000
    28 C28    -15.3869 -13.7191  -5.9411   C.2       1 RES1   0.0000
    29 O29    -15.1980 -14.9652  -6.4367   O.co2     1 RES1   0.0000
    30 O30    -14.9235 -12.7591  -6.5144   O.co2     1 RES1  -1.0000
    31 C31    -15.7398 -19.8754  -4.5297   C.2       1 RES1   0.0000
    32 O32    -15.2286 -20.5422  -3.4841   O.3       1 RES1   0.0000
@<TRIPOS>BOND
     1     2     1    1
     2     2     3    1
     3     2     4    1
     4     4     5    2
     5     5     6    1
     6     6     7    1
     7     7     8    2
     8     7     9   am
     9     9    10    1
    10    10    11    1
    11    11    12    1
    12    12    13    1
    13    13    14    1
    14    14    15    2
    15    14    16   am
    16    16    17    1
    17    17    18    1
    18    18    19    1
    19    19    20    2
    20    20    21    1
    21    21    22    1
    22    22    23    2
    23    23    24    1
    24    24    25    2
    25    25    26    1
    26    26    27    2
    27    17    28    1
    28    28    29    2
    29    28    30    1
    30     6    31    2
    31    31    32    1
    32    32     4    1
    33    13     9    1
    34    27    19    1
    35    27    22    1
@<TRIPOS>SUBSTRUCTURE
     1 RES1        1 GROUP             0 ****  ****    0  
@<TRIPOS>MOLECULE
ligand_1
    32    35     1     0     0
SMALL
USER_CHARGES
****
Generated from the CSD

@<TRIPOS>ATOM
     1 C1     -15.9568 -21.6348  -0.5851   C.3       1 RES1   0.0000
     2 C2     -15.3379 -20.2768  -0.9010   C.3       1 RES1   0.0000
     3 N3     -15.8191 -19.2352   0.0101   N.3       1 RES1   1.0000
     4 C4     -15.6478 -19.8997  -2.3184   C.2       1 RES1   0.0000
     5 N5     -16.3707 -18.8994  -2.6445   N.2       1 RES1   0.0000
     6 C6     -16.4616 -18.8289  -3.9822   C.2       1 RES1   0.0000
     7 C7     -17.2314 -17.7749  -4.6746   C.2       1 RES1   0.0000
     8 O8     -16.8670 -17.5033  -5.8058   O.2       1 RES1   0.0000
     9 N9     -18.3239 -17.1026  -4.1607   N.am      1 RES1   0.0000
    10 C10    -19.0433 -17.3870  -2.9187   C.3       1 RES1   0.0000
    11 C11    -20.2005 -16.5115  -2.9484   C.3       1 RES1   0.0000
    12 C12    -20.2321 -15.7193  -4.1108   C.3       1 RES1   0.0000
    13 C13    -19.0212 -16.0870  -4.9522   C.3       1 RES1   0.0000
    14 C14    -18.1632 -14.8824  -5.2194   C.2       1 RES1   0.0000
    15 O15    -18.4896 -14.0802  -6.0787   O.2       1 RES1   0.0000
    16 N16    -17.0648 -14.6844  -4.4681   N.am      1 RES1   0.0000
    17 C17    -16.2089 -13.5108  -4.6461   C.3       1 RES1   0.0000
    18 C18    -15.2720 -13.3288  -3.4136   C.3       1 RES1   0.0000
    19 C19    -16.0156 -13.0120  -2.1134   C.2       1 RES1   0.0000
    20 C20    -16.2736 -13.8891  -1.1237   C.2       1 RES1   0.0000
    21 N21    -16.9570 -13.2744  -0.1086   N.2       1 RES1   0.0000
    22 C22    -17.1689 -11.9529  -0.4094   C.2       1 RES1   0.0000
    23 C23    -17.8090 -10.8908   0.2750   C.2       1 RES1   0.0000
    24 C24    -17.8644  -9.6187  -0.3054   C.2       1 RES1   0.0000
    25 C25    -17.2845  -9.3863  -1.5746   C.2       1 RES1   0.0000
    26 C26    -16.6527 -10.4191  -2.2615   C.2       1 RES1   0.0000
    27 C27    -16.5855 -11.7171  -1.6904   C.2       1 RES1   0.0000
    28 C28    -15.4191 -13.6645  -5.9406   C.2       1 RES1   0.0000
    29 O29    -15.2260 -14.8953  -6.4715   O.co2     1 RES1   0.0000
    30 O30    -14.9737 -12.6854  -6.4955   O.co2     1 RES1  -1.0000
    31 C31    -15.7370 -19.8670  -4.4800   C.2       1 RES1   0.0000
    32 O32    -15.2337 -20.5270  -3.4263   O.3       1 RES1   0.0000
@<TRIPOS>BOND
     1     2     1    1
     2     2     3    1
     3     2     4    1
     4     4     5    2
     5     5     6    1
     6     6     7    1
     7     7     8    2
     8     7     9   am
     9     9    10    1
    10    10    11    1
    11    11    12    1
    12    12    13    1
    13    13    14    1
    14    14    15    2
    15    14    16   am
    16    16    17    1
    17    17    18    1
    18    18    19    1
    19    19    20    2
    20    20    21    1
    21    21    22    1
    22    22    23    2
    23    23    24    1
    24    24    25    2
    25    25    26    1
    26    26    27    2
    27    17    28    1
    28    28    29    2
    29    28    30    1
    30     6    31    2
    31    31    32    1
    32    32     4    1
    33    13     9    1
    34    27    19    1
    35    27    22    1
@<TRIPOS>SUBSTRUCTURE
     1 RES1        1 GROUP             0 ****  ****    0  
@<TRIPOS>MOLECULE
ligand_2
    32    35     1     0     0
SMALL
USER_CHARGES
****
Generated from the CSD

@<TRIPOS>ATOM
     1 C1     -15.9956 -21.5838  -0.4944   C.3       1 RES1   0.0000
     2 C2     -15.3769 -20.2270  -0.8155   C.3       1 RES1   0.0000
     3 N3     -15.8726 -19.1783   0.0794   N.3       1 RES1   1.0000
     4 C4     -15.6702 -19.8644  -2.2403   C.2       1 RES1   0.0000
     5 N5     -16.3919 -18.8695  -2.5850   N.2       1 RES1   0.0000
     6 C6     -16.4662 -18.8121  -3.9243   C.2       1 RES1   0.0000
     7 C7     -17.2304 -17.7671  -4.6363   C.2       1 RES1   0.0000
     8 O8     -16.8527 -17.5052  -5.7655   O.2       1 RES1   0.0000
     9 N9     -18.3313 -17.0933  -4.1426   N.am      1 RES1   0.0000
    10 C10    -19.0657 -17.3685  -2.9073   C.3       1 RES1   0.0000
    11 C11    -20.2249 -16.4967  -2.9598   C.3       1 RES1   0.0000
    12 C12    -20.2438 -15.7152  -4.1297   C.3       1 RES1   0.0000
    13 C13    -19.0212 -16.0870  -4.9522   C.3       1 RES1   0.0000
    14 C14    -18.1632 -14.8824  -5.2194   C.2       1 RES1   0.0000
    15 O15    -17.3814 -14.4903  -4.3686   O.2       1 RES1   0.0000
    16 N16    -18.2401 -14.2800  -6.4198   N.am      1 RES1   0.0000
    17 C17    -17.3978 -13.1339  -6.7641   C.3       1 RES1   0.0000
    18 C18    -17.3860 -12.9113  -8.3069   C.3       1 RES1   0.0000
    19 C19    -16.7213 -14.0464  -9.0901   C.2       1 RES1   0.0000
    20 C20    -15.4525 -14.0486  -9.5432   C.2       1 RES1   0.0000
    21 N21    -15.1844 -15.2181 -10.2034   N.2       1 RES1   0.0000
    22 C22    -16.2897 -16.0305 -10.2003   C.2       1 RES1   0.0000
    23 C23    -16.5509 -17.3181 -10.7293   C.2       1 RES1   0.0000
    24 C24    -17.8117 -17.9007 -10.5586   C.2       1 RES1   0.0000
    25 C25    -18.8297 -17.2100  -9.8601   C.2       1 RES1   0.0000
    26 C26    -18.5903 -15.9432  -9.3351   C.2       1 RES1   0.0000
    27 C27    -17.3182 -15.3342  -9.4972   C.2       1 RES1   0.0000
    28 C28    -17.9033 -11.9048  -6.0179   C.2       1 RES1   0.0000
    29 O29    -19.1807 -11.8651  -5.5699   O.co2     1 RES1   0.0000
    30 O30    -17.1594 -10.9707  -5.8201   O.co2     1 RES1  -1.0000
    31 C31    -15.7323 -19.8526  -4.4030   C.2       1 RES1   0.0000
    32 O32    -15.2403 -20.5010  -3.3368   O.3       1 RES1   0.0000
@<TRIPOS>BOND
     1     2     1    1
     2     2     3    1
     3     2     4    1
     4     4     5    2
     5     5     6    1
     6     6     7    1
     7     7     8    2
     8     7     9   am
     9     9    10    1
    10    10    11    1
    11    11    12    1
    12    12    13    1
    13    13    14    1
    14    14    15    2
    15    14    16   am
    16    16    17    1
    17    17    18    1
    18    18    19    1
    19    19    20    2
    20    20    21    1
    21    21    22    1
    22    22    23    2
    23    23    24    1
    24    24    25    2
    25    25    26    1
    26    26    27    2
    27    17    28    1
    28    28    29    2
    29    28    30    1
    30     6    31    2
    31    31    32    1
    32    32     4    1
    33    13     9    1
    34    27    19    1
    35    27    22    1
@<TRIPOS>SUBSTRUCTURE
     1 RES1        1 GROUP             0 ****  ****    0  
@<TRIPOS>MOLECULE
ligand_3
    32    35     1     0     0
SMALL
USER_CHARGES
****
Generated from the CSD

@<TRIPOS>ATOM
     1 C1     -15.9973 -21.5857  -0.4957   C.3       1 RES1   0.0000
     2 C2     -15.3783 -20.2289  -0.8161   C.3       1 RES1   0.0000
     3 N3     -15.8740 -19.1804   0.0792   N.3       1 RES1   1.0000
     4 C4     -15.6711 -19.8656  -2.2408   C.2       1 RES1   0.0000
     5 N5     -16.3926 -18.8705  -2.5852   N.2       1 RES1   0.0000
     6 C6     -16.4666 -18.8125  -3.9245   C.2       1 RES1   0.0000
     7 C7     -17.2304 -17.7671  -4.6363   C.2       1 RES1   0.0000
     8 O8     -16.8524 -17.5049  -5.7653   O.2       1 RES1   0.0000
     9 N9     -18.3313 -17.0933  -4.1426   N.am      1 RES1   0.0000
    10 C10    -19.0657 -17.3685  -2.9073   C.3       1 RES1   0.0000
    11 C11    -20.2249 -16.4967  -2.9598   C.3       1 RES1   0.0000
    12 C12    -20.2438 -15.7152  -4.1297   C.3       1 RES1   0.0000
    13 C13    -19.0212 -16.0870  -4.9522   C.3       1 RES1   0.0000
    14 C14    -18.1632 -14.8824  -5.2194   C.2       1 RES1   0.0000
    15 O15    -17.3814 -14.4903  -4.3686   O.2       1 RES1   0.0000
    16 N16    -18.2401 -14.2800  -6.4198   N.am      1 RES1   0.0000
    17 C17    -17.3978 -13.1339  -6.7641   C.3       1 RES1   0.0000
    18 C18    -17.3999 -12.9006  -8.3054   C.3       1 RES1   0.0000
    19 C19    -16.7633 -14.0411  -9.1040   C.2       1 RES1   0.0000
    20 C20    -17.4334 -14.9956  -9.7785   C.2       1 RES1   0.0000
    21 N21    -16.5566 -15.8591 -10.3793   N.2       1 RES1   0.0000
    22 C22    -15.2636 -15.4873 -10.1116   C.2       1 RES1   0.0000
    23 C23    -14.0034 -16.0202 -10.4775   C.2       1 RES1   0.0000
    24 C24    -12.8285 -15.4003 -10.0376   C.2       1 RES1   0.0000
    25 C25    -12.8915 -14.2424  -9.2273   C.2       1 RES1   0.0000
    26 C26    -14.1217 -13.7063  -8.8573   C.2       1 RES1   0.0000
    27 C27    -15.3255 -14.3199  -9.2928   C.2       1 RES1   0.0000
    28 C28    -17.8927 -11.9086  -6.0047   C.2       1 RES1   0.0000
    29 O29    -19.1658 -11.8684  -5.5444   O.co2     1 RES1   0.0000
    30 O30    -17.1444 -10.9780  -5.8074   O.co2     1 RES1  -1.0000
    31 C31    -15.7327 -19.8529  -4.4035   C.2       1 RES1   0.0000
    32 O32    -15.2411 -20.5019  -3.3374   O.3       1 RES1   0.0000
@<TRIPOS>BOND
     1     2     1    1
     2     2     3    1
     3     2     4    1
     4     4     5    2
     5     5     6    1
     6     6     7    1
     7     7     8    2
     8     7     9   am
     9     9    10    1
    10    10    11    1
    11    11    12    1
    12    12    13    1
    13    13    14    1
    14    14    15    2
    15    14    16   am
    16    16    17    1
    17    17    18    1
    18    18    19    1
    19    19    20    2
    20    20    21    1
    21    21    22    1
    22    22    23    2
    23    23    24    1
    24    24    25    2
    25    25    26    1
    26    26    27    2
    27    17    28    1
    28    28    29    2
    29    28    30    1
    30     6    31    2
    31    31    32    1
    32    32     4    1
    33    13     9    1
    34    27    19    1
    35    27    22    1
@<TRIPOS>SUBSTRUCTURE
     1 RES1        1 GROUP             0 ****  ****    0  
@<TRIPOS>MOLECULE
ligand_4
    32    35     1     0     0
SMALL
USER_CHARGES
****
Generated from the CSD

@<TRIPOS>ATOM
     1 C1     -16.1447 -21.4741  -0.5254   C.3       1 RES1   0.0000
     2 C2     -15.4921 -20.1322  -0.8423   C.3       1 RES1   0.0000
     3 N3     -15.9786 -19.0693   0.0409   N.3       1 RES1   1.0000
     4 C4     -15.7557 -19.7694  -2.2727   C.2       1 RES1   0.0000
     5 N5     -14.8365 -19.5146  -3.1210   N.2       1 RES1   0.0000
     6 C6     -15.3906 -19.2239  -4.3089   C.2       1 RES1   0.0000
     7 C7     -14.5873 -18.8853  -5.5019   C.2       1 RES1   0.0000
     8 O8     -15.1384 -18.1882  -6.3364   O.2       1 RES1   0.0000
     9 N9     -13.2798 -19.2691  -5.7311   N.am      1 RES1   0.0000
    10 C10    -12.3701 -19.9384  -4.8006   C.3       1 RES1   0.0000
    11 C11    -11.0844 -19.9436  -5.4739   C.3       1 RES1   0.0000
    12 C12    -11.1498 -19.3320  -6.7393   C.3       1 RES1   0.0000
    13 C13    -12.5773 -18.8539  -6.9469   C.3       1 RES1   0.0000
    14 C14    -13.1745 -19.4586  -8.1865   C.2       1 RES1   0.0000
    15 O15    -12.8957 -19.0014  -9.2827   O.2       1 RES1   0.0000
    16 N16    -13.9770 -20.5318  -8.0670   N.am      1 RES1   0.0000
    17 C17    -14.5780 -21.1801  -9.2332   C.3       1 RES1   0.0000
    18 C18    -15.0895 -22.6046  -8.8605   C.3       1 RES1   0.0000
    19 C19    -13.9718 -23.5910  -8.5119   C.2       1 RES1   0.0000
    20 C20    -13.4394 -24.5014  -9.3504   C.2       1 RES1   0.0000
    21 N21    -12.4625 -25.2205  -8.7149   N.2       1 RES1   0.0000
    22 C22    -12.3238 -24.7931  -7.4189   C.2       1 RES1   0.0000
    23 C23    -11.4810 -25.1864  -6.3506   C.2       1 RES1   0.0000
    24 C24    -11.5770 -24.5427  -5.1118   C.2       1 RES1   0.0000
    25 C25    -12.5130 -23.4998  -4.9188   C.2       1 RES1   0.0000
    26 C26    -13.3499 -23.1016  -5.9575   C.2       1 RES1   0.0000
    27 C27    -13.2687 -23.7417  -7.2222   C.2       1 RES1   0.0000
    28 C28    -15.6994 -20.2974  -9.7687   C.2       1 RES1   0.0000
    29 O29    -16.2859 -19.3850  -8.9577   O.co2     1 RES1   0.0000
    30 O30    -16.0571 -20.4080 -10.9196   O.co2     1 RES1  -1.0000
    31 C31    -16.7381 -19.3146  -4.1461   C.2       1 RES1   0.0000
    32 O32    -16.9503 -19.6574  -2.8668   O.3       1 RES1   0.0000
@<TRIPOS>BOND
     1     2     1    1
     2     2     3    1
     3     2     4    1
     4     4     5    2
     5     5     6    1
     6     6     7    1
     7     7     8    2
     8     7     9   am
     9     9    10    1
    10    10    11    1
    11    11    12    1
    12    12    13    1
    13    13    14    1
    14    14    15    2
    15    14    16   am
    16    16    17    1
    17    17    18    1
    18    18    19    1
    19    19    20    2
    20    20    21    1
    21    21    22    1
    22    22    23    2
    23    23    24    1
    24    24    25    2
    25    25    26    1
    26    26    27    2
    27    17    28    1
    28    28    29    2
    29    28    30    1
    30     6    31    2
    31    31    32    1
    32    32     4    1
    33    13     9    1
    34    27    19    1
    35    27    22    1
@<TRIPOS>SUBSTRUCTURE
     1 RES1        1 GROUP             0 ****  ****    0  
@<TRIPOS>MOLECULE
ligand_5
    32    35     1     0     0
SMALL
USER_CHARGES
****
Generated from the CSD

@<TRIPOS>ATOM
     1 C1     -16.0938 -21.5303  -0.5204   C.3       1 RES1   0.0000
     2 C2     -15.4539 -20.1817  -0.8349   C.3       1 RES1   0.0000
     3 N3     -15.9454 -19.1265   0.0547   N.3       1 RES1   1.0000
     4 C4     -15.7271 -19.8155  -2.2627   C.2       1 RES1   0.0000
     5 N5     -14.8139 -19.5497  -3.1141   N.2       1 RES1   0.0000
     6 C6     -15.3758 -19.2590  -4.2983   C.2       1 RES1   0.0000
     7 C7     -14.5808 -18.9089  -5.4935   C.2       1 RES1   0.0000
     8 O8     -15.1417 -18.2136  -6.3231   O.2       1 RES1   0.0000
     9 N9     -13.2709 -19.2803  -5.7299   N.am      1 RES1   0.0000
    10 C10    -12.3515 -19.9456  -4.8061   C.3       1 RES1   0.0000
    11 C11    -11.0686 -19.9367  -5.4848   C.3       1 RES1   0.0000
    12 C12    -11.1448 -19.3203  -6.7474   C.3       1 RES1   0.0000
    13 C13    -12.5773 -18.8539  -6.9469   C.3       1 RES1   0.0000
    14 C14    -13.1745 -19.4586  -8.1865   C.2       1 RES1   0.0000
    15 O15    -12.8957 -19.0014  -9.2827   O.2       1 RES1   0.0000
    16 N16    -13.9770 -20.5318  -8.0670   N.am      1 RES1   0.0000
    17 C17    -14.5573 -21.1957  -9.2349   C.3       1 RES1   0.0000
    18 C18    -15.0924 -22.6078  -8.8480   C.3       1 RES1   0.0000
    19 C19    -13.9980 -23.5852  -8.4113   C.2       1 RES1   0.0000
    20 C20    -13.7116 -23.9248  -7.1394   C.2       1 RES1   0.0000
    21 N21    -12.6759 -24.8202  -7.1070   N.2       1 RES1   0.0000
    22 C22    -12.2475 -25.0986  -8.3801   C.2       1 RES1   0.0000
    23 C23    -11.2317 -25.9362  -8.9023   C.2       1 RES1   0.0000
    24 C24    -11.0311 -26.0118 -10.2852   C.2       1 RES1   0.0000
    25 C25    -11.8377 -25.2546 -11.1669   C.2       1 RES1   0.0000
    26 C26    -12.8395 -24.4254 -10.6704   C.2       1 RES1   0.0000
    27 C27    -13.0595 -24.3343  -9.2708   C.2       1 RES1   0.0000
    28 C28    -15.6564 -20.3120  -9.8130   C.2       1 RES1   0.0000
    29 O29    -16.2521 -19.3786  -9.0332   O.co2     1 RES1   0.0000
    30 O30    -15.9881 -20.4406 -10.9699   O.co2     1 RES1  -1.0000
    31 C31    -16.7217 -19.3617  -4.1299   C.2       1 RES1   0.0000
    32 O32    -16.9253 -19.7112  -2.8509   O.3       1 RES1   0.0000
@<TRIPOS>BOND
     1     2     1    1
     2     2     3    1
     3     2     4    1
     4     4     5    2
     5     5     6    1
     6     6     7    1
     7     7     8    2
     8     7     9   am
     9     9    10    1
    10    10    11    1
    11    11    12    1
    12    12    13    1
    13    13    14    1
    14    14    15    2
    15    14    16   am
    16    16    17    1
    17    17    18    1
    18    18    19    1
    19    19    20    2
    20    20    21    1
    21    21    22    1
    22    22    23    2
    23    23    24    1
    24    24    25    2
    25    25    26    1
    26    26    27    2
    27    17    28    1
    28    28    29    2
    29    28    30    1
    30     6    31    2
    31    31    32    1
    32    32     4    1
    33    13     9    1
    34    27    19    1
    35    27    22    1
@<TRIPOS>SUBSTRUCTURE
     1 RES1        1 GROUP             0 ****  ****    0  
@<TRIPOS>MOLECULE
ligand_6
    32    35     1     0     0
SMALL
USER_CHARGES
****
Generated from the CSD

@<TRIPOS>ATOM
     1 C1     -15.9571 -21.6347  -0.5847   C.3       1 RES1   0.0000
     2 C2     -15.3382 -20.2767  -0.9006   C.3       1 RES1   0.0000
     3 N3     -15.8195 -19.2351   0.0104   N.3       1 RES1   1.0000
     4 C4     -15.6480 -19.8996  -2.3181   C.2       1 RES1   0.0000
     5 N5     -16.3709 -18.8993  -2.6442   N.2       1 RES1   0.0000
     6 C6     -16.4616 -18.8289  -3.9819   C.2       1 RES1   0.0000
     7 C7     -17.2314 -17.7749  -4.6744   C.2       1 RES1   0.0000
     8 O8     -16.8669 -17.5033  -5.8056   O.2       1 RES1   0.0000
     9 N9     -18.3239 -17.1026  -4.1606   N.am      1 RES1   0.0000
    10 C10    -19.0434 -17.3869  -2.9186   C.3       1 RES1   0.0000
    11 C11    -20.2006 -16.5114  -2.9485   C.3       1 RES1   0.0000
    12 C12    -20.2322 -15.7193  -4.1109   C.3       1 RES1   0.0000
    13 C13    -19.0212 -16.0870  -4.9522   C.3       1 RES1   0.0000
    14 C14    -18.1632 -14.8824  -5.2194   C.2       1 RES1   0.0000
    15 O15    -18.4896 -14.0802  -6.0787   O.2       1 RES1   0.0000
    16 N16    -17.0648 -14.6844  -4.4681   N.am      1 RES1   0.0000
    17 C17    -16.2104 -13.5094  -4.6441   C.3       1 RES1   0.0000
    18 C18    -16.0216 -12.7658  -3.2872   C.3       1 RES1   0.0000
    19 C19    -17.3133 -12.1648  -2.7268   C.2       1 RES1   0.0000
    20 C20    -18.0558 -12.6897  -1.7327   C.2       1 RES1   0.0000
    21 N21    -19.1449 -11.8980  -1.4824   N.2       1 RES1   0.0000
    22 C22    -19.1460 -10.8115  -2.3198   C.2       1 RES1   0.0000
    23 C23    -20.0204  -9.7090  -2.4802   C.2       1 RES1   0.0000
    24 C24    -19.7463  -8.7350  -3.4469   C.2       1 RES1   0.0000
    25 C25    -18.5992  -8.8452  -4.2674   C.2       1 RES1   0.0000
    26 C26    -17.7300  -9.9230  -4.1239   C.2       1 RES1   0.0000
    27 C27    -17.9898 -10.9221  -3.1493   C.2       1 RES1   0.0000
    28 C28    -14.8781 -13.9494  -5.2395   C.2       1 RES1   0.0000
    29 O29    -14.4706 -15.2341  -5.1062   O.co2     1 RES1   0.0000
    30 O30    -14.1916 -13.1518  -5.8374   O.co2     1 RES1  -1.0000
    31 C31    -15.7370 -19.8669  -4.4796   C.2       1 RES1   0.0000
    32 O32    -15.2338 -20.5270  -3.4259   O.3       1 RES1   0.0000
@<TRIPOS>BOND
     1     2     1    1
     2     2     3    1
     3     2     4    1
     4     4     5    2
     5     5     6    1
     6     6     7    1
     7     7     8    2
     8     7     9   am
     9     9    10    1
    10    10    11    1
    11    11    12    1
    12    12    13    1
    13    13    14    1
    14    14    15    2
    15    14    16   am
    16    16    17    1
    17    17    18    1
    18    18    19    1
    19    19    20    2
    20    20    21    1
    21    21    22    1
    22    22    23    2
    23    23    24    1
    24    24    25    2
    25    25    26    1
    26    26    27    2
    27    17    28    1
    28    28    29    2
    29    28    30    1
    30     6    31    2
    31    31    32    1
    32    32     4    1
    33    13     9    1
    34    27    19    1
    35    27    22    1
@<TRIPOS>SUBSTRUCTURE
     1 RES1        1 GROUP             0 ****  ****    0  
@<TRIPOS>MOLECULE
ligand_7
    32    35     1     0     0
SMALL
USER_CHARGES
****
Generated from the CSD

@<TRIPOS>ATOM
     1 C1     -16.0176 -21.6182  -0.5165   C.3       1 RES1   0.0000
     2 C2     -15.3979 -20.2591  -0.8259   C.3       1 RES1   0.0000
     3 N3     -15.8979 -19.2164   0.0736   N.3       1 RES1   1.0000
     4 C4     -15.6847 -19.8873  -2.2496   C.2       1 RES1   0.0000
     5 N5     -14.7804 -19.6037  -3.1047   N.2       1 RES1   0.0000
     6 C6     -15.3534 -19.3128  -4.2836   C.2       1 RES1   0.0000
     7 C7     -14.5705 -18.9443  -5.4812   C.2       1 RES1   0.0000
     8 O8     -15.1456 -18.2507  -6.3025   O.2       1 RES1   0.0000
     9 N9     -13.2574 -19.2969  -5.7282   N.am      1 RES1   0.0000
    10 C10    -12.3235 -19.9559  -4.8146   C.3       1 RES1   0.0000
    11 C11    -11.0452 -19.9259  -5.5013   C.3       1 RES1   0.0000
    12 C12    -11.1375 -19.3028  -6.7594   C.3       1 RES1   0.0000
    13 C13    -12.5773 -18.8539  -6.9469   C.3       1 RES1   0.0000
    14 C14    -13.1745 -19.4586  -8.1865   C.2       1 RES1   0.0000
    15 O15    -13.6098 -20.5981  -8.1596   O.2       1 RES1   0.0000
    16 N16    -13.2609 -18.7100  -9.3009   N.am      1 RES1   0.0000
    17 C17    -13.8758 -19.2192 -10.5274   C.3       1 RES1   0.0000
    18 C18    -14.2176 -18.0442 -11.4930   C.3       1 RES1   0.0000
    19 C19    -15.2977 -17.0997 -10.9591   C.2       1 RES1   0.0000
    20 C20    -16.6047 -17.1395 -11.2838   C.2       1 RES1   0.0000
    21 N21    -17.2890 -16.1513 -10.6276   N.2       1 RES1   0.0000
    22 C22    -16.4343 -15.4236  -9.8390   C.2       1 RES1   0.0000
    23 C23    -16.6150 -14.3170  -8.9736   C.2       1 RES1   0.0000
    24 C24    -15.5197 -13.7813  -8.2869   C.2       1 RES1   0.0000
    25 C25    -14.2300 -14.3387  -8.4524   C.2       1 RES1   0.0000
    26 C26    -14.0345 -15.4254  -9.3001   C.2       1 RES1   0.0000
    27 C27    -15.1324 -15.9839 -10.0061   C.2       1 RES1   0.0000
    28 C28    -12.9332 -20.2277 -11.1734   C.2       1 RES1   0.0000
    29 O29    -11.6107 -20.1978 -10.8828   O.co2     1 RES1   0.0000
    30 O30    -13.3700 -21.0583 -11.9377   O.co2     1 RES1  -1.0000
    31 C31    -16.6967 -19.4347  -4.1076   C.2       1 RES1   0.0000
    32 O32    -16.8877 -19.7953  -2.8298   O.3       1 RES1   0.0000
@<TRIPOS>BOND
     1     2     1    1
     2     2     3    1
     3     2     4    1
     4     4     5    2
     5     5     6    1
     6     6     7    1
     7     7     8    2
     8     7     9   am
     9     9    10    1
    10    10    11    1
    11    11    12    1
    12    12    13    1
    13    13    14    1
    14    14    15    2
    15    14    16   am
    16    16    17    1
    17    17    18    1
    18    18    19    1
    19    19    20    2
    20    20    21    1
    21    21    22    1
    22    22    23    2
    23    23    24    1
    24    24    25    2
    25    25    26    1
    26    26    27    2
    27    17    28    1
    28    28    29    2
    29    28    30    1
    30     6    31    2
    31    31    32    1
    32    32     4    1
    33    13     9    1
    34    27    19    1
    35    27    22    1
@<TRIPOS>SUBSTRUCTURE
     1 RES1        1 GROUP             0 ****  ****    0  
@<TRIPOS>MOLECULE
ligand_8
    32    35     1     0     0
SMALL
USER_CHARGES
****
Generated from the CSD

@<TRIPOS>ATOM
     1 C1     -16.0171 -21.6165  -0.5154   C.3       1 RES1   0.0000
     2 C2     -15.3970 -20.2577  -0.8254   C.3       1 RES1   0.0000
     3 N3     -15.8965 -19.2146   0.0740   N.3       1 RES1   1.0000
     4 C4     -15.6841 -19.8861  -2.2491   C.2       1 RES1   0.0000
     5 N5     -14.7799 -19.6030  -3.1045   N.2       1 RES1   0.0000
     6 C6     -15.3532 -19.3122  -4.2833   C.2       1 RES1   0.0000
     7 C7     -14.5705 -18.9443  -5.4812   C.2       1 RES1   0.0000
     8 O8     -15.1458 -18.2512  -6.3027   O.2       1 RES1   0.0000
     9 N9     -13.2574 -19.2969  -5.7282   N.am      1 RES1   0.0000
    10 C10    -12.3235 -19.9559  -4.8146   C.3       1 RES1   0.0000
    11 C11    -11.0452 -19.9259  -5.5013   C.3       1 RES1   0.0000
    12 C12    -11.1375 -19.3028  -6.7594   C.3       1 RES1   0.0000
    13 C13    -12.5773 -18.8539  -6.9469   C.3       1 RES1   0.0000
    14 C14    -13.1745 -19.4586  -8.1865   C.2       1 RES1   0.0000
    15 O15    -13.6098 -20.5981  -8.1596   O.2       1 RES1   0.0000
    16 N16    -13.2609 -18.7100  -9.3009   N.am      1 RES1   0.0000
    17 C17    -13.8758 -19.2192 -10.5274   C.3       1 RES1   0.0000
    18 C18    -14.2017 -18.0457 -11.5003   C.3       1 RES1   0.0000
    19 C19    -15.2604 -17.0768 -10.9673   C.2       1 RES1   0.0000
    20 C20    -15.0157 -15.8658 -10.4299   C.2       1 RES1   0.0000
    21 N21    -16.1880 -15.2650 -10.0554   N.2       1 RES1   0.0000
    22 C22    -17.2534 -16.0797 -10.3433   C.2       1 RES1   0.0000
    23 C23    -18.6526 -15.9490 -10.1662   C.2       1 RES1   0.0000
    24 C24    -19.5073 -16.9798 -10.5725   C.2       1 RES1   0.0000
    25 C25    -18.9817 -18.1546 -11.1597   C.2       1 RES1   0.0000
    26 C26    -17.6091 -18.3000 -11.3398   C.2       1 RES1   0.0000
    27 C27    -16.7245 -17.2662 -10.9345   C.2       1 RES1   0.0000
    28 C28    -12.9407 -20.2404 -11.1643   C.2       1 RES1   0.0000
    29 O29    -11.6192 -20.2224 -10.8684   O.co2     1 RES1   0.0000
    30 O30    -13.3827 -21.0704 -11.9263   O.co2     1 RES1  -1.0000
    31 C31    -16.6965 -19.4337  -4.1069   C.2       1 RES1   0.0000
    32 O32    -16.8873 -19.7939  -2.8290   O.3       1 RES1   0.0000
@<TRIPOS>BOND
     1     2     1    1
     2     2     3    1
     3     2     4    1
     4     4     5    2
     5     5     6    1
     6     6     7    1
     7     7     8    2
     8     7     9   am
     9     9    10    1
    10    10    11    1
    11    11    12    1
    12    12    13    1
    13    13    14    1
    14    14    15    2
    15    14    16   am
    16    16    17    1
    17    17    18    1
    18    18    19    1
    19    19    20    2
    20    20    21    1
    21    21    22    1
    22    22    23    2
    23    23    24    1
    24    24    25    2
    25    25    26    1
    26    26    27    2
    27    17    28    1
    28    28    29    2
    29    28    30    1
    30     6    31    2
    31    31    32    1
    32    32     4    1
    33    13     9    1
    34    27    19    1
    35    27    22    1
@<TRIPOS>SUBSTRUCTURE
     1 RES1        1 GROUP             0 ****  ****    0  
@<TRIPOS>MOLECULE
ligand_9
    32    35     1     0     0
SMALL
USER_CHARGES
****
Generated from the CSD

@<TRIPOS>ATOM
     1 C1     -15.9970 -21.5853  -0.4954   C.3       1 RES1   0.0000
     2 C2     -15.3780 -20.2285  -0.8159   C.3       1 RES1   0.0000
     3 N3     -15.8737 -19.1799   0.0793   N.3       1 RES1   1.0000
     4 C4     -15.6709 -19.8653  -2.2407   C.2       1 RES1   0.0000
     5 N5     -16.3924 -18.8702  -2.5852   N.2       1 RES1   0.0000
     6 C6     -16.4665 -18.8124  -3.9245   C.2       1 RES1   0.0000
     7 C7     -17.2304 -17.7671  -4.6363   C.2       1 RES1   0.0000
     8 O8     -16.8524 -17.5049  -5.7653   O.2       1 RES1   0.0000
     9 N9     -18.3313 -17.0933  -4.1426   N.am      1 RES1   0.0000
    10 C10    -19.0657 -17.3685  -2.9073   C.3       1 RES1   0.0000
    11 C11    -20.2249 -16.4967  -2.9598   C.3       1 RES1   0.0000
    12 C12    -20.2438 -15.7152  -4.1297   C.3       1 RES1   0.0000
    13 C13    -19.0212 -16.0870  -4.9522   C.3       1 RES1   0.0000
    14 C14    -18.1632 -14.8824  -5.2194   C.2       1 RES1   0.0000
    15 O15    -17.3814 -14.4903  -4.3686   O.2       1 RES1   0.0000
    16 N16    -18.2401 -14.2800  -6.4198   N.am      1 RES1   0.0000
    17 C17    -17.3957 -13.1358  -6.7651   C.3       1 RES1   0.0000
    18 C18    -16.6292 -13.4069  -8.0951   C.3       1 RES1   0.0000
    19 C19    -15.6220 -14.5563  -8.0047   C.2       1 RES1   0.0000
    20 C20    -15.8120 -15.8045  -8.4752   C.2       1 RES1   0.0000
    21 N21    -14.7113 -16.5802  -8.2260   N.2       1 RES1   0.0000
    22 C22    -13.7510 -15.8486  -7.5746   C.2       1 RES1   0.0000
    23 C23    -12.4548 -16.1560  -7.0935   C.2       1 RES1   0.0000
    24 C24    -11.6952 -15.1700  -6.4539   C.2       1 RES1   0.0000
    25 C25    -12.2151 -13.8654  -6.2836   C.2       1 RES1   0.0000
    26 C26    -13.4877 -13.5467  -6.7492   C.2       1 RES1   0.0000
    27 C27    -14.2747 -14.5324  -7.4008   C.2       1 RES1   0.0000
    28 C28    -18.2651 -11.8872  -6.8565   C.2       1 RES1   0.0000
    29 O29    -19.5964 -12.0062  -7.0751   O.co2     1 RES1   0.0000
    30 O30    -17.7652 -10.7928  -6.7249   O.co2     1 RES1  -1.0000
    31 C31    -15.7326 -19.8528  -4.4034   C.2       1 RES1   0.0000
    32 O32    -15.2409 -20.5017  -3.3373   O.3       1 RES1   0.0000
@<TRIPOS>BOND
     1     2     1    1
     2     2     3    1
     3     2     4    1
     4     4     5    2
     5     5     6    1
     6     6     7    1
     7     7     8    2
     8     7     9   am
     9     9    10    1
    10    10    11    1
    11    11    12    1
    12    12    13    1
    13    13    14    1
    14    14    15    2
    15    14    16   am
    16    16    17    1
    17    17    18    1
    18    18    19    1
    19    19    20    2
    20    20    21    1
    21    21    22    1
    22    22    23    2
    23    23    24    1
    24    24    25    2
    25    25    26    1
    26    26    27    2
    27    17    28    1
    28    28    29    2
    29    28    30    1
    30     6    31    2
    31    31    32    1
    32    32     4    1
    33    13     9    1
    34    27    19    1
    35    27    22    1
@<TRIPOS>SUBSTRUCTURE
     1 RES1        1 GROUP             0 ****  ****    0  
@<TRIPOS>MOLECULE
ligand_10
    32    35     1     0     0
SMALL
USER_CHARGES
****
Generated from the CSD

@<TRIPOS>ATOM
     1 C1     -15.9872 -21.4375  -0.3877   C.3       1 RES1   0.0000
     2 C2     -15.3713 -20.0856  -0.7340   C.3       1 RES1   0.0000
     3 N3     -15.8733 -19.0204   0.1377   N.3       1 RES1   1.0000
     4 C4     -15.6604 -19.7527  -2.1669   C.2       1 RES1   0.0000
     5 N5     -16.3838 -18.7672  -2.5342   N.2       1 RES1   0.0000
     6 C6     -16.4534 -18.7372  -3.8747   C.2       1 RES1   0.0000
     7 C7     -17.2181 -17.7091  -4.6105   C.2       1 RES1   0.0000
     8 O8     -17.5976 -16.7544  -3.9543   O.2       1 RES1   0.0000
     9 N9     -17.5112 -17.7322  -5.9607   N.am      1 RES1   0.0000
    10 C10    -17.0064 -18.6664  -6.9675   C.3       1 RES1   0.0000
    11 C11    -17.4766 -18.1392  -8.2353   C.3       1 RES1   0.0000
    12 C12    -18.2284 -16.9614  -8.0699   C.3       1 RES1   0.0000
    13 C13    -18.2642 -16.6423  -6.5846   C.3       1 RES1   0.0000
    14 C14    -19.6787 -16.5648  -6.0827   C.2       1 RES1   0.0000
    15 O15    -20.3419 -15.5602  -6.2820   O.2       1 RES1   0.0000
    16 N16    -20.2082 -17.6316  -5.4570   N.am      1 RES1   0.0000
    17 C17    -21.5841 -17.6302  -4.9585   C.3       1 RES1   0.0000
    18 C18    -22.0620 -19.0868  -4.6761   C.3       1 RES1   0.0000
    19 C19    -22.2001 -19.9470  -5.9350   C.2       1 RES1   0.0000
    20 C20    -23.3478 -20.1878  -6.5983   C.2       1 RES1   0.0000
    21 N21    -23.1133 -20.9970  -7.6780   N.2       1 RES1   0.0000
    22 C22    -21.7809 -21.3140  -7.7546   C.2       1 RES1   0.0000
    23 C23    -21.0190 -22.1003  -8.6532   C.2       1 RES1   0.0000
    24 C24    -19.6393 -22.2375  -8.4643   C.2       1 RES1   0.0000
    25 C25    -18.9991 -21.5952  -7.3785   C.2       1 RES1   0.0000
    26 C26    -19.7330 -20.8198  -6.4852   C.2       1 RES1   0.0000
    27 C27    -21.1338 -20.6677  -6.6589   C.2       1 RES1   0.0000
    28 C28    -21.6590 -16.7573  -3.7113   C.2       1 RES1   0.0000
    29 O29    -20.5377 -16.5073  -2.9940   O.co2     1 RES1   0.0000
    30 O30    -22.7187 -16.2826  -3.3698   O.co2     1 RES1  -1.0000
    31 C31    -15.7147 -19.7849  -4.3296   C.2       1 RES1   0.0000
    32 O32    -15.2247 -20.4102  -3.2487   O.3       1 RES1   0.0000
@<TRIPOS>BOND
     1     2     1    1
     2     2     3    1
     3     2     4    1
     4     4     5    2
     5     5     6    1
     6     6     7    1
     7     7     8    2
     8     7     9   am
     9     9    10    1
    10    10    11    1
    11    11    12    1
    12    12    13    1
    13    13    14    1
    14    14    15    2
    15    14    16   am
    16    16    17    1
    17    17    18    1
    18    18    19    1
    19    19    20    2
    20    20    21    1
    21    21    22    1
    22    22    23    2
    23    23    24    1
    24    24    25    2
    25    25    26    1
    26    26    27    2
    27    17    28    1
    28    28    29    2
    29    28    30    1
    30     6    31    2
    31    31    32    1
    32    32     4    1
    33    13     9    1
    34    27    19    1
    35    27    22    1
@<TRIPOS>SUBSTRUCTURE
     1 RES1        1 GROUP             0 ****  ****    0  
@<TRIPOS>MOLECULE
ligand_11
    32    35     1     0     0
SMALL
USER_CHARGES
****
Generated from the CSD

@<TRIPOS>ATOM
     1 C1     -16.0046 -21.5064  -0.4349   C.3       1 RES1   0.0000
     2 C2     -15.3844 -20.1530  -0.7676   C.3       1 RES1   0.0000
     3 N3     -15.8834 -19.0950   0.1145   N.3       1 RES1   1.0000
     4 C4     -15.6722 -19.8051  -2.1972   C.2       1 RES1   0.0000
     5 N5     -16.3924 -18.8137  -2.5549   N.2       1 RES1   0.0000
     6 C6     -16.4616 -18.7702  -3.8950   C.2       1 RES1   0.0000
     7 C7     -17.2230 -17.7325  -4.6207   C.2       1 RES1   0.0000
     8 O8     -17.6002 -16.7834  -3.9550   O.2       1 RES1   0.0000
     9 N9     -17.5154 -17.7411  -5.9712   N.am      1 RES1   0.0000
    10 C10    -17.0134 -18.6669  -6.9871   C.3       1 RES1   0.0000
    11 C11    -17.4810 -18.1254  -8.2498   C.3       1 RES1   0.0000
    12 C12    -18.2287 -16.9467  -8.0730   C.3       1 RES1   0.0000
    13 C13    -18.2642 -16.6423  -6.5846   C.3       1 RES1   0.0000
    14 C14    -19.6787 -16.5648  -6.0827   C.2       1 RES1   0.0000
    15 O15    -20.3419 -15.5602  -6.2820   O.2       1 RES1   0.0000
    16 N16    -20.2082 -17.6316  -5.4570   N.am      1 RES1   0.0000
    17 C17    -21.5921 -17.6396  -4.9815   C.3       1 RES1   0.0000
    18 C18    -22.0533 -19.0965  -4.6738   C.3       1 RES1   0.0000
    19 C19    -22.1140 -19.9994  -5.9087   C.2       1 RES1   0.0000
    20 C20    -21.1955 -20.9240  -6.2502   C.2       1 RES1   0.0000
    21 N21    -21.5593 -21.5503  -7.4125   N.2       1 RES1   0.0000
    22 C22    -22.7488 -21.0455  -7.8730   C.2       1 RES1   0.0000
    23 C23    -23.5524 -21.3299  -9.0041   C.2       1 RES1   0.0000
    24 C24    -24.7455 -20.6275  -9.2075   C.2       1 RES1   0.0000
    25 C25    -25.1547 -19.6323  -8.2891   C.2       1 RES1   0.0000
    26 C26    -24.3761 -19.3392  -7.1731   C.2       1 RES1   0.0000
    27 C27    -23.1621 -20.0401  -6.9481   C.2       1 RES1   0.0000
    28 C28    -21.7008 -16.7400  -3.7559   C.2       1 RES1   0.0000
    29 O29    -20.5956 -16.4571  -3.0261   O.co2     1 RES1   0.0000
    30 O30    -22.7730 -16.2737  -3.4428   O.co2     1 RES1  -1.0000
    31 C31    -15.7261 -19.8156  -4.3601   C.2       1 RES1   0.0000
    32 O32    -15.2383 -20.4531  -3.2854   O.3       1 RES1   0.0000
@<TRIPOS>BOND
     1     2     1    1
     2     2     3    1
     3     2     4    1
     4     4     5    2
     5     5     6    1
     6     6     7    1
     7     7     8    2
     8     7     9   am
     9     9    10    1
    10    10    11    1
    11    11    12    1
    12    12    13    1
    13    13    14    1
    14    14    15    2
    15    14    16   am
    16    16    17    1
    17    17    18    1
    18    18    19    1
    19    19    20    2
    20    20    21    1
    21    21    22    1
    22    22    23    2
    23    23    24    1
    24    24    25    2
    25    25    26    1
    26    26    27    2
    27    17    28    1
    28    28    29    2
    29    28    30    1
    30     6    31    2
    31    31    32    1
    32    32     4    1
    33    13     9    1
    34    27    19    1
    35    27    22    1
@<TRIPOS>SUBSTRUCTURE
     1 RES1        1 GROUP             0 ****  ****    0  
@<TRIPOS>MOLECULE
ligand_12
    32    35     1     0     0
SMALL
USER_CHARGES
****
Generated from the CSD

@<TRIPOS>ATOM
     1 C1     -15.9562 -21.6316  -0.5814   C.3       1 RES1   0.0000
     2 C2     -15.3377 -20.2737  -0.8981   C.3       1 RES1   0.0000
     3 N3     -15.8192 -19.2316   0.0123   N.3       1 RES1   1.0000
     4 C4     -15.6475 -19.8975  -2.3158   C.2       1 RES1   0.0000
     5 N5     -16.3706 -18.8976  -2.6426   N.2       1 RES1   0.0000
     6 C6     -16.4613 -18.8281  -3.9804   C.2       1 RES1   0.0000
     7 C7     -17.2314 -17.7747  -4.6735   C.2       1 RES1   0.0000
     8 O8     -16.8669 -17.5038  -5.8049   O.2       1 RES1   0.0000
     9 N9     -18.3241 -17.1023  -4.1602   N.am      1 RES1   0.0000
    10 C10    -19.0439 -17.3865  -2.9184   C.3       1 RES1   0.0000
    11 C11    -20.2012 -16.5111  -2.9487   C.3       1 RES1   0.0000
    12 C12    -20.2324 -15.7192  -4.1113   C.3       1 RES1   0.0000
    13 C13    -19.0212 -16.0870  -4.9522   C.3       1 RES1   0.0000
    14 C14    -18.1632 -14.8824  -5.2194   C.2       1 RES1   0.0000
    15 O15    -18.4896 -14.0802  -6.0787   O.2       1 RES1   0.0000
    16 N16    -17.0648 -14.6844  -4.4681   N.am      1 RES1   0.0000
    17 C17    -16.2296 -13.4925  -4.6206   C.3       1 RES1   0.0000
    18 C18    -16.8218 -12.3048  -3.8029   C.3       1 RES1   0.0000
    19 C19    -18.1803 -11.8188  -4.3145   C.2       1 RES1   0.0000
    20 C20    -19.3750 -12.1059  -3.7617   C.2       1 RES1   0.0000
    21 N21    -20.3838 -11.5114  -4.4719   N.2       1 RES1   0.0000
    22 C22    -19.8691 -10.8040  -5.5285   C.2       1 RES1   0.0000
    23 C23    -20.4567 -10.0230  -6.5537   C.2       1 RES1   0.0000
    24 C24    -19.6463  -9.4083  -7.5148   C.2       1 RES1   0.0000
    25 C25    -18.2409  -9.5628  -7.4694   C.2       1 RES1   0.0000
    26 C26    -17.6471 -10.3280  -6.4695   C.2       1 RES1   0.0000
    27 C27    -18.4511 -10.9601  -5.4849   C.2       1 RES1   0.0000
    28 C28    -14.8066 -13.8251  -4.1875   C.2       1 RES1   0.0000
    29 O29    -14.5807 -14.8712  -3.3575   O.co2     1 RES1   0.0000
    30 O30    -13.8811 -13.1589  -4.5932   O.co2     1 RES1  -1.0000
    31 C31    -15.7364 -19.8662  -4.4774   C.2       1 RES1   0.0000
    32 O32    -15.2331 -20.5255  -3.4232   O.3       1 RES1   0.0000
@<TRIPOS>BOND
     1     2     1    1
     2     2     3    1
     3     2     4    1
     4     4     5    2
     5     5     6    1
     6     6     7    1
     7     7     8    2
     8     7     9   am
     9     9    10    1
    10    10    11    1
    11    11    12    1
    12    12    13    1
    13    13    14    1
    14    14    15    2
    15    14    16   am
    16    16    17    1
    17    17    18    1
    18    18    19    1
    19    19    20    2
    20    20    21    1
    21    21    22    1
    22    22    23    2
    23    23    24    1
    24    24    25    2
    25    25    26    1
    26    26    27    2
    27    17    28    1
    28    28    29    2
    29    28    30    1
    30     6    31    2
    31    31    32    1
    32    32     4    1
    33    13     9    1
    34    27    19    1
    35    27    22    1
@<TRIPOS>SUBSTRUCTURE
     1 RES1        1 GROUP             0 ****  ****    0  
@<TRIPOS>MOLECULE
ligand_13
    32    35     1     0     0
SMALL
USER_CHARGES
****
Generated from the CSD

@<TRIPOS>ATOM
     1 C1     -16.0940 -21.5301  -0.5205   C.3       1 RES1   0.0000
     2 C2     -15.4541 -20.1816  -0.8349   C.3       1 RES1   0.0000
     3 N3     -15.9455 -19.1263   0.0546   N.3       1 RES1   1.0000
     4 C4     -15.7272 -19.8153  -2.2628   C.2       1 RES1   0.0000
     5 N5     -14.8140 -19.5495  -3.1141   N.2       1 RES1   0.0000
     6 C6     -15.3759 -19.2588  -4.2984   C.2       1 RES1   0.0000
     7 C7     -14.5808 -18.9088  -5.4935   C.2       1 RES1   0.0000
     8 O8     -15.1417 -18.2135  -6.3231   O.2       1 RES1   0.0000
     9 N9     -13.2709 -19.2802  -5.7299   N.am      1 RES1   0.0000
    10 C10    -12.3516 -19.9455  -4.8061   C.3       1 RES1   0.0000
    11 C11    -11.0687 -19.9367  -5.4848   C.3       1 RES1   0.0000
    12 C12    -11.1448 -19.3204  -6.7473   C.3       1 RES1   0.0000
    13 C13    -12.5773 -18.8539  -6.9469   C.3       1 RES1   0.0000
    14 C14    -13.1745 -19.4586  -8.1865   C.2       1 RES1   0.0000
    15 O15    -12.8957 -19.0014  -9.2827   O.2       1 RES1   0.0000
    16 N16    -13.9770 -20.5318  -8.0670   N.am      1 RES1   0.0000
    17 C17    -14.5551 -21.1974  -9.2351   C.3       1 RES1   0.0000
    18 C18    -14.2263 -22.7210  -9.2111   C.3       1 RES1   0.0000
    19 C19    -12.7338 -23.0334  -9.3470   C.2       1 RES1   0.0000
    20 C20    -11.9093 -23.3769  -8.3383   C.2       1 RES1   0.0000
    21 N21    -10.6405 -23.5848  -8.8098   N.2       1 RES1   0.0000
    22 C22    -10.5973 -23.3811 -10.1656   C.2       1 RES1   0.0000
    23 C23     -9.5607 -23.4594 -11.1277   C.2       1 RES1   0.0000
    24 C24     -9.8343 -23.1880 -12.4729   C.2       1 RES1   0.0000
    25 C25    -11.1425 -22.8343 -12.8790   C.2       1 RES1   0.0000
    26 C26    -12.1726 -22.7513 -11.9464   C.2       1 RES1   0.0000
    27 C27    -11.9162 -23.0227 -10.5767   C.2       1 RES1   0.0000
    28 C28    -16.0575 -20.9422  -9.2587   C.2       1 RES1   0.0000
    29 O29    -16.7031 -20.6058  -8.1166   O.co2     1 RES1   0.0000
    30 O30    -16.6686 -21.0323 -10.2995   O.co2     1 RES1  -1.0000
    31 C31    -16.7217 -19.3615  -4.1299   C.2       1 RES1   0.0000
    32 O32    -16.9254 -19.7110  -2.8510   O.3       1 RES1   0.0000
@<TRIPOS>BOND
     1     2     1    1
     2     2     3    1
     3     2     4    1
     4     4     5    2
     5     5     6    1
     6     6     7    1
     7     7     8    2
     8     7     9   am
     9     9    10    1
    10    10    11    1
    11    11    12    1
    12    12    13    1
    13    13    14    1
    14    14    15    2
    15    14    16   am
    16    16    17    1
    17    17    18    1
    18    18    19    1
    19    19    20    2
    20    20    21    1
    21    21    22    1
    22    22    23    2
    23    23    24    1
    24    24    25    2
    25    25    26    1
    26    26    27    2
    27    17    28    1
    28    28    29    2
    29    28    30    1
    30     6    31    2
    31    31    32    1
    32    32     4    1
    33    13     9    1
    34    27    19    1
    35    27    22    1
@<TRIPOS>SUBSTRUCTURE
     1 RES1        1 GROUP             0 ****  ****    0  
@<TRIPOS>MOLECULE
ligand_14
    32    35     1     0     0
SMALL
USER_CHARGES
****
Generated from the CSD

@<TRIPOS>ATOM
     1 C1     -16.0390 -21.6102  -0.5061   C.3       1 RES1   0.0000
     2 C2     -15.4106 -20.2556  -0.8179   C.3       1 RES1   0.0000
     3 N3     -15.9044 -19.2081   0.0795   N.3       1 RES1   1.0000
     4 C4     -15.6946 -19.8847  -2.2424   C.2       1 RES1   0.0000
     5 N5     -16.4087 -18.8839  -2.5860   N.2       1 RES1   0.0000
     6 C6     -16.4760 -18.8199  -3.9254   C.2       1 RES1   0.0000
     7 C7     -17.2304 -17.7671  -4.6363   C.2       1 RES1   0.0000
     8 O8     -17.6024 -16.8256  -3.9570   O.2       1 RES1   0.0000
     9 N9     -17.5218 -17.7540  -5.9871   N.am      1 RES1   0.0000
    10 C10    -17.0237 -18.6673  -7.0162   C.3       1 RES1   0.0000
    11 C11    -17.4874 -18.1046  -8.2711   C.3       1 RES1   0.0000
    12 C12    -18.2290 -16.9247  -8.0774   C.3       1 RES1   0.0000
    13 C13    -18.2642 -16.6423  -6.5846   C.3       1 RES1   0.0000
    14 C14    -19.6787 -16.5648  -6.0827   C.2       1 RES1   0.0000
    15 O15    -20.2924 -17.5885  -5.8297   O.2       1 RES1   0.0000
    16 N16    -20.2322 -15.3561  -5.8760   N.am      1 RES1   0.0000
    17 C17    -21.5866 -15.2082  -5.3419   C.3       1 RES1   0.0000
    18 C18    -21.8091 -13.7572  -4.8173   C.3       1 RES1   0.0000
    19 C19    -20.9442 -13.3984  -3.6062   C.2       1 RES1   0.0000
    20 C20    -21.3431 -13.4329  -2.3197   C.2       1 RES1   0.0000
    21 N21    -20.3203 -13.0500  -1.4934   N.2       1 RES1   0.0000
    22 C22    -19.2017 -12.7496  -2.2284   C.2       1 RES1   0.0000
    23 C23    -17.8997 -12.3123  -1.8822   C.2       1 RES1   0.0000
    24 C24    -16.9496 -12.0856  -2.8842   C.2       1 RES1   0.0000
    25 C25    -17.2821 -12.2900  -4.2440   C.2       1 RES1   0.0000
    26 C26    -18.5573 -12.7182  -4.6019   C.2       1 RES1   0.0000
    27 C27    -19.5360 -12.9539  -3.6008   C.2       1 RES1   0.0000
    28 C28    -22.5910 -15.5790  -6.4266   C.2       1 RES1   0.0000
    29 O29    -22.2251 -15.5325  -7.7298   O.co2     1 RES1   0.0000
    30 O30    -23.7105 -15.9224  -6.1205   O.co2     1 RES1  -1.0000
    31 C31    -15.7459 -19.8626  -4.4053   C.2       1 RES1   0.0000
    32 O32    -15.2631 -20.5188  -3.3397   O.3       1 RES1   0.0000
@<TRIPOS>BOND
     1     2     1    1
     2     2     3    1
     3     2     4    1
     4     4     5    2
     5     5     6    1
     6     6     7    1
     7     7     8    2
     8     7     9   am
     9     9    10    1
    10    10    11    1
    11    11    12    1
    12    12    13    1
    13    13    14    1
    14    14    15    2
    15    14    16   am
    16    16    17    1
    17    17    18    1
    18    18    19    1
    19    19    20    2
    20    20    21    1
    21    21    22    1
    22    22    23    2
    23    23    24    1
    24    24    25    2
    25    25    26    1
    26    26    27    2
    27    17    28    1
    28    28    29    2
    29    28    30    1
    30     6    31    2
    31    31    32    1
    32    32     4    1
    33    13     9    1
    34    27    19    1
    35    27    22    1
@<TRIPOS>SUBSTRUCTURE
     1 RES1        1 GROUP             0 ****  ****    0  
@<TRIPOS>MOLECULE
ligand_15
    32    35     1     0     0
SMALL
USER_CHARGES
****
Generated from the CSD

@<TRIPOS>ATOM
     1 C1     -16.0359 -21.6093  -0.5062   C.3       1 RES1   0.0000
     2 C2     -15.4082 -20.2545  -0.8183   C.3       1 RES1   0.0000
     3 N3     -15.9023 -19.2071   0.0792   N.3       1 RES1   1.0000
     4 C4     -15.6928 -19.8838  -2.2427   C.2       1 RES1   0.0000
     5 N5     -16.4075 -18.8834  -2.5862   N.2       1 RES1   0.0000
     6 C6     -16.4753 -18.8195  -3.9256   C.2       1 RES1   0.0000
     7 C7     -17.2304 -17.7671  -4.6363   C.2       1 RES1   0.0000
     8 O8     -17.6031 -16.8260  -3.9569   O.2       1 RES1   0.0000
     9 N9     -17.5218 -17.7540  -5.9871   N.am      1 RES1   0.0000
    10 C10    -17.0237 -18.6673  -7.0162   C.3       1 RES1   0.0000
    11 C11    -17.4874 -18.1046  -8.2711   C.3       1 RES1   0.0000
    12 C12    -18.2290 -16.9247  -8.0774   C.3       1 RES1   0.0000
    13 C13    -18.2642 -16.6423  -6.5846   C.3       1 RES1   0.0000
    14 C14    -19.6787 -16.5648  -6.0827   C.2       1 RES1   0.0000
    15 O15    -20.2924 -17.5885  -5.8297   O.2       1 RES1   0.0000
    16 N16    -20.2322 -15.3561  -5.8760   N.am      1 RES1   0.0000
    17 C17    -21.5866 -15.2082  -5.3419   C.3       1 RES1   0.0000
    18 C18    -21.8149 -13.7525  -4.8332   C.3       1 RES1   0.0000
    19 C19    -20.9361 -13.3699  -3.6395   C.2       1 RES1   0.0000
    20 C20    -19.8226 -12.6134  -3.6958   C.2       1 RES1   0.0000
    21 N21    -19.2813 -12.4687  -2.4462   N.2       1 RES1   0.0000
    22 C22    -20.0393 -13.1373  -1.5188   C.2       1 RES1   0.0000
    23 C23    -19.9311 -13.3099  -0.1171   C.2       1 RES1   0.0000
    24 C24    -20.8868 -14.0675   0.5691   C.2       1 RES1   0.0000
    25 C25    -21.9623 -14.6643  -0.1297   C.2       1 RES1   0.0000
    26 C26    -22.0829 -14.5059  -1.5075   C.2       1 RES1   0.0000
    27 C27    -21.1241 -13.7412  -2.2227   C.2       1 RES1   0.0000
    28 C28    -22.5907 -15.5954  -6.4212   C.2       1 RES1   0.0000
    29 O29    -22.2265 -15.5618  -7.7252   O.co2     1 RES1   0.0000
    30 O30    -23.7083 -15.9403  -6.1099   O.co2     1 RES1  -1.0000
    31 C31    -15.7449 -19.8618  -4.4056   C.2       1 RES1   0.0000
    32 O32    -15.2614 -20.5178  -3.3401   O.3       1 RES1   0.0000
@<TRIPOS>BOND
     1     2     1    1
     2     2     3    1
     3     2     4    1
     4     4     5    2
     5     5     6    1
     6     6     7    1
     7     7     8    2
     8     7     9   am
     9     9    10    1
    10    10    11    1
    11    11    12    1
    12    12    13    1
    13    13    14    1
    14    14    15    2
    15    14    16   am
    16    16    17    1
    17    17    18    1
    18    18    19    1
    19    19    20    2
    20    20    21    1
    21    21    22    1
    22    22    23    2
    23    23    24    1
    24    24    25    2
    25    25    26    1
    26    26    27    2
    27    17    28    1
    28    28    29    2
    29    28    30    1
    30     6    31    2
    31    31    32    1
    32    32     4    1
    33    13     9    1
    34    27    19    1
    35    27    22    1
@<TRIPOS>SUBSTRUCTURE
     1 RES1        1 GROUP             0 ****  ****    0  
@<TRIPOS>MOLECULE
ligand_16
    32    35     1     0     0
SMALL
USER_CHARGES
****
Generated from the CSD

@<TRIPOS>ATOM
     1 C1     -16.0173 -21.6171  -0.5158   C.3       1 RES1   0.0000
     2 C2     -15.3973 -20.2582  -0.8255   C.3       1 RES1   0.0000
     3 N3     -15.8969 -19.2152   0.0739   N.3       1 RES1   1.0000
     4 C4     -15.6843 -19.8865  -2.2492   C.2       1 RES1   0.0000
     5 N5     -14.7801 -19.6032  -3.1046   N.2       1 RES1   0.0000
     6 C6     -15.3533 -19.3124  -4.2834   C.2       1 RES1   0.0000
     7 C7     -14.5705 -18.9443  -5.4812   C.2       1 RES1   0.0000
     8 O8     -15.1457 -18.2510  -6.3026   O.2       1 RES1   0.0000
     9 N9     -13.2574 -19.2969  -5.7282   N.am      1 RES1   0.0000
    10 C10    -12.3235 -19.9559  -4.8146   C.3       1 RES1   0.0000
    11 C11    -11.0452 -19.9259  -5.5013   C.3       1 RES1   0.0000
    12 C12    -11.1375 -19.3028  -6.7594   C.3       1 RES1   0.0000
    13 C13    -12.5773 -18.8539  -6.9469   C.3       1 RES1   0.0000
    14 C14    -13.1745 -19.4586  -8.1865   C.2       1 RES1   0.0000
    15 O15    -13.6098 -20.5981  -8.1596   O.2       1 RES1   0.0000
    16 N16    -13.2609 -18.7100  -9.3009   N.am      1 RES1   0.0000
    17 C17    -13.8785 -19.2181 -10.5265   C.3       1 RES1   0.0000
    18 C18    -14.9914 -18.2442 -11.0192   C.3       1 RES1   0.0000
    19 C19    -16.1809 -18.1301 -10.0623   C.2       1 RES1   0.0000
    20 C20    -16.4050 -17.1133  -9.2072   C.2       1 RES1   0.0000
    21 N21    -17.5576 -17.3306  -8.5002   N.2       1 RES1   0.0000
    22 C22    -18.1324 -18.5169  -8.8799   C.2       1 RES1   0.0000
    23 C23    -19.3040 -19.2025  -8.4757   C.2       1 RES1   0.0000
    24 C24    -19.6344 -20.4280  -9.0648   C.2       1 RES1   0.0000
    25 C25    -18.8034 -20.9883 -10.0632   C.2       1 RES1   0.0000
    26 C26    -17.6475 -20.3285 -10.4712   C.2       1 RES1   0.0000
    27 C27    -17.2942 -19.0842  -9.8862   C.2       1 RES1   0.0000
    28 C28    -12.7961 -19.4214 -11.5801   C.2       1 RES1   0.0000
    29 O29    -11.6243 -18.7493 -11.4825   O.co2     1 RES1   0.0000
    30 O30    -12.9829 -20.1894 -12.4967   O.co2     1 RES1  -1.0000
    31 C31    -16.6966 -19.4340  -4.1071   C.2       1 RES1   0.0000
    32 O32    -16.8874 -19.7943  -2.8293   O.3       1 RES1   0.0000
@<TRIPOS>BOND
     1     2     1    1
     2     2     3    1
     3     2     4    1
     4     4     5    2
     5     5     6    1
     6     6     7    1
     7     7     8    2
     8     7     9   am
     9     9    10    1
    10    10    11    1
    11    11    12    1
    12    12    13    1
    13    13    14    1
    14    14    15    2
    15    14    16   am
    16    16    17    1
    17    17    18    1
    18    18    19    1
    19    19    20    2
    20    20    21    1
    21    21    22    1
    22    22    23    2
    23    23    24    1
    24    24    25    2
    25    25    26    1
    26    26    27    2
    27    17    28    1
    28    28    29    2
    29    28    30    1
    30     6    31    2
    31    31    32    1
    32    32     4    1
    33    13     9    1
    34    27    19    1
    35    27    22    1
@<TRIPOS>SUBSTRUCTURE
     1 RES1        1 GROUP             0 ****  ****    0  
@<TRIPOS>MOLECULE
ligand_17
    32    35     1     0     0
SMALL
USER_CHARGES
****
Generated from the CSD

@<TRIPOS>ATOM
     1 C1     -16.0045 -21.5057  -0.4344   C.3       1 RES1   0.0000
     2 C2     -15.3844 -20.1523  -0.7672   C.3       1 RES1   0.0000
     3 N3     -15.8833 -19.0942   0.1148   N.3       1 RES1   1.0000
     4 C4     -15.6721 -19.8045  -2.1968   C.2       1 RES1   0.0000
     5 N5     -16.3924 -18.8132  -2.5546   N.2       1 RES1   0.0000
     6 C6     -16.4616 -18.7698  -3.8948   C.2       1 RES1   0.0000
     7 C7     -17.2229 -17.7323  -4.6206   C.2       1 RES1   0.0000
     8 O8     -17.6001 -16.7831  -3.9550   O.2       1 RES1   0.0000
     9 N9     -17.5154 -17.7410  -5.9711   N.am      1 RES1   0.0000
    10 C10    -17.0133 -18.6669  -6.9868   C.3       1 RES1   0.0000
    11 C11    -17.4809 -18.1256  -8.2497   C.3       1 RES1   0.0000
    12 C12    -18.2287 -16.9469  -8.0730   C.3       1 RES1   0.0000
    13 C13    -18.2642 -16.6423  -6.5846   C.3       1 RES1   0.0000
    14 C14    -19.6787 -16.5648  -6.0827   C.2       1 RES1   0.0000
    15 O15    -20.3419 -15.5602  -6.2820   O.2       1 RES1   0.0000
    16 N16    -20.2082 -17.6316  -5.4570   N.am      1 RES1   0.0000
    17 C17    -21.5930 -17.6406  -4.9839   C.3       1 RES1   0.0000
    18 C18    -22.3517 -18.8813  -5.5453   C.3       1 RES1   0.0000
    19 C19    -22.5136 -18.8700  -7.0676   C.2       1 RES1   0.0000
    20 C20    -21.7771 -19.5853  -7.9400   C.2       1 RES1   0.0000
    21 N21    -22.1853 -19.3374  -9.2235   N.2       1 RES1   0.0000
    22 C22    -23.2205 -18.4373  -9.2283   C.2       1 RES1   0.0000
    23 C23    -23.9932 -17.8502 -10.2600   C.2       1 RES1   0.0000
    24 C24    -25.0086 -16.9417  -9.9413   C.2       1 RES1   0.0000
    25 C25    -25.2684 -16.6044  -8.5922   C.2       1 RES1   0.0000
    26 C26    -24.5176 -17.1710  -7.5661   C.2       1 RES1   0.0000
    27 C27    -23.4828 -18.0949  -7.8679   C.2       1 RES1   0.0000
    28 C28    -21.5968 -17.6158  -3.4599   C.2       1 RES1   0.0000
    29 O29    -20.5046 -18.0313  -2.7753   O.co2     1 RES1   0.0000
    30 O30    -22.5726 -17.2167  -2.8654   O.co2     1 RES1  -1.0000
    31 C31    -15.7260 -19.8153  -4.3598   C.2       1 RES1   0.0000
    32 O32    -15.2382 -20.4526  -3.2850   O.3       1 RES1   0.0000
@<TRIPOS>BOND
     1     2     1    1
     2     2     3    1
     3     2     4    1
     4     4     5    2
     5     5     6    1
     6     6     7    1
     7     7     8    2
     8     7     9   am
     9     9    10    1
    10    10    11    1
    11    11    12    1
    12    12    13    1
    13    13    14    1
    14    14    15    2
    15    14    16   am
    16    16    17    1
    17    17    18    1
    18    18    19    1
    19    19    20    2
    20    20    21    1
    21    21    22    1
    22    22    23    2
    23    23    24    1
    24    24    25    2
    25    25    26    1
    26    26    27    2
    27    17    28    1
    28    28    29    2
    29    28    30    1
    30     6    31    2
    31    31    32    1
    32    32     4    1
    33    13     9    1
    34    27    19    1
    35    27    22    1
@<TRIPOS>SUBSTRUCTURE
     1 RES1        1 GROUP             0 ****  ****    0  
@<TRIPOS>MOLECULE
ligand_18
    32    35     1     0     0
SMALL
USER_CHARGES
****
Generated from the CSD

@<TRIPOS>ATOM
     1 C1     -15.9029 -21.5731  -0.5671   C.3       1 RES1   0.0000
     2 C2     -15.2728 -20.2266  -0.9088   C.3       1 RES1   0.0000
     3 N3     -15.7419 -19.1647  -0.0151   N.3       1 RES1   1.0000
     4 C4     -15.5834 -19.8719  -2.3319   C.2       1 RES1   0.0000
     5 N5     -16.3956 -20.5288  -3.0657   N.2       1 RES1   0.0000
     6 C6     -16.4568 -19.9650  -4.2827   C.2       1 RES1   0.0000
     7 C7     -17.3143 -20.4932  -5.3638   C.2       1 RES1   0.0000
     8 O8     -16.9500 -20.2497  -6.5014   O.2       1 RES1   0.0000
     9 N9     -18.4603 -21.2458  -5.1914   N.am      1 RES1   0.0000
    10 C10    -18.9780 -21.8102  -3.9446   C.3       1 RES1   0.0000
    11 C11    -20.0901 -22.6508  -4.3485   C.3       1 RES1   0.0000
    12 C12    -20.2844 -22.6339  -5.7419   C.3       1 RES1   0.0000
    13 C13    -19.2196 -21.7328  -6.3449   C.3       1 RES1   0.0000
    14 C14    -19.8416 -20.6142  -7.1328   C.2       1 RES1   0.0000
    15 O15    -20.2599 -20.8221  -8.2600   O.2       1 RES1   0.0000
    16 N16    -19.9686 -19.4042  -6.5589   N.am      1 RES1   0.0000
    17 C17    -20.5795 -18.2759  -7.2628   C.3       1 RES1   0.0000
    18 C18    -20.9786 -17.1567  -6.2538   C.3       1 RES1   0.0000
    19 C19    -22.1046 -17.5592  -5.2979   C.2       1 RES1   0.0000
    20 C20    -23.4080 -17.2529  -5.4482   C.2       1 RES1   0.0000
    21 N21    -24.1409 -17.7674  -4.4121   N.2       1 RES1   0.0000
    22 C22    -23.3237 -18.4386  -3.5383   C.2       1 RES1   0.0000
    23 C23    -23.5595 -19.1397  -2.3304   C.2       1 RES1   0.0000
    24 C24    -22.4924 -19.7355  -1.6489   C.2       1 RES1   0.0000
    25 C25    -21.1764 -19.6412  -2.1594   C.2       1 RES1   0.0000
    26 C26    -20.9268 -18.9548  -3.3444   C.2       1 RES1   0.0000
    27 C27    -21.9953 -18.3431  -4.0512   C.2       1 RES1   0.0000
    28 C28    -19.6075 -17.7656  -8.3200   C.2       1 RES1   0.0000
    29 O29    -18.2835 -18.0243  -8.2007   O.co2     1 RES1   0.0000
    30 O30    -20.0221 -17.1378  -9.2681   O.co2     1 RES1  -1.0000
    31 C31    -15.6165 -18.8955  -4.2624   C.2       1 RES1   0.0000
    32 O32    -15.0781 -18.8505  -3.0346   O.3       1 RES1   0.0000
@<TRIPOS>BOND
     1     2     1    1
     2     2     3    1
     3     2     4    1
     4     4     5    2
     5     5     6    1
     6     6     7    1
     7     7     8    2
     8     7     9   am
     9     9    10    1
    10    10    11    1
    11    11    12    1
    12    12    13    1
    13    13    14    1
    14    14    15    2
    15    14    16   am
    16    16    17    1
    17    17    18    1
    18    18    19    1
    19    19    20    2
    20    20    21    1
    21    21    22    1
    22    22    23    2
    23    23    24    1
    24    24    25    2
    25    25    26    1
    26    26    27    2
    27    17    28    1
    28    28    29    2
    29    28    30    1
    30     6    31    2
    31    31    32    1
    32    32     4    1
    33    13     9    1
    34    27    19    1
    35    27    22    1
@<TRIPOS>SUBSTRUCTURE
     1 RES1        1 GROUP             0 ****  ****    0  
@<TRIPOS>MOLECULE
ligand_19
    32    35     1     0     0
SMALL
USER_CHARGES
****
Generated from the CSD

@<TRIPOS>ATOM
     1 C1     -15.9454 -21.5806  -0.5430   C.3       1 RES1   0.0000
     2 C2     -15.3193 -20.2297  -0.8746   C.3       1 RES1   0.0000
     3 N3     -15.7998 -19.1737   0.0201   N.3       1 RES1   1.0000
     4 C4     -15.6215 -19.8706  -2.2984   C.2       1 RES1   0.0000
     5 N5     -16.4253 -20.5282  -3.0407   N.2       1 RES1   0.0000
     6 C6     -16.4805 -19.9597  -4.2557   C.2       1 RES1   0.0000
     7 C7     -17.3277 -20.4875  -5.3451   C.2       1 RES1   0.0000
     8 O8     -16.9567 -20.2372  -6.4791   O.2       1 RES1   0.0000
     9 N9     -18.4711 -21.2466  -5.1840   N.am      1 RES1   0.0000
    10 C10    -18.9949 -21.8186  -3.9432   C.3       1 RES1   0.0000
    11 C11    -20.0998 -22.6633  -4.3585   C.3       1 RES1   0.0000
    12 C12    -20.2841 -22.6417  -5.7532   C.3       1 RES1   0.0000
    13 C13    -19.2196 -21.7328  -6.3449   C.3       1 RES1   0.0000
    14 C14    -19.8416 -20.6142  -7.1328   C.2       1 RES1   0.0000
    15 O15    -20.2599 -20.8221  -8.2600   O.2       1 RES1   0.0000
    16 N16    -19.9686 -19.4042  -6.5589   N.am      1 RES1   0.0000
    17 C17    -20.6030 -18.2830  -7.2532   C.3       1 RES1   0.0000
    18 C18    -20.9740 -17.1564  -6.2417   C.3       1 RES1   0.0000
    19 C19    -22.0377 -17.5683  -5.2205   C.2       1 RES1   0.0000
    20 C20    -21.8029 -17.9144  -3.9398   C.2       1 RES1   0.0000
    21 N21    -22.9770 -18.2269  -3.3079   N.2       1 RES1   0.0000
    22 C22    -24.0335 -18.0906  -4.1721   C.2       1 RES1   0.0000
    23 C23    -25.4303 -18.2834  -4.0377   C.2       1 RES1   0.0000
    24 C24    -26.2750 -18.0564  -5.1300   C.2       1 RES1   0.0000
    25 C25    -25.7416 -17.6355  -6.3708   C.2       1 RES1   0.0000
    26 C26    -24.3712 -17.4426  -6.5206   C.2       1 RES1   0.0000
    27 C27    -23.4968 -17.6673  -5.4249   C.2       1 RES1   0.0000
    28 C28    -19.6644 -17.7793  -8.3433   C.2       1 RES1   0.0000
    29 O29    -18.3368 -18.0343  -8.2618   O.co2     1 RES1   0.0000
    30 O30    -20.1088 -17.1601  -9.2835   O.co2     1 RES1  -1.0000
    31 C31    -15.6455 -18.8864  -4.2251   C.2       1 RES1   0.0000
    32 O32    -15.1162 -18.8439  -2.9933   O.3       1 RES1   0.0000
@<TRIPOS>BOND
     1     2     1    1
     2     2     3    1
     3     2     4    1
     4     4     5    2
     5     5     6    1
     6     6     7    1
     7     7     8    2
     8     7     9   am
     9     9    10    1
    10    10    11    1
    11    11    12    1
    12    12    13    1
    13    13    14    1
    14    14    15    2
    15    14    16   am
    16    16    17    1
    17    17    18    1
    18    18    19    1
    19    19    20    2
    20    20    21    1
    21    21    22    1
    22    22    23    2
    23    23    24    1
    24    24    25    2
    25    25    26    1
    26    26    27    2
    27    17    28    1
    28    28    29    2
    29    28    30    1
    30     6    31    2
    31    31    32    1
    32    32     4    1
    33    13     9    1
    34    27    19    1
    35    27    22    1
@<TRIPOS>SUBSTRUCTURE
     1 RES1        1 GROUP             0 ****  ****    0  
@<TRIPOS>MOLECULE
ligand_20
    32    35     1     0     0
SMALL
USER_CHARGES
****
Generated from the CSD

@<TRIPOS>ATOM
     1 C1     -16.0894 -21.5357  -0.5203   C.3       1 RES1   0.0000
     2 C2     -15.4508 -20.1865  -0.8344   C.3       1 RES1   0.0000
     3 N3     -15.9429 -19.1320   0.0558   N.3       1 RES1   1.0000
     4 C4     -15.7247 -19.8199  -2.2620   C.2       1 RES1   0.0000
     5 N5     -14.8120 -19.5529  -3.1136   N.2       1 RES1   0.0000
     6 C6     -15.3745 -19.2622  -4.2975   C.2       1 RES1   0.0000
     7 C7     -14.5802 -18.9110  -5.4928   C.2       1 RES1   0.0000
     8 O8     -15.1419 -18.2157  -6.3218   O.2       1 RES1   0.0000
     9 N9     -13.2701 -19.2812  -5.7298   N.am      1 RES1   0.0000
    10 C10    -12.3499 -19.9462  -4.8066   C.3       1 RES1   0.0000
    11 C11    -11.0673 -19.9360  -5.4858   C.3       1 RES1   0.0000
    12 C12    -11.1443 -19.3193  -6.7481   C.3       1 RES1   0.0000
    13 C13    -12.5773 -18.8539  -6.9469   C.3       1 RES1   0.0000
    14 C14    -13.1745 -19.4586  -8.1865   C.2       1 RES1   0.0000
    15 O15    -12.8957 -19.0014  -9.2827   O.2       1 RES1   0.0000
    16 N16    -13.9770 -20.5318  -8.0670   N.am      1 RES1   0.0000
    17 C17    -14.5281 -21.2177  -9.2364   C.3       1 RES1   0.0000
    18 C18    -13.4960 -22.2380  -9.8052   C.3       1 RES1   0.0000
    19 C19    -12.2333 -21.5869 -10.3757   C.2       1 RES1   0.0000
    20 C20    -11.0371 -21.5225  -9.7593   C.2       1 RES1   0.0000
    21 N21    -10.1283 -20.8708 -10.5498   N.2       1 RES1   0.0000
    22 C22    -10.7138 -20.4838 -11.7284   C.2       1 RES1   0.0000
    23 C23    -10.2371 -19.7936 -12.8697   C.2       1 RES1   0.0000
    24 C24    -11.0983 -19.5411 -13.9434   C.2       1 RES1   0.0000
    25 C25    -12.4453 -19.9710 -13.8958   C.2       1 RES1   0.0000
    26 C26    -12.9304 -20.6493 -12.7812   C.2       1 RES1   0.0000
    27 C27    -12.0733 -20.9156 -11.6812   C.2       1 RES1   0.0000
    28 C28    -15.8364 -21.8941  -8.8439   C.2       1 RES1   0.0000
    29 O29    -16.0828 -22.1845  -7.5442   O.co2     1 RES1   0.0000
    30 O30    -16.6556 -22.1623  -9.6936   O.co2     1 RES1  -1.0000
    31 C31    -16.7203 -19.3661  -4.1286   C.2       1 RES1   0.0000
    32 O32    -16.9232 -19.7164  -2.8498   O.3       1 RES1   0.0000
@<TRIPOS>BOND
     1     2     1    1
     2     2     3    1
     3     2     4    1
     4     4     5    2
     5     5     6    1
     6     6     7    1
     7     7     8    2
     8     7     9   am
     9     9    10    1
    10    10    11    1
    11    11    12    1
    12    12    13    1
    13    13    14    1
    14    14    15    2
    15    14    16   am
    16    16    17    1
    17    17    18    1
    18    18    19    1
    19    19    20    2
    20    20    21    1
    21    21    22    1
    22    22    23    2
    23    23    24    1
    24    24    25    2
    25    25    26    1
    26    26    27    2
    27    17    28    1
    28    28    29    2
    29    28    30    1
    30     6    31    2
    31    31    32    1
    32    32     4    1
    33    13     9    1
    34    27    19    1
    35    27    22    1
@<TRIPOS>SUBSTRUCTURE
     1 RES1        1 GROUP             0 ****  ****    0  
@<TRIPOS>MOLECULE
ligand_21
    32    35     1     0     0
SMALL
USER_CHARGES
****
Generated from the CSD

@<TRIPOS>ATOM
     1 C1     -16.0364 -21.6095  -0.5062   C.3       1 RES1   0.0000
     2 C2     -15.4086 -20.2547  -0.8182   C.3       1 RES1   0.0000
     3 N3     -15.9026 -19.2072   0.0792   N.3       1 RES1   1.0000
     4 C4     -15.6931 -19.8839  -2.2426   C.2       1 RES1   0.0000
     5 N5     -16.4077 -18.8835  -2.5861   N.2       1 RES1   0.0000
     6 C6     -16.4754 -18.8196  -3.9255   C.2       1 RES1   0.0000
     7 C7     -17.2304 -17.7671  -4.6363   C.2       1 RES1   0.0000
     8 O8     -17.6030 -16.8259  -3.9569   O.2       1 RES1   0.0000
     9 N9     -17.5218 -17.7540  -5.9871   N.am      1 RES1   0.0000
    10 C10    -17.0237 -18.6673  -7.0162   C.3       1 RES1   0.0000
    11 C11    -17.4874 -18.1046  -8.2711   C.3       1 RES1   0.0000
    12 C12    -18.2290 -16.9247  -8.0774   C.3       1 RES1   0.0000
    13 C13    -18.2642 -16.6423  -6.5846   C.3       1 RES1   0.0000
    14 C14    -19.6787 -16.5648  -6.0827   C.2       1 RES1   0.0000
    15 O15    -20.2924 -17.5885  -5.8297   O.2       1 RES1   0.0000
    16 N16    -20.2322 -15.3561  -5.8760   N.am      1 RES1   0.0000
    17 C17    -21.5855 -15.2082  -5.3391   C.3       1 RES1   0.0000
    18 C18    -21.5754 -14.2808  -4.0862   C.3       1 RES1   0.0000
    19 C19    -20.8003 -14.8559  -2.8978   C.2       1 RES1   0.0000
    20 C20    -19.5580 -14.4939  -2.5225   C.2       1 RES1   0.0000
    21 N21    -19.1663 -15.2071  -1.4210   N.2       1 RES1   0.0000
    22 C22    -20.1595 -16.0713  -1.0356   C.2       1 RES1   0.0000
    23 C23    -20.2727 -17.0162   0.0134   C.2       1 RES1   0.0000
    24 C24    -21.4443 -17.7687   0.1522   C.2       1 RES1   0.0000
    25 C25    -22.5186 -17.5919  -0.7511   C.2       1 RES1   0.0000
    26 C26    -22.4235 -16.6687  -1.7885   C.2       1 RES1   0.0000
    27 C27    -21.2436 -15.8952  -1.9470   C.2       1 RES1   0.0000
    28 C28    -22.4980 -14.6702  -6.4351   C.2       1 RES1   0.0000
    29 O29    -21.9677 -14.0046  -7.4886   O.co2     1 RES1   0.0000
    30 O30    -23.6934 -14.8466  -6.3655   O.co2     1 RES1  -1.0000
    31 C31    -15.7451 -19.8620  -4.4055   C.2       1 RES1   0.0000
    32 O32    -15.2617 -20.5180  -3.3400   O.3       1 RES1   0.0000
@<TRIPOS>BOND
     1     2     1    1
     2     2     3    1
     3     2     4    1
     4     4     5    2
     5     5     6    1
     6     6     7    1
     7     7     8    2
     8     7     9   am
     9     9    10    1
    10    10    11    1
    11    11    12    1
    12    12    13    1
    13    13    14    1
    14    14    15    2
    15    14    16   am
    16    16    17    1
    17    17    18    1
    18    18    19    1
    19    19    20    2
    20    20    21    1
    21    21    22    1
    22    22    23    2
    23    23    24    1
    24    24    25    2
    25    25    26    1
    26    26    27    2
    27    17    28    1
    28    28    29    2
    29    28    30    1
    30     6    31    2
    31    31    32    1
    32    32     4    1
    33    13     9    1
    34    27    19    1
    35    27    22    1
@<TRIPOS>SUBSTRUCTURE
     1 RES1        1 GROUP             0 ****  ****    0  
@<TRIPOS>MOLECULE
ligand_22
    32    35     1     0     0
SMALL
USER_CHARGES
****
Generated from the CSD

@<TRIPOS>ATOM
     1 C1     -16.0156 -21.5904  -0.5033   C.3       1 RES1   0.0000
     2 C2     -15.3975 -20.2319  -0.8189   C.3       1 RES1   0.0000
     3 N3     -15.8979 -19.1859   0.0766   N.3       1 RES1   1.0000
     4 C4     -15.6858 -19.8664  -2.2439   C.2       1 RES1   0.0000
     5 N5     -16.4749 -20.5262  -2.9999   N.2       1 RES1   0.0000
     6 C6     -16.5206 -19.9504  -4.2119   C.2       1 RES1   0.0000
     7 C7     -17.3501 -20.4786  -5.3147   C.2       1 RES1   0.0000
     8 O8     -16.9675 -20.2182  -6.4425   O.2       1 RES1   0.0000
     9 N9     -18.4890 -21.2481  -5.1721   N.am      1 RES1   0.0000
    10 C10    -19.0225 -21.8327  -3.9413   C.3       1 RES1   0.0000
    11 C11    -20.1153 -22.6837  -4.3751   C.3       1 RES1   0.0000
    12 C12    -20.2834 -22.6544  -5.7718   C.3       1 RES1   0.0000
    13 C13    -19.2196 -21.7328  -6.3449   C.3       1 RES1   0.0000
    14 C14    -19.8416 -20.6142  -7.1328   C.2       1 RES1   0.0000
    15 O15    -20.2783 -19.6319  -6.5558   O.2       1 RES1   0.0000
    16 N16    -19.8645 -20.6964  -8.4754   N.am      1 RES1   0.0000
    17 C17    -20.4095 -19.6215  -9.3056   C.3       1 RES1   0.0000
    18 C18    -19.9373 -19.7821 -10.7825   C.3       1 RES1   0.0000
    19 C19    -18.4289 -19.6024 -10.9722   C.2       1 RES1   0.0000
    20 C20    -17.8190 -18.4735 -11.3831   C.2       1 RES1   0.0000
    21 N21    -16.4636 -18.6597 -11.4451   N.2       1 RES1   0.0000
    22 C22    -16.1413 -19.9387 -11.0685   C.2       1 RES1   0.0000
    23 C23    -14.9153 -20.6392 -10.9568   C.2       1 RES1   0.0000
    24 C24    -14.9090 -21.9730 -10.5335   C.2       1 RES1   0.0000
    25 C25    -16.1221 -22.6281 -10.2165   C.2       1 RES1   0.0000
    26 C26    -17.3360 -21.9549 -10.3221   C.2       1 RES1   0.0000
    27 C27    -17.3644 -20.6014 -10.7497   C.2       1 RES1   0.0000
    28 C28    -21.9294 -19.6292  -9.1925   C.2       1 RES1   0.0000
    29 O29    -22.5716 -20.7561  -8.8030   O.co2     1 RES1   0.0000
    30 O30    -22.5582 -18.6257  -9.4426   O.co2     1 RES1  -1.0000
    31 C31    -15.6955 -18.8700  -4.1645   C.2       1 RES1   0.0000
    32 O32    -15.1813 -18.8308  -2.9262   O.3       1 RES1   0.0000
@<TRIPOS>BOND
     1     2     1    1
     2     2     3    1
     3     2     4    1
     4     4     5    2
     5     5     6    1
     6     6     7    1
     7     7     8    2
     8     7     9   am
     9     9    10    1
    10    10    11    1
    11    11    12    1
    12    12    13    1
    13    13    14    1
    14    14    15    2
    15    14    16   am
    16    16    17    1
    17    17    18    1
    18    18    19    1
    19    19    20    2
    20    20    21    1
    21    21    22    1
    22    22    23    2
    23    23    24    1
    24    24    25    2
    25    25    26    1
    26    26    27    2
    27    17    28    1
    28    28    29    2
    29    28    30    1
    30     6    31    2
    31    31    32    1
    32    32     4    1
    33    13     9    1
    34    27    19    1
    35    27    22    1
@<TRIPOS>SUBSTRUCTURE
     1 RES1        1 GROUP             0 ****  ****    0  
@<TRIPOS>MOLECULE
ligand_23
    32    35     1     0     0
SMALL
USER_CHARGES
****
Generated from the CSD

@<TRIPOS>ATOM
     1 C1     -16.0154 -21.5917  -0.5037   C.3       1 RES1   0.0000
     2 C2     -15.3968 -20.2335  -0.8191   C.3       1 RES1   0.0000
     3 N3     -15.8967 -19.1875   0.0766   N.3       1 RES1   1.0000
     4 C4     -15.6852 -19.8676  -2.2441   C.2       1 RES1   0.0000
     5 N5     -16.4746 -20.5270  -3.0000   N.2       1 RES1   0.0000
     6 C6     -16.5203 -19.9509  -4.2119   C.2       1 RES1   0.0000
     7 C7     -17.3501 -20.4786  -5.3147   C.2       1 RES1   0.0000
     8 O8     -16.9679 -20.2177  -6.4425   O.2       1 RES1   0.0000
     9 N9     -18.4890 -21.2481  -5.1721   N.am      1 RES1   0.0000
    10 C10    -19.0225 -21.8327  -3.9413   C.3       1 RES1   0.0000
    11 C11    -20.1153 -22.6837  -4.3751   C.3       1 RES1   0.0000
    12 C12    -20.2834 -22.6544  -5.7718   C.3       1 RES1   0.0000
    13 C13    -19.2196 -21.7328  -6.3449   C.3       1 RES1   0.0000
    14 C14    -19.8416 -20.6142  -7.1328   C.2       1 RES1   0.0000
    15 O15    -20.2783 -19.6319  -6.5558   O.2       1 RES1   0.0000
    16 N16    -19.8645 -20.6964  -8.4754   N.am      1 RES1   0.0000
    17 C17    -20.4095 -19.6215  -9.3056   C.3       1 RES1   0.0000
    18 C18    -19.9515 -19.7919 -10.7859   C.3       1 RES1   0.0000
    19 C19    -18.4412 -19.6427 -10.9867   C.2       1 RES1   0.0000
    20 C20    -17.5683 -20.6554 -11.1530   C.2       1 RES1   0.0000
    21 N21    -16.2971 -20.1688 -11.3040   N.2       1 RES1   0.0000
    22 C22    -16.3015 -18.7985 -11.2410   C.2       1 RES1   0.0000
    23 C23    -15.2836 -17.8180 -11.3342   C.2       1 RES1   0.0000
    24 C24    -15.6092 -16.4611 -11.2292   C.2       1 RES1   0.0000
    25 C25    -16.9514 -16.0614 -11.0293   C.2       1 RES1   0.0000
    26 C26    -17.9639 -17.0120 -10.9340   C.2       1 RES1   0.0000
    27 C27    -17.6550 -18.3938 -11.0379   C.2       1 RES1   0.0000
    28 C28    -21.9284 -19.6183  -9.1791   C.2       1 RES1   0.0000
    29 O29    -22.5747 -20.7391  -8.7789   O.co2     1 RES1   0.0000
    30 O30    -22.5525 -18.6116  -9.4282   O.co2     1 RES1  -1.0000
    31 C31    -15.6947 -18.8709  -4.1644   C.2       1 RES1   0.0000
    32 O32    -15.1803 -18.8321  -2.9262   O.3       1 RES1   0.0000
@<TRIPOS>BOND
     1     2     1    1
     2     2     3    1
     3     2     4    1
     4     4     5    2
     5     5     6    1
     6     6     7    1
     7     7     8    2
     8     7     9   am
     9     9    10    1
    10    10    11    1
    11    11    12    1
    12    12    13    1
    13    13    14    1
    14    14    15    2
    15    14    16   am
    16    16    17    1
    17    17    18    1
    18    18    19    1
    19    19    20    2
    20    20    21    1
    21    21    22    1
    22    22    23    2
    23    23    24    1
    24    24    25    2
    25    25    26    1
    26    26    27    2
    27    17    28    1
    28    28    29    2
    29    28    30    1
    30     6    31    2
    31    31    32    1
    32    32     4    1
    33    13     9    1
    34    27    19    1
    35    27    22    1
@<TRIPOS>SUBSTRUCTURE
     1 RES1        1 GROUP             0 ****  ****    0  
@<TRIPOS>MOLECULE
ligand_24
    32    35     1     0     0
SMALL
USER_CHARGES
****
Generated from the CSD

@<TRIPOS>ATOM
     1 C1     -15.9568 -21.6348  -0.5851   C.3       1 RES1   0.0000
     2 C2     -15.3379 -20.2768  -0.9010   C.3       1 RES1   0.0000
     3 N3     -15.8191 -19.2352   0.0101   N.3       1 RES1   1.0000
     4 C4     -15.6478 -19.8997  -2.3184   C.2       1 RES1   0.0000
     5 N5     -16.3707 -18.8994  -2.6445   N.2       1 RES1   0.0000
     6 C6     -16.4616 -18.8289  -3.9822   C.2       1 RES1   0.0000
     7 C7     -17.2314 -17.7749  -4.6746   C.2       1 RES1   0.0000
     8 O8     -16.8670 -17.5033  -5.8058   O.2       1 RES1   0.0000
     9 N9     -18.3239 -17.1026  -4.1607   N.am      1 RES1   0.0000
    10 C10    -19.0433 -17.3870  -2.9187   C.3       1 RES1   0.0000
    11 C11    -20.2005 -16.5115  -2.9484   C.3       1 RES1   0.0000
    12 C12    -20.2321 -15.7193  -4.1108   C.3       1 RES1   0.0000
    13 C13    -19.0212 -16.0870  -4.9522   C.3       1 RES1   0.0000
    14 C14    -18.1632 -14.8824  -5.2194   C.2       1 RES1   0.0000
    15 O15    -18.4896 -14.0802  -6.0787   O.2       1 RES1   0.0000
    16 N16    -17.0648 -14.6844  -4.4681   N.am      1 RES1   0.0000
    17 C17    -16.2089 -13.5108  -4.6461   C.3       1 RES1   0.0000
    18 C18    -15.2720 -13.3288  -3.4136   C.3       1 RES1   0.0000
    19 C19    -14.2755 -14.4748  -3.2201   C.2       1 RES1   0.0000
    20 C20    -14.3912 -15.4715  -2.3209   C.2       1 RES1   0.0000
    21 N21    -13.3246 -16.3251  -2.4160   N.2       1 RES1   0.0000
    22 C22    -12.4649 -15.9050  -3.3988   C.2       1 RES1   0.0000
    23 C23    -11.2386 -16.4084  -3.8978   C.2       1 RES1   0.0000
    24 C24    -10.5799 -15.7399  -4.9359   C.2       1 RES1   0.0000
    25 C25    -11.1318 -14.5615  -5.4908   C.2       1 RES1   0.0000
    26 C26    -12.3353 -14.0523  -5.0113   C.2       1 RES1   0.0000
    27 C27    -13.0196 -14.7152  -3.9588   C.2       1 RES1   0.0000
    28 C28    -15.4191 -13.6645  -5.9406   C.2       1 RES1   0.0000
    29 O29    -15.2260 -14.8953  -6.4715   O.co2     1 RES1   0.0000
    30 O30    -14.9737 -12.6854  -6.4955   O.co2     1 RES1  -1.0000
    31 C31    -15.7370 -19.8670  -4.4800   C.2       1 RES1   0.0000
    32 O32    -15.2337 -20.5270  -3.4263   O.3       1 RES1   0.0000
@<TRIPOS>BOND
     1     2     1    1
     2     2     3    1
     3     2     4    1
     4     4     5    2
     5     5     6    1
     6     6     7    1
     7     7     8    2
     8     7     9   am
     9     9    10    1
    10    10    11    1
    11    11    12    1
    12    12    13    1
    13    13    14    1
    14    14    15    2
    15    14    16   am
    16    16    17    1
    17    17    18    1
    18    18    19    1
    19    19    20    2
    20    20    21    1
    21    21    22    1
    22    22    23    2
    23    23    24    1
    24    24    25    2
    25    25    26    1
    26    26    27    2
    27    17    28    1
    28    28    29    2
    29    28    30    1
    30     6    31    2
    31    31    32    1
    32    32     4    1
    33    13     9    1
    34    27    19    1
    35    27    22    1
@<TRIPOS>SUBSTRUCTURE
     1 RES1        1 GROUP             0 ****  ****    0  
@<TRIPOS>MOLECULE
ligand_25
    32    35     1     0     0
SMALL
USER_CHARGES
****
Generated from the CSD

@<TRIPOS>ATOM
     1 C1     -16.0348 -21.7058  -0.5819   C.3       1 RES1   0.0000
     2 C2     -15.3973 -20.3494  -0.8660   C.3       1 RES1   0.0000
     3 N3     -15.8772 -19.3191   0.0586   N.3       1 RES1   1.0000
     4 C4     -15.6869 -19.9431  -2.2797   C.2       1 RES1   0.0000
     5 N5     -14.7835 -19.6542  -3.1340   N.2       1 RES1   0.0000
     6 C6     -15.3590 -19.3300  -4.3029   C.2       1 RES1   0.0000
     7 C7     -14.5778 -18.9472  -5.4971   C.2       1 RES1   0.0000
     8 O8     -15.1067 -19.1652  -6.5736   O.2       1 RES1   0.0000
     9 N9     -13.3305 -18.3524  -5.4902   N.am      1 RES1   0.0000
    10 C10    -12.8665 -17.6877  -4.2619   C.3       1 RES1   0.0000
    11 C11    -11.7152 -16.8090  -4.7002   C.3       1 RES1   0.0000
    12 C12    -11.9590 -16.5866  -6.1725   C.3       1 RES1   0.0000
    13 C13    -12.4992 -17.9355  -6.6244   C.3       1 RES1   0.0000
    14 C14    -11.3809 -18.8808  -6.9628   C.2       1 RES1   0.0000
    15 O15    -10.7984 -18.7783  -8.0300   O.2       1 RES1   0.0000
    16 N16    -11.0086 -19.8020  -6.0559   N.am      1 RES1   0.0000
    17 C17     -9.8979 -20.7226  -6.3016   C.3       1 RES1   0.0000
    18 C18     -9.4339 -21.3836  -4.9682   C.3       1 RES1   0.0000
    19 C19     -8.8385 -20.3947  -3.9626   C.2       1 RES1   0.0000
    20 C20     -9.4718 -19.8979  -2.8822   C.2       1 RES1   0.0000
    21 N21     -8.6499 -19.0401  -2.2008   N.2       1 RES1   0.0000
    22 C22     -7.4324 -18.9500  -2.8263   C.2       1 RES1   0.0000
    23 C23     -6.2491 -18.2224  -2.5496   C.2       1 RES1   0.0000
    24 C24     -5.1414 -18.3423  -3.3962   C.2       1 RES1   0.0000
    25 C25     -5.1962 -19.1869  -4.5298   C.2       1 RES1   0.0000
    26 C26     -6.3518 -19.9079  -4.8172   C.2       1 RES1   0.0000
    27 C27     -7.4867 -19.8004  -3.9711   C.2       1 RES1   0.0000
    28 C28    -10.3326 -21.7620  -7.3281   C.2       1 RES1   0.0000
    29 O29    -11.6498 -22.0137  -7.5177   O.co2     1 RES1   0.0000
    30 O30     -9.5001 -22.3537  -7.9775   O.co2     1 RES1  -1.0000
    31 C31    -16.7029 -19.4366  -4.1215   C.2       1 RES1   0.0000
    32 O32    -16.8918 -19.8216  -2.8505   O.3       1 RES1   0.0000
@<TRIPOS>BOND
     1     2     1    1
     2     2     3    1
     3     2     4    1
     4     4     5    2
     5     5     6    1
     6     6     7    1
     7     7     8    2
     8     7     9   am
     9     9    10    1
    10    10    11    1
    11    11    12    1
    12    12    13    1
    13    13    14    1
    14    14    15    2
    15    14    16   am
    16    16    17    1
    17    17    18    1
    18    18    19    1
    19    19    20    2
    20    20    21    1
    21    21    22    1
    22    22    23    2
    23    23    24    1
    24    24    25    2
    25    25    26    1
    26    26    27    2
    27    17    28    1
    28    28    29    2
    29    28    30    1
    30     6    31    2
    31    31    32    1
    32    32     4    1
    33    13     9    1
    34    27    19    1
    35    27    22    1
@<TRIPOS>SUBSTRUCTURE
     1 RES1        1 GROUP             0 ****  ****    0  
@<TRIPOS>MOLECULE
ligand_26
    32    35     1     0     0
SMALL
USER_CHARGES
****
Generated from the CSD

@<TRIPOS>ATOM
     1 C1     -15.9568 -21.6348  -0.5851   C.3       1 RES1   0.0000
     2 C2     -15.3379 -20.2768  -0.9010   C.3       1 RES1   0.0000
     3 N3     -15.8191 -19.2352   0.0101   N.3       1 RES1   1.0000
     4 C4     -15.6478 -19.8997  -2.3184   C.2       1 RES1   0.0000
     5 N5     -16.3707 -18.8994  -2.6445   N.2       1 RES1   0.0000
     6 C6     -16.4616 -18.8289  -3.9822   C.2       1 RES1   0.0000
     7 C7     -17.2314 -17.7749  -4.6746   C.2       1 RES1   0.0000
     8 O8     -16.8670 -17.5033  -5.8058   O.2       1 RES1   0.0000
     9 N9     -18.3239 -17.1026  -4.1607   N.am      1 RES1   0.0000
    10 C10    -19.0433 -17.3870  -2.9187   C.3       1 RES1   0.0000
    11 C11    -20.2005 -16.5115  -2.9484   C.3       1 RES1   0.0000
    12 C12    -20.2321 -15.7193  -4.1108   C.3       1 RES1   0.0000
    13 C13    -19.0212 -16.0870  -4.9522   C.3       1 RES1   0.0000
    14 C14    -18.1632 -14.8824  -5.2194   C.2       1 RES1   0.0000
    15 O15    -18.4896 -14.0802  -6.0787   O.2       1 RES1   0.0000
    16 N16    -17.0648 -14.6844  -4.4681   N.am      1 RES1   0.0000
    17 C17    -16.2089 -13.5108  -4.6461   C.3       1 RES1   0.0000
    18 C18    -15.2720 -13.3288  -3.4136   C.3       1 RES1   0.0000
    19 C19    -14.3568 -12.1052  -3.5082   C.2       1 RES1   0.0000
    20 C20    -13.0498 -12.1267  -3.8345   C.2       1 RES1   0.0000
    21 N21    -12.5351 -10.8577  -3.8235   N.2       1 RES1   0.0000
    22 C22    -13.5083  -9.9523  -3.4847   C.2       1 RES1   0.0000
    23 C23    -13.5144  -8.5445  -3.3291   C.2       1 RES1   0.0000
    24 C24    -14.6954  -7.8869  -2.9671   C.2       1 RES1   0.0000
    25 C25    -15.8859  -8.6209  -2.7543   C.2       1 RES1   0.0000
    26 C26    -15.8972 -10.0051  -2.9015   C.2       1 RES1   0.0000
    27 C27    -14.7098 -10.6916  -3.2682   C.2       1 RES1   0.0000
    28 C28    -15.4191 -13.6645  -5.9406   C.2       1 RES1   0.0000
    29 O29    -15.2260 -14.8953  -6.4715   O.co2     1 RES1   0.0000
    30 O30    -14.9737 -12.6854  -6.4955   O.co2     1 RES1  -1.0000
    31 C31    -15.7370 -19.8670  -4.4800   C.2       1 RES1   0.0000
    32 O32    -15.2337 -20.5270  -3.4263   O.3       1 RES1   0.0000
@<TRIPOS>BOND
     1     2     1    1
     2     2     3    1
     3     2     4    1
     4     4     5    2
     5     5     6    1
     6     6     7    1
     7     7     8    2
     8     7     9   am
     9     9    10    1
    10    10    11    1
    11    11    12    1
    12    12    13    1
    13    13    14    1
    14    14    15    2
    15    14    16   am
    16    16    17    1
    17    17    18    1
    18    18    19    1
    19    19    20    2
    20    20    21    1
    21    21    22    1
    22    22    23    2
    23    23    24    1
    24    24    25    2
    25    25    26    1
    26    26    27    2
    27    17    28    1
    28    28    29    2
    29    28    30    1
    30     6    31    2
    31    31    32    1
    32    32     4    1
    33    13     9    1
    34    27    19    1
    35    27    22    1
@<TRIPOS>SUBSTRUCTURE
     1 RES1        1 GROUP             0 ****  ****    0  
@<TRIPOS>MOLECULE
ligand_27
    32    35     1     0     0
SMALL
USER_CHARGES
****
Generated from the CSD

@<TRIPOS>ATOM
     1 C1     -15.9557 -21.6325  -0.5829   C.3       1 RES1   0.0000
     2 C2     -15.3371 -20.2745  -0.8994   C.3       1 RES1   0.0000
     3 N3     -15.8185 -19.2326   0.0112   N.3       1 RES1   1.0000
     4 C4     -15.6472 -19.8981  -2.3170   C.2       1 RES1   0.0000
     5 N5     -16.3703 -18.8981  -2.6436   N.2       1 RES1   0.0000
     6 C6     -16.4613 -18.8283  -3.9813   C.2       1 RES1   0.0000
     7 C7     -17.2314 -17.7748  -4.6741   C.2       1 RES1   0.0000
     8 O8     -16.8671 -17.5037  -5.8055   O.2       1 RES1   0.0000
     9 N9     -18.3240 -17.1025  -4.1605   N.am      1 RES1   0.0000
    10 C10    -19.0436 -17.3868  -2.9185   C.3       1 RES1   0.0000
    11 C11    -20.2008 -16.5113  -2.9485   C.3       1 RES1   0.0000
    12 C12    -20.2323 -15.7192  -4.1110   C.3       1 RES1   0.0000
    13 C13    -19.0212 -16.0870  -4.9522   C.3       1 RES1   0.0000
    14 C14    -18.1632 -14.8824  -5.2194   C.2       1 RES1   0.0000
    15 O15    -18.4896 -14.0802  -6.0787   O.2       1 RES1   0.0000
    16 N16    -17.0648 -14.6844  -4.4681   N.am      1 RES1   0.0000
    17 C17    -16.2089 -13.5109  -4.6461   C.3       1 RES1   0.0000
    18 C18    -15.2720 -13.3289  -3.4136   C.3       1 RES1   0.0000
    19 C19    -14.3517 -12.1093  -3.5115   C.2       1 RES1   0.0000
    20 C20    -14.5504 -10.9256  -2.8994   C.2       1 RES1   0.0000
    21 N21    -13.5366 -10.0563  -3.2028   N.2       1 RES1   0.0000
    22 C22    -12.6279 -10.6573  -4.0363   C.2       1 RES1   0.0000
    23 C23    -11.4237 -10.2185  -4.6392   C.2       1 RES1   0.0000
    24 C24    -10.6976 -11.0870  -5.4618   C.2       1 RES1   0.0000
    25 C25    -11.1600 -12.4032  -5.6963   C.2       1 RES1   0.0000
    26 C26    -12.3422 -12.8502  -5.1128   C.2       1 RES1   0.0000
    27 C27    -13.0939 -11.9849  -4.2750   C.2       1 RES1   0.0000
    28 C28    -15.4190 -13.6645  -5.9406   C.2       1 RES1   0.0000
    29 O29    -15.2130 -14.8967  -6.4634   O.co2     1 RES1   0.0000
    30 O30    -14.9853 -12.6843  -6.5027   O.co2     1 RES1  -1.0000
    31 C31    -15.7365 -19.8665  -4.4786   C.2       1 RES1   0.0000
    32 O32    -15.2330 -20.5259  -3.4246   O.3       1 RES1   0.0000
@<TRIPOS>BOND
     1     2     1    1
     2     2     3    1
     3     2     4    1
     4     4     5    2
     5     5     6    1
     6     6     7    1
     7     7     8    2
     8     7     9   am
     9     9    10    1
    10    10    11    1
    11    11    12    1
    12    12    13    1
    13    13    14    1
    14    14    15    2
    15    14    16   am
    16    16    17    1
    17    17    18    1
    18    18    19    1
    19    19    20    2
    20    20    21    1
    21    21    22    1
    22    22    23    2
    23    23    24    1
    24    24    25    2
    25    25    26    1
    26    26    27    2
    27    17    28    1
    28    28    29    2
    29    28    30    1
    30     6    31    2
    31    31    32    1
    32    32     4    1
    33    13     9    1
    34    27    19    1
    35    27    22    1
@<TRIPOS>SUBSTRUCTURE
     1 RES1        1 GROUP             0 ****  ****    0  
@<TRIPOS>MOLECULE
ligand_28
    32    35     1     0     0
SMALL
USER_CHARGES
****
Generated from the CSD

@<TRIPOS>ATOM
     1 C1     -15.8360 -21.6364  -0.4764   C.3       1 RES1   0.0000
     2 C2     -15.2160 -20.2807  -0.7997   C.3       1 RES1   0.0000
     3 N3     -15.6842 -19.2368   0.1155   N.3       1 RES1   1.0000
     4 C4     -15.5394 -19.9035  -2.2142   C.2       1 RES1   0.0000
     5 N5     -14.6571 -19.6238  -3.0932   N.2       1 RES1   0.0000
     6 C6     -15.2604 -19.3264  -4.2552   C.2       1 RES1   0.0000
     7 C7     -14.5083 -18.9601  -5.4731   C.2       1 RES1   0.0000
     8 O8     -13.3537 -18.6083  -5.3021   O.2       1 RES1   0.0000
     9 N9     -14.9929 -19.0061  -6.7664   N.am      1 RES1   0.0000
    10 C10    -16.2654 -19.5658  -7.2231   C.3       1 RES1   0.0000
    11 C11    -16.1945 -19.5214  -8.6721   C.3       1 RES1   0.0000
    12 C12    -14.9789 -18.9753  -9.1236   C.3       1 RES1   0.0000
    13 C13    -14.1435 -18.6358  -7.9003   C.3       1 RES1   0.0000
    14 C14    -13.7744 -17.1790  -7.8857   C.2       1 RES1   0.0000
    15 O15    -12.8587 -16.7754  -8.5836   O.2       1 RES1   0.0000
    16 N16    -14.4964 -16.3307  -7.1313   N.am      1 RES1   0.0000
    17 C17    -14.2023 -14.8980  -7.0838   C.3       1 RES1   0.0000
    18 C18    -15.4145 -14.1129  -6.4971   C.3       1 RES1   0.0000
    19 C19    -16.6565 -14.1345  -7.3920   C.2       1 RES1   0.0000
    20 C20    -17.0253 -13.1594  -8.2454   C.2       1 RES1   0.0000
    21 N21    -18.1859 -13.5016  -8.8869   N.2       1 RES1   0.0000
    22 C22    -18.6174 -14.7336  -8.4651   C.2       1 RES1   0.0000
    23 C23    -19.7346 -15.5383  -8.7974   C.2       1 RES1   0.0000
    24 C24    -19.9071 -16.7826  -8.1809   C.2       1 RES1   0.0000
    25 C25    -18.9711 -17.2428  -7.2251   C.2       1 RES1   0.0000
    26 C26    -17.8683 -16.4640  -6.8859   C.2       1 RES1   0.0000
    27 C27    -17.6747 -15.1985  -7.4996   C.2       1 RES1   0.0000
    28 C28    -12.9353 -14.6784  -6.2656   C.2       1 RES1   0.0000
    29 O29    -12.5362 -15.6167  -5.3743   O.co2     1 RES1   0.0000
    30 O30    -12.2841 -13.6699  -6.4206   O.co2     1 RES1  -1.0000
    31 C31    -16.5991 -19.4399  -4.0426   C.2       1 RES1   0.0000
    32 O32    -16.7573 -19.8023  -2.7608   O.3       1 RES1   0.0000
@<TRIPOS>BOND
     1     2     1    1
     2     2     3    1
     3     2     4    1
     4     4     5    2
     5     5     6    1
     6     6     7    1
     7     7     8    2
     8     7     9   am
     9     9    10    1
    10    10    11    1
    11    11    12    1
    12    12    13    1
    13    13    14    1
    14    14    15    2
    15    14    16   am
    16    16    17    1
    17    17    18    1
    18    18    19    1
    19    19    20    2
    20    20    21    1
    21    21    22    1
    22    22    23    2
    23    23    24    1
    24    24    25    2
    25    25    26    1
    26    26    27    2
    27    17    28    1
    28    28    29    2
    29    28    30    1
    30     6    31    2
    31    31    32    1
    32    32     4    1
    33    13     9    1
    34    27    19    1
    35    27    22    1
@<TRIPOS>SUBSTRUCTURE
     1 RES1        1 GROUP             0 ****  ****    0  
@<TRIPOS>MOLECULE
ligand_29
    32    35     1     0     0
SMALL
USER_CHARGES
****
Generated from the CSD

@<TRIPOS>ATOM
     1 C1     -15.9106 -21.6186  -0.4868   C.3       1 RES1   0.0000
     2 C2     -15.2877 -20.2635  -0.8070   C.3       1 RES1   0.0000
     3 N3     -15.7655 -19.2176   0.1009   N.3       1 RES1   1.0000
     4 C4     -15.5969 -19.8898  -2.2256   C.2       1 RES1   0.0000
     5 N5     -14.7058 -19.6119  -3.0963   N.2       1 RES1   0.0000
     6 C6     -15.2973 -19.3174  -4.2651   C.2       1 RES1   0.0000
     7 C7     -14.5331 -18.9538  -5.4761   C.2       1 RES1   0.0000
     8 O8     -13.3803 -18.6011  -5.2942   O.2       1 RES1   0.0000
     9 N9     -15.0044 -19.0031  -6.7742   N.am      1 RES1   0.0000
    10 C10    -16.2723 -19.5639  -7.2423   C.3       1 RES1   0.0000
    11 C11    -16.1866 -19.5233  -8.6906   C.3       1 RES1   0.0000
    12 C12    -14.9665 -18.9784  -9.1311   C.3       1 RES1   0.0000
    13 C13    -14.1435 -18.6358  -7.9003   C.3       1 RES1   0.0000
    14 C14    -13.7744 -17.1790  -7.8857   C.2       1 RES1   0.0000
    15 O15    -12.8587 -16.7754  -8.5836   O.2       1 RES1   0.0000
    16 N16    -14.4964 -16.3307  -7.1313   N.am      1 RES1   0.0000
    17 C17    -14.2187 -14.8942  -7.1037   C.3       1 RES1   0.0000
    18 C18    -15.4234 -14.1188  -6.4893   C.3       1 RES1   0.0000
    19 C19    -16.7026 -14.2007  -7.3263   C.2       1 RES1   0.0000
    20 C20    -17.7602 -14.9940  -7.0667   C.2       1 RES1   0.0000
    21 N21    -18.7316 -14.8188  -8.0161   N.2       1 RES1   0.0000
    22 C22    -18.3310 -13.8879  -8.9406   C.2       1 RES1   0.0000
    23 C23    -18.9374 -13.3470 -10.1007   C.2       1 RES1   0.0000
    24 C24    -18.2603 -12.3852 -10.8589   C.2       1 RES1   0.0000
    25 C25    -16.9708 -11.9493 -10.4736   C.2       1 RES1   0.0000
    26 C26    -16.3598 -12.4714  -9.3371   C.2       1 RES1   0.0000
    27 C27    -17.0295 -13.4481  -8.5540   C.2       1 RES1   0.0000
    28 C28    -12.9318 -14.6525  -6.3235   C.2       1 RES1   0.0000
    29 O29    -12.4964 -15.5785  -5.4362   O.co2     1 RES1   0.0000
    30 O30    -12.2977 -13.6377  -6.5049   O.co2     1 RES1  -1.0000
    31 C31    -16.6381 -19.4308  -4.0658   C.2       1 RES1   0.0000
    32 O32    -16.8092 -19.7902  -2.7848   O.3       1 RES1   0.0000
@<TRIPOS>BOND
     1     2     1    1
     2     2     3    1
     3     2     4    1
     4     4     5    2
     5     5     6    1
     6     6     7    1
     7     7     8    2
     8     7     9   am
     9     9    10    1
    10    10    11    1
    11    11    12    1
    12    12    13    1
    13    13    14    1
    14    14    15    2
    15    14    16   am
    16    16    17    1
    17    17    18    1
    18    18    19    1
    19    19    20    2
    20    20    21    1
    21    21    22    1
    22    22    23    2
    23    23    24    1
    24    24    25    2
    25    25    26    1
    26    26    27    2
    27    17    28    1
    28    28    29    2
    29    28    30    1
    30     6    31    2
    31    31    32    1
    32    32     4    1
    33    13     9    1
    34    27    19    1
    35    27    22    1
@<TRIPOS>SUBSTRUCTURE
     1 RES1        1 GROUP             0 ****  ****    0  
@<TRIPOS>MOLECULE
ligand_30
    32    35     1     0     0
SMALL
USER_CHARGES
****
Generated from the CSD

@<TRIPOS>ATOM
     1 C1     -15.8670 -21.6824  -0.7076   C.3       1 RES1   0.0000
     2 C2     -15.2546 -20.3205  -1.0189   C.3       1 RES1   0.0000
     3 N3     -15.7185 -19.2901  -0.0863   N.3       1 RES1   1.0000
     4 C4     -15.5916 -19.9265  -2.4255   C.2       1 RES1   0.0000
     5 N5     -16.3208 -18.9227  -2.7257   N.2       1 RES1   0.0000
     6 C6     -16.4372 -18.8362  -4.0605   C.2       1 RES1   0.0000
     7 C7     -17.2204 -17.7743  -4.7253   C.2       1 RES1   0.0000
     8 O8     -16.8777 -17.4890  -5.8600   O.2       1 RES1   0.0000
     9 N9     -18.3030 -17.1087  -4.1827   N.am      1 RES1   0.0000
    10 C10    -19.0814 -17.3501  -2.9681   C.3       1 RES1   0.0000
    11 C11    -20.5075 -17.1397  -3.4489   C.3       1 RES1   0.0000
    12 C12    -20.3781 -15.9527  -4.4013   C.3       1 RES1   0.0000
    13 C13    -18.9748 -16.0939  -5.0144   C.3       1 RES1   0.0000
    14 C14    -18.2895 -14.7566  -5.0452   C.2       1 RES1   0.0000
    15 O15    -18.5741 -13.9459  -5.9113   O.2       1 RES1   0.0000
    16 N16    -17.3997 -14.4574  -4.0815   N.am      1 RES1   0.0000
    17 C17    -16.6583 -13.1957  -4.0799   C.3       1 RES1   0.0000
    18 C18    -16.8589 -12.4485  -2.7266   C.3       1 RES1   0.0000
    19 C19    -18.2916 -11.9606  -2.4965   C.2       1 RES1   0.0000
    20 C20    -18.7386 -10.7086  -2.7158   C.2       1 RES1   0.0000
    21 N21    -20.0691 -10.6165  -2.4049   N.2       1 RES1   0.0000
    22 C22    -20.5404 -11.8278  -1.9664   C.2       1 RES1   0.0000
    23 C23    -21.8104 -12.2754  -1.5274   C.2       1 RES1   0.0000
    24 C24    -21.9839 -13.6069  -1.1333   C.2       1 RES1   0.0000
    25 C25    -20.8962 -14.5107  -1.1698   C.2       1 RES1   0.0000
    26 C26    -19.6409 -14.0871  -1.5972   C.2       1 RES1   0.0000
    27 C27    -19.4436 -12.7404  -2.0013   C.2       1 RES1   0.0000
    28 C28    -15.1872 -13.4844  -4.3553   C.2       1 RES1   0.0000
    29 O29    -14.6850 -14.7189  -4.1145   O.co2     1 RES1   0.0000
    30 O30    -14.4735 -12.6121  -4.7966   O.co2     1 RES1  -1.0000
    31 C31    -15.7220 -19.8679  -4.5844   C.2       1 RES1   0.0000
    32 O32    -15.1985 -20.5403  -3.5485   O.3       1 RES1   0.0000
@<TRIPOS>BOND
     1     2     1    1
     2     2     3    1
     3     2     4    1
     4     4     5    2
     5     5     6    1
     6     6     7    1
     7     7     8    2
     8     7     9   am
     9     9    10    1
    10    10    11    1
    11    11    12    1
    12    12    13    1
    13    13    14    1
    14    14    15    2
    15    14    16   am
    16    16    17    1
    17    17    18    1
    18    18    19    1
    19    19    20    2
    20    20    21    1
    21    21    22    1
    22    22    23    2
    23    23    24    1
    24    24    25    2
    25    25    26    1
    26    26    27    2
    27    17    28    1
    28    28    29    2
    29    28    30    1
    30     6    31    2
    31    31    32    1
    32    32     4    1
    33    13     9    1
    34    27    19    1
    35    27    22    1
@<TRIPOS>SUBSTRUCTURE
     1 RES1        1 GROUP             0 ****  ****    0  
@<TRIPOS>MOLECULE
ligand_31
    32    35     1     0     0
SMALL
USER_CHARGES
****
Generated from the CSD

@<TRIPOS>ATOM
     1 C1     -15.9973 -21.5857  -0.4957   C.3       1 RES1   0.0000
     2 C2     -15.3783 -20.2289  -0.8161   C.3       1 RES1   0.0000
     3 N3     -15.8740 -19.1804   0.0792   N.3       1 RES1   1.0000
     4 C4     -15.6711 -19.8656  -2.2408   C.2       1 RES1   0.0000
     5 N5     -16.3926 -18.8705  -2.5852   N.2       1 RES1   0.0000
     6 C6     -16.4666 -18.8125  -3.9245   C.2       1 RES1   0.0000
     7 C7     -17.2304 -17.7671  -4.6363   C.2       1 RES1   0.0000
     8 O8     -16.8524 -17.5049  -5.7653   O.2       1 RES1   0.0000
     9 N9     -18.3313 -17.0933  -4.1426   N.am      1 RES1   0.0000
    10 C10    -19.0657 -17.3685  -2.9073   C.3       1 RES1   0.0000
    11 C11    -20.2249 -16.4967  -2.9598   C.3       1 RES1   0.0000
    12 C12    -20.2438 -15.7152  -4.1297   C.3       1 RES1   0.0000
    13 C13    -19.0212 -16.0870  -4.9522   C.3       1 RES1   0.0000
    14 C14    -18.1632 -14.8824  -5.2194   C.2       1 RES1   0.0000
    15 O15    -17.3814 -14.4903  -4.3686   O.2       1 RES1   0.0000
    16 N16    -18.2401 -14.2800  -6.4198   N.am      1 RES1   0.0000
    17 C17    -17.3978 -13.1339  -6.7641   C.3       1 RES1   0.0000
    18 C18    -17.3999 -12.9006  -8.3054   C.3       1 RES1   0.0000
    19 C19    -18.7710 -12.5221  -8.8713   C.2       1 RES1   0.0000
    20 C20    -19.6053 -13.3524  -9.5269   C.2       1 RES1   0.0000
    21 N21    -20.7448 -12.6888  -9.8965   N.2       1 RES1   0.0000
    22 C22    -20.6888 -11.3814  -9.4849   C.2       1 RES1   0.0000
    23 C23    -21.5784 -10.2858  -9.6048   C.2       1 RES1   0.0000
    24 C24    -21.2309  -9.0418  -9.0662   C.2       1 RES1   0.0000
    25 C25    -19.9937  -8.8709  -8.4019   C.2       1 RES1   0.0000
    26 C26    -19.1071  -9.9367  -8.2764   C.2       1 RES1   0.0000
    27 C27    -19.4404 -11.2070  -8.8157   C.2       1 RES1   0.0000
    28 C28    -17.8927 -11.9086  -6.0047   C.2       1 RES1   0.0000
    29 O29    -19.1658 -11.8684  -5.5444   O.co2     1 RES1   0.0000
    30 O30    -17.1444 -10.9780  -5.8074   O.co2     1 RES1  -1.0000
    31 C31    -15.7327 -19.8529  -4.4035   C.2       1 RES1   0.0000
    32 O32    -15.2411 -20.5019  -3.3374   O.3       1 RES1   0.0000
@<TRIPOS>BOND
     1     2     1    1
     2     2     3    1
     3     2     4    1
     4     4     5    2
     5     5     6    1
     6     6     7    1
     7     7     8    2
     8     7     9   am
     9     9    10    1
    10    10    11    1
    11    11    12    1
    12    12    13    1
    13    13    14    1
    14    14    15    2
    15    14    16   am
    16    16    17    1
    17    17    18    1
    18    18    19    1
    19    19    20    2
    20    20    21    1
    21    21    22    1
    22    22    23    2
    23    23    24    1
    24    24    25    2
    25    25    26    1
    26    26    27    2
    27    17    28    1
    28    28    29    2
    29    28    30    1
    30     6    31    2
    31    31    32    1
    32    32     4    1
    33    13     9    1
    34    27    19    1
    35    27    22    1
@<TRIPOS>SUBSTRUCTURE
     1 RES1        1 GROUP             0 ****  ****    0  
@<TRIPOS>MOLECULE
ligand_32
    32    35     1     0     0
SMALL
USER_CHARGES
****
Generated from the CSD

@<TRIPOS>ATOM
     1 C1     -15.9958 -21.5840  -0.4945   C.3       1 RES1   0.0000
     2 C2     -15.3770 -20.2272  -0.8156   C.3       1 RES1   0.0000
     3 N3     -15.8727 -19.1784   0.0794   N.3       1 RES1   1.0000
     4 C4     -15.6702 -19.8645  -2.2403   C.2       1 RES1   0.0000
     5 N5     -16.3920 -18.8696  -2.5850   N.2       1 RES1   0.0000
     6 C6     -16.4662 -18.8121  -3.9243   C.2       1 RES1   0.0000
     7 C7     -17.2304 -17.7671  -4.6363   C.2       1 RES1   0.0000
     8 O8     -16.8527 -17.5052  -5.7655   O.2       1 RES1   0.0000
     9 N9     -18.3313 -17.0933  -4.1426   N.am      1 RES1   0.0000
    10 C10    -19.0657 -17.3685  -2.9073   C.3       1 RES1   0.0000
    11 C11    -20.2249 -16.4967  -2.9598   C.3       1 RES1   0.0000
    12 C12    -20.2438 -15.7152  -4.1297   C.3       1 RES1   0.0000
    13 C13    -19.0212 -16.0870  -4.9522   C.3       1 RES1   0.0000
    14 C14    -18.1632 -14.8824  -5.2194   C.2       1 RES1   0.0000
    15 O15    -17.3814 -14.4903  -4.3686   O.2       1 RES1   0.0000
    16 N16    -18.2401 -14.2800  -6.4198   N.am      1 RES1   0.0000
    17 C17    -17.3978 -13.1339  -6.7641   C.3       1 RES1   0.0000
    18 C18    -17.4001 -12.9004  -8.3053   C.3       1 RES1   0.0000
    19 C19    -18.7632 -12.4859  -8.8656   C.2       1 RES1   0.0000
    20 C20    -19.1571 -11.2218  -9.1152   C.2       1 RES1   0.0000
    21 N21    -20.4341 -11.2096  -9.6097   N.2       1 RES1   0.0000
    22 C22    -20.9214 -12.4886  -9.7009   C.2       1 RES1   0.0000
    23 C23    -22.1560 -13.0296 -10.1360   C.2       1 RES1   0.0000
    24 C24    -22.3596 -14.4138 -10.1107   C.2       1 RES1   0.0000
    25 C25    -21.3383 -15.2783  -9.6515   C.2       1 RES1   0.0000
    26 C26    -20.1196 -14.7633  -9.2189   C.2       1 RES1   0.0000
    27 C27    -19.8926 -13.3619  -9.2365   C.2       1 RES1   0.0000
    28 C28    -17.8925 -11.9086  -6.0045   C.2       1 RES1   0.0000
    29 O29    -19.1655 -11.8685  -5.5439   O.co2     1 RES1   0.0000
    30 O30    -17.1441 -10.9781  -5.8072   O.co2     1 RES1  -1.0000
    31 C31    -15.7323 -19.8526  -4.4030   C.2       1 RES1   0.0000
    32 O32    -15.2404 -20.5011  -3.3369   O.3       1 RES1   0.0000
@<TRIPOS>BOND
     1     2     1    1
     2     2     3    1
     3     2     4    1
     4     4     5    2
     5     5     6    1
     6     6     7    1
     7     7     8    2
     8     7     9   am
     9     9    10    1
    10    10    11    1
    11    11    12    1
    12    12    13    1
    13    13    14    1
    14    14    15    2
    15    14    16   am
    16    16    17    1
    17    17    18    1
    18    18    19    1
    19    19    20    2
    20    20    21    1
    21    21    22    1
    22    22    23    2
    23    23    24    1
    24    24    25    2
    25    25    26    1
    26    26    27    2
    27    17    28    1
    28    28    29    2
    29    28    30    1
    30     6    31    2
    31    31    32    1
    32    32     4    1
    33    13     9    1
    34    27    19    1
    35    27    22    1
@<TRIPOS>SUBSTRUCTURE
     1 RES1        1 GROUP             0 ****  ****    0  
@<TRIPOS>MOLECULE
ligand_33
    32    35     1     0     0
SMALL
USER_CHARGES
****
Generated from the CSD

@<TRIPOS>ATOM
     1 C1     -15.9986 -21.6779  -0.5436   C.3       1 RES1   0.0000
     2 C2     -15.3648 -20.3221  -0.8384   C.3       1 RES1   0.0000
     3 N3     -15.8418 -19.2875   0.0828   N.3       1 RES1   1.0000
     4 C4     -15.6621 -19.9241  -2.2528   C.2       1 RES1   0.0000
     5 N5     -14.7634 -19.6385  -3.1132   N.2       1 RES1   0.0000
     6 C6     -15.3452 -19.3218  -4.2810   C.2       1 RES1   0.0000
     7 C7     -14.5705 -18.9443  -5.4812   C.2       1 RES1   0.0000
     8 O8     -15.1043 -19.1693  -6.5539   O.2       1 RES1   0.0000
     9 N9     -13.3242 -18.3473  -5.4838   N.am      1 RES1   0.0000
    10 C10    -12.8555 -17.6748  -4.2616   C.3       1 RES1   0.0000
    11 C11    -11.7078 -16.7966  -4.7106   C.3       1 RES1   0.0000
    12 C12    -11.9592 -16.5830  -6.1829   C.3       1 RES1   0.0000
    13 C13    -12.4992 -17.9355  -6.6244   C.3       1 RES1   0.0000
    14 C14    -11.3809 -18.8808  -6.9628   C.2       1 RES1   0.0000
    15 O15    -10.7993 -19.4800  -6.0733   O.2       1 RES1   0.0000
    16 N16    -11.0689 -19.0859  -8.2553   N.am      1 RES1   0.0000
    17 C17    -10.0253 -20.0297  -8.6573   C.3       1 RES1   0.0000
    18 C18    -10.1605 -20.3781 -10.1707   C.3       1 RES1   0.0000
    19 C19    -11.4392 -21.1456 -10.5165   C.2       1 RES1   0.0000
    20 C20    -11.5350 -22.4804 -10.6721   C.2       1 RES1   0.0000
    21 N21    -12.8222 -22.8331 -10.9790   N.2       1 RES1   0.0000
    22 C22    -13.6210 -21.7191 -11.0328   C.2       1 RES1   0.0000
    23 C23    -14.9973 -21.5222 -11.3030   C.2       1 RES1   0.0000
    24 C24    -15.5352 -20.2305 -11.2827   C.2       1 RES1   0.0000
    25 C25    -14.7111 -19.1175 -10.9942   C.2       1 RES1   0.0000
    26 C26    -13.3561 -19.2930 -10.7278   C.2       1 RES1   0.0000
    27 C27    -12.7905 -20.5951 -10.7434   C.2       1 RES1   0.0000
    28 C28     -8.6622 -19.4298  -8.3334   C.2       1 RES1   0.0000
    29 O29     -8.5308 -18.0892  -8.1929   O.co2     1 RES1   0.0000
    30 O30     -7.7021 -20.1535  -8.1940   O.co2     1 RES1  -1.0000
    31 C31    -16.6880 -19.4294  -4.0924   C.2       1 RES1   0.0000
    32 O32    -16.8699 -19.8078  -2.8184   O.3       1 RES1   0.0000
@<TRIPOS>BOND
     1     2     1    1
     2     2     3    1
     3     2     4    1
     4     4     5    2
     5     5     6    1
     6     6     7    1
     7     7     8    2
     8     7     9   am
     9     9    10    1
    10    10    11    1
    11    11    12    1
    12    12    13    1
    13    13    14    1
    14    14    15    2
    15    14    16   am
    16    16    17    1
    17    17    18    1
    18    18    19    1
    19    19    20    2
    20    20    21    1
    21    21    22    1
    22    22    23    2
    23    23    24    1
    24    24    25    2
    25    25    26    1
    26    26    27    2
    27    17    28    1
    28    28    29    2
    29    28    30    1
    30     6    31    2
    31    31    32    1
    32    32     4    1
    33    13     9    1
    34    27    19    1
    35    27    22    1
@<TRIPOS>SUBSTRUCTURE
     1 RES1        1 GROUP             0 ****  ****    0  
@<TRIPOS>MOLECULE
ligand_34
    32    35     1     0     0
SMALL
USER_CHARGES
****
Generated from the CSD

@<TRIPOS>ATOM
     1 C1     -15.9997 -21.6724  -0.5409   C.3       1 RES1   0.0000
     2 C2     -15.3667 -20.3165  -0.8370   C.3       1 RES1   0.0000
     3 N3     -15.8451 -19.2810   0.0824   N.3       1 RES1   1.0000
     4 C4     -15.6634 -19.9206  -2.2522   C.2       1 RES1   0.0000
     5 N5     -14.7644 -19.6354  -3.1124   N.2       1 RES1   0.0000
     6 C6     -15.3457 -19.3207  -4.2810   C.2       1 RES1   0.0000
     7 C7     -14.5705 -18.9443  -5.4812   C.2       1 RES1   0.0000
     8 O8     -15.1039 -19.1702  -6.5539   O.2       1 RES1   0.0000
     9 N9     -13.3242 -18.3473  -5.4838   N.am      1 RES1   0.0000
    10 C10    -12.8555 -17.6748  -4.2616   C.3       1 RES1   0.0000
    11 C11    -11.7078 -16.7966  -4.7106   C.3       1 RES1   0.0000
    12 C12    -11.9592 -16.5830  -6.1829   C.3       1 RES1   0.0000
    13 C13    -12.4992 -17.9355  -6.6244   C.3       1 RES1   0.0000
    14 C14    -11.3809 -18.8808  -6.9628   C.2       1 RES1   0.0000
    15 O15    -10.7993 -19.4800  -6.0733   O.2       1 RES1   0.0000
    16 N16    -11.0689 -19.0859  -8.2553   N.am      1 RES1   0.0000
    17 C17    -10.0253 -20.0297  -8.6573   C.3       1 RES1   0.0000
    18 C18    -10.1498 -20.3647 -10.1747   C.3       1 RES1   0.0000
    19 C19    -11.4376 -21.1074 -10.5400   C.2       1 RES1   0.0000
    20 C20    -12.5258 -20.5560 -11.1118   C.2       1 RES1   0.0000
    21 N21    -13.4970 -21.5031 -11.2994   N.2       1 RES1   0.0000
    22 C22    -13.0643 -22.7243 -10.8488   C.2       1 RES1   0.0000
    23 C23    -13.6573 -24.0098 -10.8044   C.2       1 RES1   0.0000
    24 C24    -12.9446 -25.0897 -10.2714   C.2       1 RES1   0.0000
    25 C25    -11.6329 -24.9052  -9.7748   C.2       1 RES1   0.0000
    26 C26    -11.0356 -23.6483  -9.8094   C.2       1 RES1   0.0000
    27 C27    -11.7414 -22.5394 -10.3460   C.2       1 RES1   0.0000
    28 C28     -8.6628 -19.4371  -8.3177   C.2       1 RES1   0.0000
    29 O29     -8.5282 -18.0982  -8.1646   O.co2     1 RES1   0.0000
    30 O30     -7.7062 -20.1652  -8.1771   O.co2     1 RES1  -1.0000
    31 C31    -16.6885 -19.4292  -4.0931   C.2       1 RES1   0.0000
    32 O32    -16.8710 -19.8059  -2.8187   O.3       1 RES1   0.0000
@<TRIPOS>BOND
     1     2     1    1
     2     2     3    1
     3     2     4    1
     4     4     5    2
     5     5     6    1
     6     6     7    1
     7     7     8    2
     8     7     9   am
     9     9    10    1
    10    10    11    1
    11    11    12    1
    12    12    13    1
    13    13    14    1
    14    14    15    2
    15    14    16   am
    16    16    17    1
    17    17    18    1
    18    18    19    1
    19    19    20    2
    20    20    21    1
    21    21    22    1
    22    22    23    2
    23    23    24    1
    24    24    25    2
    25    25    26    1
    26    26    27    2
    27    17    28    1
    28    28    29    2
    29    28    30    1
    30     6    31    2
    31    31    32    1
    32    32     4    1
    33    13     9    1
    34    27    19    1
    35    27    22    1
@<TRIPOS>SUBSTRUCTURE
     1 RES1        1 GROUP             0 ****  ****    0  
@<TRIPOS>MOLECULE
ligand_35
    32    35     1     0     0
SMALL
USER_CHARGES
****
Generated from the CSD

@<TRIPOS>ATOM
     1 C1     -15.9973 -21.5857  -0.4957   C.3       1 RES1   0.0000
     2 C2     -15.3783 -20.2289  -0.8161   C.3       1 RES1   0.0000
     3 N3     -15.8740 -19.1804   0.0792   N.3       1 RES1   1.0000
     4 C4     -15.6711 -19.8656  -2.2408   C.2       1 RES1   0.0000
     5 N5     -16.3926 -18.8705  -2.5852   N.2       1 RES1   0.0000
     6 C6     -16.4666 -18.8125  -3.9245   C.2       1 RES1   0.0000
     7 C7     -17.2304 -17.7671  -4.6363   C.2       1 RES1   0.0000
     8 O8     -16.8524 -17.5049  -5.7653   O.2       1 RES1   0.0000
     9 N9     -18.3313 -17.0933  -4.1426   N.am      1 RES1   0.0000
    10 C10    -19.0657 -17.3685  -2.9073   C.3       1 RES1   0.0000
    11 C11    -20.2249 -16.4967  -2.9598   C.3       1 RES1   0.0000
    12 C12    -20.2438 -15.7152  -4.1297   C.3       1 RES1   0.0000
    13 C13    -19.0212 -16.0870  -4.9522   C.3       1 RES1   0.0000
    14 C14    -18.1632 -14.8824  -5.2194   C.2       1 RES1   0.0000
    15 O15    -17.3814 -14.4903  -4.3686   O.2       1 RES1   0.0000
    16 N16    -18.2401 -14.2800  -6.4198   N.am      1 RES1   0.0000
    17 C17    -17.3978 -13.1339  -6.7641   C.3       1 RES1   0.0000
    18 C18    -17.3999 -12.9006  -8.3054   C.3       1 RES1   0.0000
    19 C19    -16.5206 -11.7307  -8.7546   C.2       1 RES1   0.0000
    20 C20    -16.9617 -10.5052  -9.0995   C.2       1 RES1   0.0000
    21 N21    -15.9099  -9.7017  -9.4508   N.2       1 RES1   0.0000
    22 C22    -14.7283 -10.3900  -9.3428   C.2       1 RES1   0.0000
    23 C23    -13.3758 -10.0422  -9.5789   C.2       1 RES1   0.0000
    24 C24    -12.3651 -10.9878  -9.3726   C.2       1 RES1   0.0000
    25 C25    -12.6865 -12.2923  -8.9296   C.2       1 RES1   0.0000
    26 C26    -14.0106 -12.6513  -8.6941   C.2       1 RES1   0.0000
    27 C27    -15.0510 -11.7069  -8.8973   C.2       1 RES1   0.0000
    28 C28    -17.8927 -11.9086  -6.0047   C.2       1 RES1   0.0000
    29 O29    -19.1658 -11.8684  -5.5444   O.co2     1 RES1   0.0000
    30 O30    -17.1444 -10.9780  -5.8074   O.co2     1 RES1  -1.0000
    31 C31    -15.7327 -19.8529  -4.4035   C.2       1 RES1   0.0000
    32 O32    -15.2411 -20.5019  -3.3374   O.3       1 RES1   0.0000
@<TRIPOS>BOND
     1     2     1    1
     2     2     3    1
     3     2     4    1
     4     4     5    2
     5     5     6    1
     6     6     7    1
     7     7     8    2
     8     7     9   am
     9     9    10    1
    10    10    11    1
    11    11    12    1
    12    12    13    1
    13    13    14    1
    14    14    15    2
    15    14    16   am
    16    16    17    1
    17    17    18    1
    18    18    19    1
    19    19    20    2
    20    20    21    1
    21    21    22    1
    22    22    23    2
    23    23    24    1
    24    24    25    2
    25    25    26    1
    26    26    27    2
    27    17    28    1
    28    28    29    2
    29    28    30    1
    30     6    31    2
    31    31    32    1
    32    32     4    1
    33    13     9    1
    34    27    19    1
    35    27    22    1
@<TRIPOS>SUBSTRUCTURE
     1 RES1        1 GROUP             0 ****  ****    0  
@<TRIPOS>MOLECULE
ligand_36
    32    35     1     0     0
SMALL
USER_CHARGES
****
Generated from the CSD

@<TRIPOS>ATOM
     1 C1     -15.9967 -21.5850  -0.4952   C.3       1 RES1   0.0000
     2 C2     -15.3778 -20.2282  -0.8159   C.3       1 RES1   0.0000
     3 N3     -15.8735 -19.1796   0.0793   N.3       1 RES1   1.0000
     4 C4     -15.6708 -19.8652  -2.2406   C.2       1 RES1   0.0000
     5 N5     -16.3923 -18.8701  -2.5851   N.2       1 RES1   0.0000
     6 C6     -16.4664 -18.8124  -3.9245   C.2       1 RES1   0.0000
     7 C7     -17.2304 -17.7671  -4.6363   C.2       1 RES1   0.0000
     8 O8     -16.8525 -17.5050  -5.7654   O.2       1 RES1   0.0000
     9 N9     -18.3313 -17.0933  -4.1426   N.am      1 RES1   0.0000
    10 C10    -19.0657 -17.3685  -2.9073   C.3       1 RES1   0.0000
    11 C11    -20.2249 -16.4967  -2.9598   C.3       1 RES1   0.0000
    12 C12    -20.2438 -15.7152  -4.1297   C.3       1 RES1   0.0000
    13 C13    -19.0212 -16.0870  -4.9522   C.3       1 RES1   0.0000
    14 C14    -18.1632 -14.8824  -5.2194   C.2       1 RES1   0.0000
    15 O15    -17.3814 -14.4903  -4.3686   O.2       1 RES1   0.0000
    16 N16    -18.2401 -14.2800  -6.4198   N.am      1 RES1   0.0000
    17 C17    -17.3978 -13.1339  -6.7641   C.3       1 RES1   0.0000
    18 C18    -17.3999 -12.9006  -8.3054   C.3       1 RES1   0.0000
    19 C19    -16.5263 -11.7261  -8.7539   C.2       1 RES1   0.0000
    20 C20    -15.2893 -11.8242  -9.2787   C.2       1 RES1   0.0000
    21 N21    -14.7942 -10.5805  -9.5674   N.2       1 RES1   0.0000
    22 C22    -15.7101  -9.6148  -9.2351   C.2       1 RES1   0.0000
    23 C23    -15.7071  -8.2011  -9.3229   C.2       1 RES1   0.0000
    24 C24    -16.8213  -7.4723  -8.8922   C.2       1 RES1   0.0000
    25 C25    -17.9530  -8.1397  -8.3678   C.2       1 RES1   0.0000
    26 C26    -17.9720  -9.5284  -8.2731   C.2       1 RES1   0.0000
    27 C27    -16.8520 -10.2866  -8.7045   C.2       1 RES1   0.0000
    28 C28    -17.8927 -11.9086  -6.0047   C.2       1 RES1   0.0000
    29 O29    -19.1703 -11.8620  -5.5577   O.co2     1 RES1   0.0000
    30 O30    -17.1404 -10.9838  -5.7955   O.co2     1 RES1  -1.0000
    31 C31    -15.7326 -19.8528  -4.4033   C.2       1 RES1   0.0000
    32 O32    -15.2408 -20.5016  -3.3372   O.3       1 RES1   0.0000
@<TRIPOS>BOND
     1     2     1    1
     2     2     3    1
     3     2     4    1
     4     4     5    2
     5     5     6    1
     6     6     7    1
     7     7     8    2
     8     7     9   am
     9     9    10    1
    10    10    11    1
    11    11    12    1
    12    12    13    1
    13    13    14    1
    14    14    15    2
    15    14    16   am
    16    16    17    1
    17    17    18    1
    18    18    19    1
    19    19    20    2
    20    20    21    1
    21    21    22    1
    22    22    23    2
    23    23    24    1
    24    24    25    2
    25    25    26    1
    26    26    27    2
    27    17    28    1
    28    28    29    2
    29    28    30    1
    30     6    31    2
    31    31    32    1
    32    32     4    1
    33    13     9    1
    34    27    19    1
    35    27    22    1
@<TRIPOS>SUBSTRUCTURE
     1 RES1        1 GROUP             0 ****  ****    0  
@<TRIPOS>MOLECULE
ligand_37
    32    35     1     0     0
SMALL
USER_CHARGES
****
Generated from the CSD

@<TRIPOS>ATOM
     1 C1     -16.0268 -21.5876  -0.5029   C.3       1 RES1   0.0000
     2 C2     -15.3982 -20.2342  -0.8190   C.3       1 RES1   0.0000
     3 N3     -15.8893 -19.1843   0.0771   N.3       1 RES1   1.0000
     4 C4     -15.6851 -19.8662  -2.2437   C.2       1 RES1   0.0000
     5 N5     -14.7805 -19.5924  -3.1017   N.2       1 RES1   0.0000
     6 C6     -15.3537 -19.3024  -4.2806   C.2       1 RES1   0.0000
     7 C7     -14.5705 -18.9443  -5.4812   C.2       1 RES1   0.0000
     8 O8     -13.4205 -18.5916  -5.2829   O.2       1 RES1   0.0000
     9 N9     -15.0218 -18.9986  -6.7862   N.am      1 RES1   0.0000
    10 C10    -16.2824 -19.5610  -7.2717   C.3       1 RES1   0.0000
    11 C11    -16.1743 -19.5261  -8.7186   C.3       1 RES1   0.0000
    12 C12    -14.9474 -18.9831  -9.1424   C.3       1 RES1   0.0000
    13 C13    -14.1435 -18.6358  -7.9003   C.3       1 RES1   0.0000
    14 C14    -13.7744 -17.1790  -7.8857   C.2       1 RES1   0.0000
    15 O15    -14.5839 -16.3491  -7.5052   O.2       1 RES1   0.0000
    16 N16    -12.5316 -16.8173  -8.2523   N.am      1 RES1   0.0000
    17 C17    -12.0903 -15.4225  -8.2139   C.3       1 RES1   0.0000
    18 C18    -10.5348 -15.3421  -8.2765   C.3       1 RES1   0.0000
    19 C19     -9.8354 -15.9351  -7.0506   C.2       1 RES1   0.0000
    20 C20     -9.3706 -15.2348  -5.9976   C.2       1 RES1   0.0000
    21 N21     -8.8007 -16.0765  -5.0798   N.2       1 RES1   0.0000
    22 C22     -8.8786 -17.3757  -5.5129   C.2       1 RES1   0.0000
    23 C23     -8.4543 -18.6104  -4.9636   C.2       1 RES1   0.0000
    24 C24     -8.6831 -19.8011  -5.6622   C.2       1 RES1   0.0000
    25 C25     -9.3363 -19.7795  -6.9169   C.2       1 RES1   0.0000
    26 C26     -9.7585 -18.5747  -7.4718   C.2       1 RES1   0.0000
    27 C27     -9.5361 -17.3554  -6.7794   C.2       1 RES1   0.0000
    28 C28    -12.7438 -14.6636  -9.3629   C.2       1 RES1   0.0000
    29 O29    -13.2007 -15.3388 -10.4444   O.co2     1 RES1   0.0000
    30 O30    -12.8605 -13.4605  -9.3022   O.co2     1 RES1  -1.0000
    31 C31    -16.6975 -19.4142  -4.1017   C.2       1 RES1   0.0000
    32 O32    -16.8886 -19.7682  -2.8221   O.3       1 RES1   0.0000
@<TRIPOS>BOND
     1     2     1    1
     2     2     3    1
     3     2     4    1
     4     4     5    2
     5     5     6    1
     6     6     7    1
     7     7     8    2
     8     7     9   am
     9     9    10    1
    10    10    11    1
    11    11    12    1
    12    12    13    1
    13    13    14    1
    14    14    15    2
    15    14    16   am
    16    16    17    1
    17    17    18    1
    18    18    19    1
    19    19    20    2
    20    20    21    1
    21    21    22    1
    22    22    23    2
    23    23    24    1
    24    24    25    2
    25    25    26    1
    26    26    27    2
    27    17    28    1
    28    28    29    2
    29    28    30    1
    30     6    31    2
    31    31    32    1
    32    32     4    1
    33    13     9    1
    34    27    19    1
    35    27    22    1
@<TRIPOS>SUBSTRUCTURE
     1 RES1        1 GROUP             0 ****  ****    0  
@<TRIPOS>MOLECULE
ligand_38
    32    35     1     0     0
SMALL
USER_CHARGES
****
Generated from the CSD

@<TRIPOS>ATOM
     1 C1     -16.0257 -21.5891  -0.5033   C.3       1 RES1   0.0000
     2 C2     -15.3976 -20.2354  -0.8192   C.3       1 RES1   0.0000
     3 N3     -15.8890 -19.1858   0.0771   N.3       1 RES1   1.0000
     4 C4     -15.6847 -19.8672  -2.2438   C.2       1 RES1   0.0000
     5 N5     -14.7801 -19.5929  -3.1018   N.2       1 RES1   0.0000
     6 C6     -15.3535 -19.3029  -4.2807   C.2       1 RES1   0.0000
     7 C7     -14.5705 -18.9443  -5.4812   C.2       1 RES1   0.0000
     8 O8     -13.4207 -18.5911  -5.2829   O.2       1 RES1   0.0000
     9 N9     -15.0218 -18.9986  -6.7862   N.am      1 RES1   0.0000
    10 C10    -16.2824 -19.5610  -7.2717   C.3       1 RES1   0.0000
    11 C11    -16.1743 -19.5261  -8.7186   C.3       1 RES1   0.0000
    12 C12    -14.9474 -18.9831  -9.1424   C.3       1 RES1   0.0000
    13 C13    -14.1435 -18.6358  -7.9003   C.3       1 RES1   0.0000
    14 C14    -13.7744 -17.1790  -7.8857   C.2       1 RES1   0.0000
    15 O15    -14.5839 -16.3491  -7.5052   O.2       1 RES1   0.0000
    16 N16    -12.5316 -16.8173  -8.2523   N.am      1 RES1   0.0000
    17 C17    -12.0903 -15.4225  -8.2139   C.3       1 RES1   0.0000
    18 C18    -10.5357 -15.3413  -8.2940   C.3       1 RES1   0.0000
    19 C19     -9.8217 -15.9560  -7.0873   C.2       1 RES1   0.0000
    20 C20     -9.2305 -17.1664  -7.0586   C.2       1 RES1   0.0000
    21 N21     -8.6896 -17.4032  -5.8230   N.2       1 RES1   0.0000
    22 C22     -8.9140 -16.3348  -4.9925   C.2       1 RES1   0.0000
    23 C23     -8.5775 -16.0649  -3.6434   C.2       1 RES1   0.0000
    24 C24     -8.9554 -14.8510  -3.0587   C.2       1 RES1   0.0000
    25 C25     -9.6737 -13.8897  -3.8078   C.2       1 RES1   0.0000
    26 C26    -10.0138 -14.1394  -5.1344   C.2       1 RES1   0.0000
    27 C27     -9.6400 -15.3646  -5.7465   C.2       1 RES1   0.0000
    28 C28    -12.7571 -14.6597  -9.3526   C.2       1 RES1   0.0000
    29 O29    -13.2262 -15.3311 -10.4312   O.co2     1 RES1   0.0000
    30 O30    -12.8735 -13.4568  -9.2862   O.co2     1 RES1  -1.0000
    31 C31    -16.6973 -19.4153  -4.1017   C.2       1 RES1   0.0000
    32 O32    -16.8882 -19.7696  -2.8221   O.3       1 RES1   0.0000
@<TRIPOS>BOND
     1     2     1    1
     2     2     3    1
     3     2     4    1
     4     4     5    2
     5     5     6    1
     6     6     7    1
     7     7     8    2
     8     7     9   am
     9     9    10    1
    10    10    11    1
    11    11    12    1
    12    12    13    1
    13    13    14    1
    14    14    15    2
    15    14    16   am
    16    16    17    1
    17    17    18    1
    18    18    19    1
    19    19    20    2
    20    20    21    1
    21    21    22    1
    22    22    23    2
    23    23    24    1
    24    24    25    2
    25    25    26    1
    26    26    27    2
    27    17    28    1
    28    28    29    2
    29    28    30    1
    30     6    31    2
    31    31    32    1
    32    32     4    1
    33    13     9    1
    34    27    19    1
    35    27    22    1
@<TRIPOS>SUBSTRUCTURE
     1 RES1        1 GROUP             0 ****  ****    0  
@<TRIPOS>MOLECULE
ligand_39
    32    35     1     0     0
SMALL
USER_CHARGES
****
Generated from the CSD

@<TRIPOS>ATOM
     1 C1     -16.0071 -21.5123  -0.4387   C.3       1 RES1   0.0000
     2 C2     -15.3864 -20.1589  -0.7703   C.3       1 RES1   0.0000
     3 N3     -15.8850 -19.1014   0.1127   N.3       1 RES1   1.0000
     4 C4     -15.6738 -19.8096  -2.1995   C.2       1 RES1   0.0000
     5 N5     -16.3936 -18.8177  -2.5565   N.2       1 RES1   0.0000
     6 C6     -16.4626 -18.7730  -3.8966   C.2       1 RES1   0.0000
     7 C7     -17.2234 -17.7344  -4.6215   C.2       1 RES1   0.0000
     8 O8     -17.6001 -16.7856  -3.9551   O.2       1 RES1   0.0000
     9 N9     -17.5158 -17.7418  -5.9721   N.am      1 RES1   0.0000
    10 C10    -17.0140 -18.6670  -6.9886   C.3       1 RES1   0.0000
    11 C11    -17.4813 -18.1243  -8.2510   C.3       1 RES1   0.0000
    12 C12    -18.2287 -16.9455  -8.0733   C.3       1 RES1   0.0000
    13 C13    -18.2642 -16.6423  -6.5846   C.3       1 RES1   0.0000
    14 C14    -19.6787 -16.5648  -6.0827   C.2       1 RES1   0.0000
    15 O15    -20.3419 -15.5602  -6.2820   O.2       1 RES1   0.0000
    16 N16    -20.2082 -17.6316  -5.4570   N.am      1 RES1   0.0000
    17 C17    -21.6026 -17.6533  -5.0136   C.3       1 RES1   0.0000
    18 C18    -22.5410 -18.0631  -6.1890   C.3       1 RES1   0.0000
    19 C19    -22.5795 -17.0461  -7.3326   C.2       1 RES1   0.0000
    20 C20    -21.9298 -17.1617  -8.5073   C.2       1 RES1   0.0000
    21 N21    -22.1819 -16.0740  -9.3002   N.2       1 RES1   0.0000
    22 C22    -23.0201 -15.1996  -8.6563   C.2       1 RES1   0.0000
    23 C23    -23.5826 -13.9501  -9.0147   C.2       1 RES1   0.0000
    24 C24    -24.4249 -13.2809  -8.1198   C.2       1 RES1   0.0000
    25 C25    -24.7182 -13.8452  -6.8561   C.2       1 RES1   0.0000
    26 C26    -24.1727 -15.0717  -6.4873   C.2       1 RES1   0.0000
    27 C27    -23.3158 -15.7669  -7.3805   C.2       1 RES1   0.0000
    28 C28    -21.7316 -18.6024  -3.8281   C.2       1 RES1   0.0000
    29 O29    -20.8058 -19.5720  -3.6357   O.co2     1 RES1   0.0000
    30 O30    -22.6563 -18.4819  -3.0565   O.co2     1 RES1  -1.0000
    31 C31    -15.7274 -19.8184  -4.3625   C.2       1 RES1   0.0000
    32 O32    -15.2400 -20.4569  -3.2883   O.3       1 RES1   0.0000
@<TRIPOS>BOND
     1     2     1    1
     2     2     3    1
     3     2     4    1
     4     4     5    2
     5     5     6    1
     6     6     7    1
     7     7     8    2
     8     7     9   am
     9     9    10    1
    10    10    11    1
    11    11    12    1
    12    12    13    1
    13    13    14    1
    14    14    15    2
    15    14    16   am
    16    16    17    1
    17    17    18    1
    18    18    19    1
    19    19    20    2
    20    20    21    1
    21    21    22    1
    22    22    23    2
    23    23    24    1
    24    24    25    2
    25    25    26    1
    26    26    27    2
    27    17    28    1
    28    28    29    2
    29    28    30    1
    30     6    31    2
    31    31    32    1
    32    32     4    1
    33    13     9    1
    34    27    19    1
    35    27    22    1
@<TRIPOS>SUBSTRUCTURE
     1 RES1        1 GROUP             0 ****  ****    0  
@<TRIPOS>MOLECULE
ligand_40
    32    35     1     0     0
SMALL
USER_CHARGES
****
Generated from the CSD

@<TRIPOS>ATOM
     1 C1     -15.9452 -21.5805  -0.5431   C.3       1 RES1   0.0000
     2 C2     -15.3191 -20.2296  -0.8748   C.3       1 RES1   0.0000
     3 N3     -15.7996 -19.1736   0.0199   N.3       1 RES1   1.0000
     4 C4     -15.6213 -19.8706  -2.2986   C.2       1 RES1   0.0000
     5 N5     -16.4252 -20.5282  -3.0408   N.2       1 RES1   0.0000
     6 C6     -16.4804 -19.9598  -4.2558   C.2       1 RES1   0.0000
     7 C7     -17.3277 -20.4876  -5.3452   C.2       1 RES1   0.0000
     8 O8     -16.9567 -20.2373  -6.4792   O.2       1 RES1   0.0000
     9 N9     -18.4711 -21.2466  -5.1840   N.am      1 RES1   0.0000
    10 C10    -18.9949 -21.8186  -3.9432   C.3       1 RES1   0.0000
    11 C11    -20.0997 -22.6632  -4.3584   C.3       1 RES1   0.0000
    12 C12    -20.2841 -22.6417  -5.7532   C.3       1 RES1   0.0000
    13 C13    -19.2196 -21.7328  -6.3449   C.3       1 RES1   0.0000
    14 C14    -19.8416 -20.6142  -7.1328   C.2       1 RES1   0.0000
    15 O15    -20.2599 -20.8221  -8.2600   O.2       1 RES1   0.0000
    16 N16    -19.9686 -19.4042  -6.5589   N.am      1 RES1   0.0000
    17 C17    -20.6055 -18.2837  -7.2521   C.3       1 RES1   0.0000
    18 C18    -21.7482 -17.6824  -6.3789   C.3       1 RES1   0.0000
    19 C19    -22.9165 -18.6431  -6.1428   C.2       1 RES1   0.0000
    20 C20    -23.1394 -19.3445  -5.0142   C.2       1 RES1   0.0000
    21 N21    -24.2704 -20.1060  -5.1421   N.2       1 RES1   0.0000
    22 C22    -24.8314 -19.9208  -6.3801   C.2       1 RES1   0.0000
    23 C23    -25.9798 -20.4525  -7.0163   C.2       1 RES1   0.0000
    24 C24    -26.3008 -20.0596  -8.3204   C.2       1 RES1   0.0000
    25 C25    -25.4833 -19.1332  -9.0095   C.2       1 RES1   0.0000
    26 C26    -24.3503 -18.6019  -8.3997   C.2       1 RES1   0.0000
    27 C27    -24.0069 -18.9874  -7.0772   C.2       1 RES1   0.0000
    28 C28    -19.5449 -17.2433  -7.5924   C.2       1 RES1   0.0000
    29 O29    -18.3842 -17.2097  -6.8954   O.co2     1 RES1   0.0000
    30 O30    -19.7389 -16.4553  -8.4904   O.co2     1 RES1  -1.0000
    31 C31    -15.6454 -18.8864  -4.2253   C.2       1 RES1   0.0000
    32 O32    -15.1160 -18.8439  -2.9935   O.3       1 RES1   0.0000
@<TRIPOS>BOND
     1     2     1    1
     2     2     3    1
     3     2     4    1
     4     4     5    2
     5     5     6    1
     6     6     7    1
     7     7     8    2
     8     7     9   am
     9     9    10    1
    10    10    11    1
    11    11    12    1
    12    12    13    1
    13    13    14    1
    14    14    15    2
    15    14    16   am
    16    16    17    1
    17    17    18    1
    18    18    19    1
    19    19    20    2
    20    20    21    1
    21    21    22    1
    22    22    23    2
    23    23    24    1
    24    24    25    2
    25    25    26    1
    26    26    27    2
    27    17    28    1
    28    28    29    2
    29    28    30    1
    30     6    31    2
    31    31    32    1
    32    32     4    1
    33    13     9    1
    34    27    19    1
    35    27    22    1
@<TRIPOS>SUBSTRUCTURE
     1 RES1        1 GROUP             0 ****  ****    0  
@<TRIPOS>MOLECULE
ligand_41
    32    35     1     0     0
SMALL
USER_CHARGES
****
Generated from the CSD

@<TRIPOS>ATOM
     1 C1     -16.0938 -21.5303  -0.5204   C.3       1 RES1   0.0000
     2 C2     -15.4539 -20.1817  -0.8349   C.3       1 RES1   0.0000
     3 N3     -15.9454 -19.1265   0.0547   N.3       1 RES1   1.0000
     4 C4     -15.7271 -19.8155  -2.2627   C.2       1 RES1   0.0000
     5 N5     -14.8139 -19.5497  -3.1141   N.2       1 RES1   0.0000
     6 C6     -15.3758 -19.2590  -4.2983   C.2       1 RES1   0.0000
     7 C7     -14.5808 -18.9089  -5.4935   C.2       1 RES1   0.0000
     8 O8     -15.1417 -18.2136  -6.3231   O.2       1 RES1   0.0000
     9 N9     -13.2709 -19.2803  -5.7299   N.am      1 RES1   0.0000
    10 C10    -12.3515 -19.9456  -4.8061   C.3       1 RES1   0.0000
    11 C11    -11.0686 -19.9367  -5.4848   C.3       1 RES1   0.0000
    12 C12    -11.1448 -19.3203  -6.7474   C.3       1 RES1   0.0000
    13 C13    -12.5773 -18.8539  -6.9469   C.3       1 RES1   0.0000
    14 C14    -13.1745 -19.4586  -8.1865   C.2       1 RES1   0.0000
    15 O15    -12.8957 -19.0014  -9.2827   O.2       1 RES1   0.0000
    16 N16    -13.9770 -20.5318  -8.0670   N.am      1 RES1   0.0000
    17 C17    -14.5573 -21.1957  -9.2349   C.3       1 RES1   0.0000
    18 C18    -15.0924 -22.6078  -8.8480   C.3       1 RES1   0.0000
    19 C19    -16.2457 -22.5773  -7.8416   C.2       1 RES1   0.0000
    20 C20    -16.1430 -22.8345  -6.5231   C.2       1 RES1   0.0000
    21 N21    -17.3666 -22.7199  -5.9187   N.2       1 RES1   0.0000
    22 C22    -18.3226 -22.3770  -6.8407   C.2       1 RES1   0.0000
    23 C23    -19.7159 -22.1382  -6.7531   C.2       1 RES1   0.0000
    24 C24    -20.4394 -21.7957  -7.9010   C.2       1 RES1   0.0000
    25 C25    -19.7867 -21.6870  -9.1513   C.2       1 RES1   0.0000
    26 C26    -18.4182 -21.9197  -9.2555   C.2       1 RES1   0.0000
    27 C27    -17.6658 -22.2684  -8.1031   C.2       1 RES1   0.0000
    28 C28    -15.6564 -20.3120  -9.8130   C.2       1 RES1   0.0000
    29 O29    -16.2521 -19.3786  -9.0332   O.co2     1 RES1   0.0000
    30 O30    -15.9881 -20.4406 -10.9699   O.co2     1 RES1  -1.0000
    31 C31    -16.7217 -19.3617  -4.1299   C.2       1 RES1   0.0000
    32 O32    -16.9253 -19.7112  -2.8509   O.3       1 RES1   0.0000
@<TRIPOS>BOND
     1     2     1    1
     2     2     3    1
     3     2     4    1
     4     4     5    2
     5     5     6    1
     6     6     7    1
     7     7     8    2
     8     7     9   am
     9     9    10    1
    10    10    11    1
    11    11    12    1
    12    12    13    1
    13    13    14    1
    14    14    15    2
    15    14    16   am
    16    16    17    1
    17    17    18    1
    18    18    19    1
    19    19    20    2
    20    20    21    1
    21    21    22    1
    22    22    23    2
    23    23    24    1
    24    24    25    2
    25    25    26    1
    26    26    27    2
    27    17    28    1
    28    28    29    2
    29    28    30    1
    30     6    31    2
    31    31    32    1
    32    32     4    1
    33    13     9    1
    34    27    19    1
    35    27    22    1
@<TRIPOS>SUBSTRUCTURE
     1 RES1        1 GROUP             0 ****  ****    0  
@<TRIPOS>MOLECULE
ligand_42
    32    35     1     0     0
SMALL
USER_CHARGES
****
Generated from the CSD

@<TRIPOS>ATOM
     1 C1     -16.0155 -21.5913  -0.5036   C.3       1 RES1   0.0000
     2 C2     -15.3970 -20.2330  -0.8191   C.3       1 RES1   0.0000
     3 N3     -15.8971 -19.1870   0.0766   N.3       1 RES1   1.0000
     4 C4     -15.6854 -19.8672  -2.2440   C.2       1 RES1   0.0000
     5 N5     -16.4747 -20.5267  -3.0000   N.2       1 RES1   0.0000
     6 C6     -16.5204 -19.9508  -4.2119   C.2       1 RES1   0.0000
     7 C7     -17.3501 -20.4786  -5.3147   C.2       1 RES1   0.0000
     8 O8     -16.9678 -20.2179  -6.4425   O.2       1 RES1   0.0000
     9 N9     -18.4890 -21.2481  -5.1721   N.am      1 RES1   0.0000
    10 C10    -19.0225 -21.8327  -3.9413   C.3       1 RES1   0.0000
    11 C11    -20.1153 -22.6837  -4.3751   C.3       1 RES1   0.0000
    12 C12    -20.2834 -22.6544  -5.7718   C.3       1 RES1   0.0000
    13 C13    -19.2196 -21.7328  -6.3449   C.3       1 RES1   0.0000
    14 C14    -19.8416 -20.6142  -7.1328   C.2       1 RES1   0.0000
    15 O15    -20.2783 -19.6319  -6.5558   O.2       1 RES1   0.0000
    16 N16    -19.8645 -20.6964  -8.4754   N.am      1 RES1   0.0000
    17 C17    -20.4068 -19.6202  -9.3057   C.3       1 RES1   0.0000
    18 C18    -19.3614 -19.1780 -10.3743   C.3       1 RES1   0.0000
    19 C19    -18.1003 -18.5452  -9.7803   C.2       1 RES1   0.0000
    20 C20    -16.9093 -19.1580  -9.6347   C.2       1 RES1   0.0000
    21 N21    -16.0003 -18.3044  -9.0686   N.2       1 RES1   0.0000
    22 C22    -16.5803 -17.0855  -8.8240   C.2       1 RES1   0.0000
    23 C23    -16.1012 -15.8761  -8.2638   C.2       1 RES1   0.0000
    24 C24    -16.9564 -14.7751  -8.1435   C.2       1 RES1   0.0000
    25 C25    -18.2999 -14.8626  -8.5781   C.2       1 RES1   0.0000
    26 C26    -18.7874 -16.0441  -9.1296   C.2       1 RES1   0.0000
    27 C27    -17.9363 -17.1728  -9.2606   C.2       1 RES1   0.0000
    28 C28    -21.7060 -20.0943  -9.9462   C.2       1 RES1   0.0000
    29 O29    -21.9485 -21.4201 -10.0793   O.co2     1 RES1   0.0000
    30 O30    -22.5218 -19.2850 -10.3264   O.co2     1 RES1  -1.0000
    31 C31    -15.6950 -18.8706  -4.1644   C.2       1 RES1   0.0000
    32 O32    -15.1806 -18.8317  -2.9262   O.3       1 RES1   0.0000
@<TRIPOS>BOND
     1     2     1    1
     2     2     3    1
     3     2     4    1
     4     4     5    2
     5     5     6    1
     6     6     7    1
     7     7     8    2
     8     7     9   am
     9     9    10    1
    10    10    11    1
    11    11    12    1
    12    12    13    1
    13    13    14    1
    14    14    15    2
    15    14    16   am
    16    16    17    1
    17    17    18    1
    18    18    19    1
    19    19    20    2
    20    20    21    1
    21    21    22    1
    22    22    23    2
    23    23    24    1
    24    24    25    2
    25    25    26    1
    26    26    27    2
    27    17    28    1
    28    28    29    2
    29    28    30    1
    30     6    31    2
    31    31    32    1
    32    32     4    1
    33    13     9    1
    34    27    19    1
    35    27    22    1
@<TRIPOS>SUBSTRUCTURE
     1 RES1        1 GROUP             0 ****  ****    0  
@<TRIPOS>MOLECULE
ligand_43
    32    35     1     0     0
SMALL
USER_CHARGES
****
Generated from the CSD

@<TRIPOS>ATOM
     1 C1     -15.9571 -21.6347  -0.5847   C.3       1 RES1   0.0000
     2 C2     -15.3382 -20.2767  -0.9006   C.3       1 RES1   0.0000
     3 N3     -15.8195 -19.2351   0.0104   N.3       1 RES1   1.0000
     4 C4     -15.6480 -19.8996  -2.3181   C.2       1 RES1   0.0000
     5 N5     -16.3709 -18.8993  -2.6442   N.2       1 RES1   0.0000
     6 C6     -16.4616 -18.8289  -3.9819   C.2       1 RES1   0.0000
     7 C7     -17.2314 -17.7749  -4.6744   C.2       1 RES1   0.0000
     8 O8     -16.8669 -17.5033  -5.8056   O.2       1 RES1   0.0000
     9 N9     -18.3239 -17.1026  -4.1606   N.am      1 RES1   0.0000
    10 C10    -19.0434 -17.3869  -2.9186   C.3       1 RES1   0.0000
    11 C11    -20.2006 -16.5114  -2.9485   C.3       1 RES1   0.0000
    12 C12    -20.2322 -15.7193  -4.1109   C.3       1 RES1   0.0000
    13 C13    -19.0212 -16.0870  -4.9522   C.3       1 RES1   0.0000
    14 C14    -18.1632 -14.8824  -5.2194   C.2       1 RES1   0.0000
    15 O15    -18.4896 -14.0802  -6.0787   O.2       1 RES1   0.0000
    16 N16    -17.0648 -14.6844  -4.4681   N.am      1 RES1   0.0000
    17 C17    -16.2104 -13.5094  -4.6441   C.3       1 RES1   0.0000
    18 C18    -16.0216 -12.7658  -3.2872   C.3       1 RES1   0.0000
    19 C19    -15.2856 -13.5902  -2.2278   C.2       1 RES1   0.0000
    20 C20    -15.8624 -14.2317  -1.1929   C.2       1 RES1   0.0000
    21 N21    -14.9135 -14.8701  -0.4395   N.2       1 RES1   0.0000
    22 C22    -13.6656 -14.6621  -0.9699   C.2       1 RES1   0.0000
    23 C23    -12.3669 -15.0840  -0.5936   C.2       1 RES1   0.0000
    24 C24    -11.2590 -14.6993  -1.3570   C.2       1 RES1   0.0000
    25 C25    -11.4280 -13.8892  -2.5044   C.2       1 RES1   0.0000
    26 C26    -12.6971 -13.4646  -2.8876   C.2       1 RES1   0.0000
    27 C27    -13.8343 -13.8437  -2.1269   C.2       1 RES1   0.0000
    28 C28    -14.8781 -13.9494  -5.2395   C.2       1 RES1   0.0000
    29 O29    -14.4706 -15.2341  -5.1062   O.co2     1 RES1   0.0000
    30 O30    -14.1916 -13.1518  -5.8374   O.co2     1 RES1  -1.0000
    31 C31    -15.7370 -19.8669  -4.4796   C.2       1 RES1   0.0000
    32 O32    -15.2338 -20.5270  -3.4259   O.3       1 RES1   0.0000
@<TRIPOS>BOND
     1     2     1    1
     2     2     3    1
     3     2     4    1
     4     4     5    2
     5     5     6    1
     6     6     7    1
     7     7     8    2
     8     7     9   am
     9     9    10    1
    10    10    11    1
    11    11    12    1
    12    12    13    1
    13    13    14    1
    14    14    15    2
    15    14    16   am
    16    16    17    1
    17    17    18    1
    18    18    19    1
    19    19    20    2
    20    20    21    1
    21    21    22    1
    22    22    23    2
    23    23    24    1
    24    24    25    2
    25    25    26    1
    26    26    27    2
    27    17    28    1
    28    28    29    2
    29    28    30    1
    30     6    31    2
    31    31    32    1
    32    32     4    1
    33    13     9    1
    34    27    19    1
    35    27    22    1
@<TRIPOS>SUBSTRUCTURE
     1 RES1        1 GROUP             0 ****  ****    0  
@<TRIPOS>MOLECULE
ligand_44
    32    35     1     0     0
SMALL
USER_CHARGES
****
Generated from the CSD

@<TRIPOS>ATOM
     1 C1     -16.1180 -21.7363  -0.6352   C.3       1 RES1   0.0000
     2 C2     -15.4667 -20.3896  -0.9335   C.3       1 RES1   0.0000
     3 N3     -15.9265 -19.3476  -0.0119   N.3       1 RES1   1.0000
     4 C4     -15.7631 -19.9890  -2.3474   C.2       1 RES1   0.0000
     5 N5     -16.4615 -18.9685  -2.6641   N.2       1 RES1   0.0000
     6 C6     -16.5463 -18.8805  -4.0011   C.2       1 RES1   0.0000
     7 C7     -17.2892 -17.8010  -4.6835   C.2       1 RES1   0.0000
     8 O8     -17.7137 -18.0651  -5.7954   O.2       1 RES1   0.0000
     9 N9     -17.5556 -16.5491  -4.1626   N.am      1 RES1   0.0000
    10 C10    -17.3120 -16.0802  -2.7981   C.3       1 RES1   0.0000
    11 C11    -17.9340 -14.7703  -2.7366   C.3       1 RES1   0.0000
    12 C12    -18.5306 -14.4124  -3.9596   C.3       1 RES1   0.0000
    13 C13    -18.3223 -15.5644  -4.9286   C.3       1 RES1   0.0000
    14 C14    -17.5948 -15.1079  -6.1620   C.2       1 RES1   0.0000
    15 O15    -18.2007 -14.5250  -7.0461   O.2       1 RES1   0.0000
    16 N16    -16.2679 -15.3114  -6.2494   N.am      1 RES1   0.0000
    17 C17    -15.5005 -14.9061  -7.4277   C.3       1 RES1   0.0000
    18 C18    -14.3049 -13.9963  -7.0119   C.3       1 RES1   0.0000
    19 C19    -13.2428 -14.7152  -6.1759   C.2       1 RES1   0.0000
    20 C20    -12.0877 -15.2252  -6.6457   C.2       1 RES1   0.0000
    21 N21    -11.3725 -15.8002  -5.6293   N.2       1 RES1   0.0000
    22 C22    -12.0506 -15.6800  -4.4429   C.2       1 RES1   0.0000
    23 C23    -11.7693 -16.0902  -3.1167   C.2       1 RES1   0.0000
    24 C24    -12.6814 -15.8143  -2.0920   C.2       1 RES1   0.0000
    25 C25    -13.8858 -15.1274  -2.3728   C.2       1 RES1   0.0000
    26 C26    -14.1786 -14.7184  -3.6708   C.2       1 RES1   0.0000
    27 C27    -13.2667 -14.9884  -4.7249   C.2       1 RES1   0.0000
    28 C28    -15.0327 -16.1534  -8.1683   C.2       1 RES1   0.0000
    29 O29    -14.9451 -17.3350  -7.5122   O.co2     1 RES1   0.0000
    30 O30    -14.7489 -16.0868  -9.3430   O.co2     1 RES1  -1.0000
    31 C31    -15.8444 -19.9293  -4.5087   C.2       1 RES1   0.0000
    32 O32    -15.3601 -20.6131  -3.4612   O.3       1 RES1   0.0000
@<TRIPOS>BOND
     1     2     1    1
     2     2     3    1
     3     2     4    1
     4     4     5    2
     5     5     6    1
     6     6     7    1
     7     7     8    2
     8     7     9   am
     9     9    10    1
    10    10    11    1
    11    11    12    1
    12    12    13    1
    13    13    14    1
    14    14    15    2
    15    14    16   am
    16    16    17    1
    17    17    18    1
    18    18    19    1
    19    19    20    2
    20    20    21    1
    21    21    22    1
    22    22    23    2
    23    23    24    1
    24    24    25    2
    25    25    26    1
    26    26    27    2
    27    17    28    1
    28    28    29    2
    29    28    30    1
    30     6    31    2
    31    31    32    1
    32    32     4    1
    33    13     9    1
    34    27    19    1
    35    27    22    1
@<TRIPOS>SUBSTRUCTURE
     1 RES1        1 GROUP             0 ****  ****    0  
@<TRIPOS>MOLECULE
ligand_45
    32    35     1     0     0
SMALL
USER_CHARGES
****
Generated from the CSD

@<TRIPOS>ATOM
     1 C1     -16.0537 -21.6660  -0.5692   C.3       1 RES1   0.0000
     2 C2     -15.4200 -20.3127  -0.8757   C.3       1 RES1   0.0000
     3 N3     -15.8998 -19.2694   0.0341   N.3       1 RES1   1.0000
     4 C4     -15.7141 -19.9288  -2.2947   C.2       1 RES1   0.0000
     5 N5     -16.4251 -18.9211  -2.6243   N.2       1 RES1   0.0000
     6 C6     -16.5036 -18.8461  -3.9625   C.2       1 RES1   0.0000
     7 C7     -17.2579 -17.7833  -4.6585   C.2       1 RES1   0.0000
     8 O8     -17.6718 -18.0631  -5.7706   O.2       1 RES1   0.0000
     9 N9     -17.5454 -16.5310  -4.1499   N.am      1 RES1   0.0000
    10 C10    -17.3163 -16.0468  -2.7883   C.3       1 RES1   0.0000
    11 C11    -17.9578 -14.7458  -2.7415   C.3       1 RES1   0.0000
    12 C12    -18.5528 -14.4073  -3.9708   C.3       1 RES1   0.0000
    13 C13    -18.3223 -15.5644  -4.9286   C.3       1 RES1   0.0000
    14 C14    -17.5948 -15.1079  -6.1620   C.2       1 RES1   0.0000
    15 O15    -18.2007 -14.5250  -7.0461   O.2       1 RES1   0.0000
    16 N16    -16.2679 -15.3114  -6.2494   N.am      1 RES1   0.0000
    17 C17    -15.4909 -14.8545  -7.4022   C.3       1 RES1   0.0000
    18 C18    -13.9685 -14.8550  -7.0671   C.3       1 RES1   0.0000
    19 C19    -13.5755 -13.8558  -5.9759   C.2       1 RES1   0.0000
    20 C20    -13.5371 -12.5163  -6.1160   C.2       1 RES1   0.0000
    21 N21    -13.1430 -11.9259  -4.9448   N.2       1 RES1   0.0000
    22 C22    -12.9090 -12.8792  -3.9865   C.2       1 RES1   0.0000
    23 C23    -12.4913 -12.8162  -2.6346   C.2       1 RES1   0.0000
    24 C24    -12.3391 -13.9943  -1.8950   C.2       1 RES1   0.0000
    25 C25    -12.5996 -15.2508  -2.4905   C.2       1 RES1   0.0000
    26 C26    -13.0095 -15.3309  -3.8184   C.2       1 RES1   0.0000
    27 C27    -13.1700 -14.1476  -4.5863   C.2       1 RES1   0.0000
    28 C28    -15.8082 -15.7441  -8.5985   C.2       1 RES1   0.0000
    29 O29    -16.3101 -16.9864  -8.4015   O.co2     1 RES1   0.0000
    30 O30    -15.6189 -15.3349  -9.7218   O.co2     1 RES1  -1.0000
    31 C31    -15.7840 -19.8892  -4.4569   C.2       1 RES1   0.0000
    32 O32    -15.2959 -20.5568  -3.4007   O.3       1 RES1   0.0000
@<TRIPOS>BOND
     1     2     1    1
     2     2     3    1
     3     2     4    1
     4     4     5    2
     5     5     6    1
     6     6     7    1
     7     7     8    2
     8     7     9   am
     9     9    10    1
    10    10    11    1
    11    11    12    1
    12    12    13    1
    13    13    14    1
    14    14    15    2
    15    14    16   am
    16    16    17    1
    17    17    18    1
    18    18    19    1
    19    19    20    2
    20    20    21    1
    21    21    22    1
    22    22    23    2
    23    23    24    1
    24    24    25    2
    25    25    26    1
    26    26    27    2
    27    17    28    1
    28    28    29    2
    29    28    30    1
    30     6    31    2
    31    31    32    1
    32    32     4    1
    33    13     9    1
    34    27    19    1
    35    27    22    1
@<TRIPOS>SUBSTRUCTURE
     1 RES1        1 GROUP             0 ****  ****    0  
@<TRIPOS>MOLECULE
ligand_46
    32    35     1     0     0
SMALL
USER_CHARGES
****
Generated from the CSD

@<TRIPOS>ATOM
     1 C1     -16.0537 -21.6660  -0.5692   C.3       1 RES1   0.0000
     2 C2     -15.4200 -20.3127  -0.8757   C.3       1 RES1   0.0000
     3 N3     -15.8998 -19.2694   0.0341   N.3       1 RES1   1.0000
     4 C4     -15.7141 -19.9288  -2.2947   C.2       1 RES1   0.0000
     5 N5     -16.4251 -18.9211  -2.6243   N.2       1 RES1   0.0000
     6 C6     -16.5036 -18.8461  -3.9625   C.2       1 RES1   0.0000
     7 C7     -17.2579 -17.7833  -4.6585   C.2       1 RES1   0.0000
     8 O8     -17.6718 -18.0631  -5.7706   O.2       1 RES1   0.0000
     9 N9     -17.5454 -16.5310  -4.1499   N.am      1 RES1   0.0000
    10 C10    -17.3163 -16.0468  -2.7883   C.3       1 RES1   0.0000
    11 C11    -17.9578 -14.7458  -2.7415   C.3       1 RES1   0.0000
    12 C12    -18.5528 -14.4073  -3.9708   C.3       1 RES1   0.0000
    13 C13    -18.3223 -15.5644  -4.9286   C.3       1 RES1   0.0000
    14 C14    -17.5948 -15.1079  -6.1620   C.2       1 RES1   0.0000
    15 O15    -18.2007 -14.5250  -7.0461   O.2       1 RES1   0.0000
    16 N16    -16.2679 -15.3114  -6.2494   N.am      1 RES1   0.0000
    17 C17    -15.4909 -14.8545  -7.4022   C.3       1 RES1   0.0000
    18 C18    -13.9685 -14.8550  -7.0671   C.3       1 RES1   0.0000
    19 C19    -13.5755 -13.8558  -5.9759   C.2       1 RES1   0.0000
    20 C20    -13.8573 -13.9761  -4.6639   C.2       1 RES1   0.0000
    21 N21    -13.3606 -12.9051  -3.9698   N.2       1 RES1   0.0000
    22 C22    -12.7267 -12.0377  -4.8228   C.2       1 RES1   0.0000
    23 C23    -12.0559 -10.8047  -4.6335   C.2       1 RES1   0.0000
    24 C24    -11.4959 -10.1388  -5.7294   C.2       1 RES1   0.0000
    25 C25    -11.5962 -10.6901  -7.0284   C.2       1 RES1   0.0000
    26 C26    -12.2532 -11.9003  -7.2324   C.2       1 RES1   0.0000
    27 C27    -12.8283 -12.5919  -6.1340   C.2       1 RES1   0.0000
    28 C28    -15.8082 -15.7441  -8.5985   C.2       1 RES1   0.0000
    29 O29    -16.3101 -16.9864  -8.4015   O.co2     1 RES1   0.0000
    30 O30    -15.6189 -15.3349  -9.7218   O.co2     1 RES1  -1.0000
    31 C31    -15.7840 -19.8892  -4.4569   C.2       1 RES1   0.0000
    32 O32    -15.2959 -20.5568  -3.4007   O.3       1 RES1   0.0000
@<TRIPOS>BOND
     1     2     1    1
     2     2     3    1
     3     2     4    1
     4     4     5    2
     5     5     6    1
     6     6     7    1
     7     7     8    2
     8     7     9   am
     9     9    10    1
    10    10    11    1
    11    11    12    1
    12    12    13    1
    13    13    14    1
    14    14    15    2
    15    14    16   am
    16    16    17    1
    17    17    18    1
    18    18    19    1
    19    19    20    2
    20    20    21    1
    21    21    22    1
    22    22    23    2
    23    23    24    1
    24    24    25    2
    25    25    26    1
    26    26    27    2
    27    17    28    1
    28    28    29    2
    29    28    30    1
    30     6    31    2
    31    31    32    1
    32    32     4    1
    33    13     9    1
    34    27    19    1
    35    27    22    1
@<TRIPOS>SUBSTRUCTURE
     1 RES1        1 GROUP             0 ****  ****    0  
@<TRIPOS>MOLECULE
ligand_47
    32    35     1     0     0
SMALL
USER_CHARGES
****
Generated from the CSD

@<TRIPOS>ATOM
     1 C1     -16.0345 -21.7052  -0.5813   C.3       1 RES1   0.0000
     2 C2     -15.3971 -20.3488  -0.8656   C.3       1 RES1   0.0000
     3 N3     -15.8771 -19.3184   0.0588   N.3       1 RES1   1.0000
     4 C4     -15.6868 -19.9427  -2.2794   C.2       1 RES1   0.0000
     5 N5     -14.7834 -19.6538  -3.1337   N.2       1 RES1   0.0000
     6 C6     -15.3589 -19.3299  -4.3027   C.2       1 RES1   0.0000
     7 C7     -14.5777 -18.9472  -5.4970   C.2       1 RES1   0.0000
     8 O8     -15.1066 -19.1653  -6.5735   O.2       1 RES1   0.0000
     9 N9     -13.3304 -18.3524  -5.4901   N.am      1 RES1   0.0000
    10 C10    -12.8664 -17.6876  -4.2619   C.3       1 RES1   0.0000
    11 C11    -11.7151 -16.8089  -4.7003   C.3       1 RES1   0.0000
    12 C12    -11.9590 -16.5865  -6.1726   C.3       1 RES1   0.0000
    13 C13    -12.4992 -17.9355  -6.6244   C.3       1 RES1   0.0000
    14 C14    -11.3809 -18.8808  -6.9628   C.2       1 RES1   0.0000
    15 O15    -10.7984 -18.7783  -8.0300   O.2       1 RES1   0.0000
    16 N16    -11.0086 -19.8020  -6.0559   N.am      1 RES1   0.0000
    17 C17     -9.9017 -20.7265  -6.3040   C.3       1 RES1   0.0000
    18 C18     -8.8646 -20.6578  -5.1422   C.3       1 RES1   0.0000
    19 C19     -8.1532 -19.3070  -5.0279   C.2       1 RES1   0.0000
    20 C20     -8.4339 -18.3467  -4.1256   C.2       1 RES1   0.0000
    21 N21     -7.6089 -17.2685  -4.3051   N.2       1 RES1   0.0000
    22 C22     -6.7477 -17.4966  -5.3482   C.2       1 RES1   0.0000
    23 C23     -5.7156 -16.7297  -5.9420   C.2       1 RES1   0.0000
    24 C24     -4.9932 -17.2485  -7.0224   C.2       1 RES1   0.0000
    25 C25     -5.2884 -18.5367  -7.5270   C.2       1 RES1   0.0000
    26 C26     -6.3005 -19.3032  -6.9562   C.2       1 RES1   0.0000
    27 C27     -7.0453 -18.7955  -5.8594   C.2       1 RES1   0.0000
    28 C28    -10.4606 -22.1333  -6.4823   C.2       1 RES1   0.0000
    29 O29    -11.6780 -22.4450  -5.9774   O.co2     1 RES1   0.0000
    30 O30     -9.8188 -22.9660  -7.0821   O.co2     1 RES1  -1.0000
    31 C31    -16.7028 -19.4365  -4.1213   C.2       1 RES1   0.0000
    32 O32    -16.8917 -19.8214  -2.8503   O.3       1 RES1   0.0000
@<TRIPOS>BOND
     1     2     1    1
     2     2     3    1
     3     2     4    1
     4     4     5    2
     5     5     6    1
     6     6     7    1
     7     7     8    2
     8     7     9   am
     9     9    10    1
    10    10    11    1
    11    11    12    1
    12    12    13    1
    13    13    14    1
    14    14    15    2
    15    14    16   am
    16    16    17    1
    17    17    18    1
    18    18    19    1
    19    19    20    2
    20    20    21    1
    21    21    22    1
    22    22    23    2
    23    23    24    1
    24    24    25    2
    25    25    26    1
    26    26    27    2
    27    17    28    1
    28    28    29    2
    29    28    30    1
    30     6    31    2
    31    31    32    1
    32    32     4    1
    33    13     9    1
    34    27    19    1
    35    27    22    1
@<TRIPOS>SUBSTRUCTURE
     1 RES1        1 GROUP             0 ****  ****    0  
@<TRIPOS>MOLECULE
ligand_48
    32    35     1     0     0
SMALL
USER_CHARGES
****
Generated from the CSD

@<TRIPOS>ATOM
     1 C1     -16.0938 -21.5303  -0.5204   C.3       1 RES1   0.0000
     2 C2     -15.4539 -20.1817  -0.8349   C.3       1 RES1   0.0000
     3 N3     -15.9454 -19.1265   0.0547   N.3       1 RES1   1.0000
     4 C4     -15.7271 -19.8155  -2.2627   C.2       1 RES1   0.0000
     5 N5     -14.8139 -19.5497  -3.1141   N.2       1 RES1   0.0000
     6 C6     -15.3758 -19.2590  -4.2983   C.2       1 RES1   0.0000
     7 C7     -14.5808 -18.9089  -5.4935   C.2       1 RES1   0.0000
     8 O8     -15.1417 -18.2136  -6.3231   O.2       1 RES1   0.0000
     9 N9     -13.2709 -19.2803  -5.7299   N.am      1 RES1   0.0000
    10 C10    -12.3515 -19.9456  -4.8061   C.3       1 RES1   0.0000
    11 C11    -11.0686 -19.9367  -5.4848   C.3       1 RES1   0.0000
    12 C12    -11.1448 -19.3203  -6.7474   C.3       1 RES1   0.0000
    13 C13    -12.5773 -18.8539  -6.9469   C.3       1 RES1   0.0000
    14 C14    -13.1745 -19.4586  -8.1865   C.2       1 RES1   0.0000
    15 O15    -12.8957 -19.0014  -9.2827   O.2       1 RES1   0.0000
    16 N16    -13.9770 -20.5318  -8.0670   N.am      1 RES1   0.0000
    17 C17    -14.5573 -21.1957  -9.2349   C.3       1 RES1   0.0000
    18 C18    -15.0924 -22.6078  -8.8480   C.3       1 RES1   0.0000
    19 C19    -15.6963 -23.3830 -10.0219   C.2       1 RES1   0.0000
    20 C20    -17.0123 -23.5317 -10.2695   C.2       1 RES1   0.0000
    21 N21    -17.2027 -24.2836 -11.3982   N.2       1 RES1   0.0000
    22 C22    -15.9948 -24.6543 -11.9325   C.2       1 RES1   0.0000
    23 C23    -15.6274 -25.4178 -13.0675   C.2       1 RES1   0.0000
    24 C24    -14.2751 -25.6276 -13.3601   C.2       1 RES1   0.0000
    25 C25    -13.2704 -25.0814 -12.5273   C.2       1 RES1   0.0000
    26 C26    -13.6141 -24.3298 -11.4071   C.2       1 RES1   0.0000
    27 C27    -14.9801 -24.1052 -11.0924   C.2       1 RES1   0.0000
    28 C28    -15.6564 -20.3120  -9.8130   C.2       1 RES1   0.0000
    29 O29    -16.2521 -19.3786  -9.0332   O.co2     1 RES1   0.0000
    30 O30    -15.9881 -20.4406 -10.9699   O.co2     1 RES1  -1.0000
    31 C31    -16.7217 -19.3617  -4.1299   C.2       1 RES1   0.0000
    32 O32    -16.9253 -19.7112  -2.8509   O.3       1 RES1   0.0000
@<TRIPOS>BOND
     1     2     1    1
     2     2     3    1
     3     2     4    1
     4     4     5    2
     5     5     6    1
     6     6     7    1
     7     7     8    2
     8     7     9   am
     9     9    10    1
    10    10    11    1
    11    11    12    1
    12    12    13    1
    13    13    14    1
    14    14    15    2
    15    14    16   am
    16    16    17    1
    17    17    18    1
    18    18    19    1
    19    19    20    2
    20    20    21    1
    21    21    22    1
    22    22    23    2
    23    23    24    1
    24    24    25    2
    25    25    26    1
    26    26    27    2
    27    17    28    1
    28    28    29    2
    29    28    30    1
    30     6    31    2
    31    31    32    1
    32    32     4    1
    33    13     9    1
    34    27    19    1
    35    27    22    1
@<TRIPOS>SUBSTRUCTURE
     1 RES1        1 GROUP             0 ****  ****    0  
@<TRIPOS>MOLECULE
ligand_49
    32    35     1     0     0
SMALL
USER_CHARGES
****
Generated from the CSD

@<TRIPOS>ATOM
     1 C1     -16.0937 -21.5324  -0.5213   C.3       1 RES1   0.0000
     2 C2     -15.4543 -20.1835  -0.8353   C.3       1 RES1   0.0000
     3 N3     -15.9463 -19.1287   0.0545   N.3       1 RES1   1.0000
     4 C4     -15.7273 -19.8170  -2.2631   C.2       1 RES1   0.0000
     5 N5     -14.8140 -19.5506  -3.1142   N.2       1 RES1   0.0000
     6 C6     -15.3758 -19.2598  -4.2985   C.2       1 RES1   0.0000
     7 C7     -14.5807 -18.9092  -5.4934   C.2       1 RES1   0.0000
     8 O8     -15.1416 -18.2134  -6.3227   O.2       1 RES1   0.0000
     9 N9     -13.2708 -19.2804  -5.7298   N.am      1 RES1   0.0000
    10 C10    -12.3513 -19.9456  -4.8062   C.3       1 RES1   0.0000
    11 C11    -11.0685 -19.9366  -5.4849   C.3       1 RES1   0.0000
    12 C12    -11.1447 -19.3202  -6.7474   C.3       1 RES1   0.0000
    13 C13    -12.5773 -18.8539  -6.9469   C.3       1 RES1   0.0000
    14 C14    -13.1745 -19.4586  -8.1865   C.2       1 RES1   0.0000
    15 O15    -12.8957 -19.0014  -9.2827   O.2       1 RES1   0.0000
    16 N16    -13.9770 -20.5318  -8.0670   N.am      1 RES1   0.0000
    17 C17    -14.5574 -21.1957  -9.2349   C.3       1 RES1   0.0000
    18 C18    -15.0924 -22.6078  -8.8480   C.3       1 RES1   0.0000
    19 C19    -15.7029 -23.3800 -10.0205   C.2       1 RES1   0.0000
    20 C20    -15.0927 -24.3575 -10.7185   C.2       1 RES1   0.0000
    21 N21    -15.9224 -24.8317 -11.6994   N.2       1 RES1   0.0000
    22 C22    -17.1221 -24.1672 -11.6703   C.2       1 RES1   0.0000
    23 C23    -18.3041 -24.2608 -12.4451   C.2       1 RES1   0.0000
    24 C24    -19.3905 -23.4243 -12.1656   C.2       1 RES1   0.0000
    25 C25    -19.3154 -22.4830 -11.1122   C.2       1 RES1   0.0000
    26 C26    -18.1609 -22.3768 -10.3418   C.2       1 RES1   0.0000
    27 C27    -17.0473 -23.2160 -10.6089   C.2       1 RES1   0.0000
    28 C28    -15.6564 -20.3120  -9.8129   C.2       1 RES1   0.0000
    29 O29    -16.2627 -19.3890  -9.0289   O.co2     1 RES1   0.0000
    30 O30    -15.9788 -20.4312 -10.9734   O.co2     1 RES1  -1.0000
    31 C31    -16.7217 -19.3631  -4.1303   C.2       1 RES1   0.0000
    32 O32    -16.9254 -19.7130  -2.8515   O.3       1 RES1   0.0000
@<TRIPOS>BOND
     1     2     1    1
     2     2     3    1
     3     2     4    1
     4     4     5    2
     5     5     6    1
     6     6     7    1
     7     7     8    2
     8     7     9   am
     9     9    10    1
    10    10    11    1
    11    11    12    1
    12    12    13    1
    13    13    14    1
    14    14    15    2
    15    14    16   am
    16    16    17    1
    17    17    18    1
    18    18    19    1
    19    19    20    2
    20    20    21    1
    21    21    22    1
    22    22    23    2
    23    23    24    1
    24    24    25    2
    25    25    26    1
    26    26    27    2
    27    17    28    1
    28    28    29    2
    29    28    30    1
    30     6    31    2
    31    31    32    1
    32    32     4    1
    33    13     9    1
    34    27    19    1
    35    27    22    1
@<TRIPOS>SUBSTRUCTURE
     1 RES1        1 GROUP             0 ****  ****    0  
@<TRIPOS>MOLECULE
ligand_50
    32    35     1     0     0
SMALL
USER_CHARGES
****
Generated from the CSD

@<TRIPOS>ATOM
     1 C1     -15.9571 -21.6347  -0.5847   C.3       1 RES1   0.0000
     2 C2     -15.3382 -20.2767  -0.9006   C.3       1 RES1   0.0000
     3 N3     -15.8195 -19.2351   0.0104   N.3       1 RES1   1.0000
     4 C4     -15.6480 -19.8996  -2.3181   C.2       1 RES1   0.0000
     5 N5     -16.3709 -18.8993  -2.6442   N.2       1 RES1   0.0000
     6 C6     -16.4616 -18.8289  -3.9819   C.2       1 RES1   0.0000
     7 C7     -17.2314 -17.7749  -4.6744   C.2       1 RES1   0.0000
     8 O8     -16.8669 -17.5033  -5.8056   O.2       1 RES1   0.0000
     9 N9     -18.3239 -17.1026  -4.1606   N.am      1 RES1   0.0000
    10 C10    -19.0434 -17.3869  -2.9186   C.3       1 RES1   0.0000
    11 C11    -20.2006 -16.5114  -2.9485   C.3       1 RES1   0.0000
    12 C12    -20.2322 -15.7193  -4.1109   C.3       1 RES1   0.0000
    13 C13    -19.0212 -16.0870  -4.9522   C.3       1 RES1   0.0000
    14 C14    -18.1632 -14.8824  -5.2194   C.2       1 RES1   0.0000
    15 O15    -18.4896 -14.0802  -6.0787   O.2       1 RES1   0.0000
    16 N16    -17.0648 -14.6844  -4.4681   N.am      1 RES1   0.0000
    17 C17    -16.2104 -13.5094  -4.6441   C.3       1 RES1   0.0000
    18 C18    -16.0216 -12.7658  -3.2872   C.3       1 RES1   0.0000
    19 C19    -15.1572 -11.5063  -3.3877   C.2       1 RES1   0.0000
    20 C20    -13.8654 -11.4100  -3.0171   C.2       1 RES1   0.0000
    21 N21    -13.3988 -10.1421  -3.2412   N.2       1 RES1   0.0000
    22 C22    -14.3892  -9.3580  -3.7759   C.2       1 RES1   0.0000
    23 C23    -14.4417  -8.0031  -4.1852   C.2       1 RES1   0.0000
    24 C24    -15.6286  -7.4765  -4.7069   C.2       1 RES1   0.0000
    25 C25    -16.7793  -8.2905  -4.8278   C.2       1 RES1   0.0000
    26 C26    -16.7455  -9.6238  -4.4290   C.2       1 RES1   0.0000
    27 C27    -15.5514 -10.1775  -3.8971   C.2       1 RES1   0.0000
    28 C28    -14.8781 -13.9494  -5.2395   C.2       1 RES1   0.0000
    29 O29    -14.4706 -15.2341  -5.1062   O.co2     1 RES1   0.0000
    30 O30    -14.1916 -13.1518  -5.8374   O.co2     1 RES1  -1.0000
    31 C31    -15.7370 -19.8669  -4.4796   C.2       1 RES1   0.0000
    32 O32    -15.2338 -20.5270  -3.4259   O.3       1 RES1   0.0000
@<TRIPOS>BOND
     1     2     1    1
     2     2     3    1
     3     2     4    1
     4     4     5    2
     5     5     6    1
     6     6     7    1
     7     7     8    2
     8     7     9   am
     9     9    10    1
    10    10    11    1
    11    11    12    1
    12    12    13    1
    13    13    14    1
    14    14    15    2
    15    14    16   am
    16    16    17    1
    17    17    18    1
    18    18    19    1
    19    19    20    2
    20    20    21    1
    21    21    22    1
    22    22    23    2
    23    23    24    1
    24    24    25    2
    25    25    26    1
    26    26    27    2
    27    17    28    1
    28    28    29    2
    29    28    30    1
    30     6    31    2
    31    31    32    1
    32    32     4    1
    33    13     9    1
    34    27    19    1
    35    27    22    1
@<TRIPOS>SUBSTRUCTURE
     1 RES1        1 GROUP             0 ****  ****    0  
@<TRIPOS>MOLECULE
ligand_51
    32    35     1     0     0
SMALL
USER_CHARGES
****
Generated from the CSD

@<TRIPOS>ATOM
     1 C1     -16.0513 -21.6655  -0.5693   C.3       1 RES1   0.0000
     2 C2     -15.4182 -20.3119  -0.8758   C.3       1 RES1   0.0000
     3 N3     -15.8985 -19.2689   0.0341   N.3       1 RES1   1.0000
     4 C4     -15.7126 -19.9281  -2.2948   C.2       1 RES1   0.0000
     5 N5     -16.4242 -18.9207  -2.6242   N.2       1 RES1   0.0000
     6 C6     -16.5028 -18.8457  -3.9624   C.2       1 RES1   0.0000
     7 C7     -17.2577 -17.7832  -4.6583   C.2       1 RES1   0.0000
     8 O8     -17.6719 -18.0632  -5.7702   O.2       1 RES1   0.0000
     9 N9     -17.5454 -16.5309  -4.1499   N.am      1 RES1   0.0000
    10 C10    -17.3163 -16.0466  -2.7882   C.3       1 RES1   0.0000
    11 C11    -17.9579 -14.7456  -2.7416   C.3       1 RES1   0.0000
    12 C12    -18.5530 -14.4072  -3.9709   C.3       1 RES1   0.0000
    13 C13    -18.3223 -15.5644  -4.9286   C.3       1 RES1   0.0000
    14 C14    -17.5948 -15.1079  -6.1620   C.2       1 RES1   0.0000
    15 O15    -18.2007 -14.5250  -7.0461   O.2       1 RES1   0.0000
    16 N16    -16.2679 -15.3114  -6.2494   N.am      1 RES1   0.0000
    17 C17    -15.4903 -14.8515  -7.4007   C.3       1 RES1   0.0000
    18 C18    -14.2887 -13.9765  -6.9313   C.3       1 RES1   0.0000
    19 C19    -13.4302 -13.4387  -8.0790   C.2       1 RES1   0.0000
    20 C20    -13.4889 -12.1912  -8.5846   C.2       1 RES1   0.0000
    21 N21    -12.5851 -12.0470  -9.6033   N.2       1 RES1   0.0000
    22 C22    -11.8951 -13.2167  -9.7965   C.2       1 RES1   0.0000
    23 C23    -10.8734 -13.6050 -10.6974   C.2       1 RES1   0.0000
    24 C24    -10.3557 -14.9042 -10.6484   C.2       1 RES1   0.0000
    25 C25    -10.8479 -15.8346  -9.7032   C.2       1 RES1   0.0000
    26 C26    -11.8526 -15.4700  -8.8115   C.2       1 RES1   0.0000
    27 C27    -12.3916 -14.1570  -8.8445   C.2       1 RES1   0.0000
    28 C28    -15.0300 -16.0622  -8.2041   C.2       1 RES1   0.0000
    29 O29    -14.9424 -17.2748  -7.6073   O.co2     1 RES1   0.0000
    30 O30    -14.7522 -15.9388  -9.3757   O.co2     1 RES1  -1.0000
    31 C31    -15.7827 -19.8884  -4.4569   C.2       1 RES1   0.0000
    32 O32    -15.2942 -20.5558  -3.4009   O.3       1 RES1   0.0000
@<TRIPOS>BOND
     1     2     1    1
     2     2     3    1
     3     2     4    1
     4     4     5    2
     5     5     6    1
     6     6     7    1
     7     7     8    2
     8     7     9   am
     9     9    10    1
    10    10    11    1
    11    11    12    1
    12    12    13    1
    13    13    14    1
    14    14    15    2
    15    14    16   am
    16    16    17    1
    17    17    18    1
    18    18    19    1
    19    19    20    2
    20    20    21    1
    21    21    22    1
    22    22    23    2
    23    23    24    1
    24    24    25    2
    25    25    26    1
    26    26    27    2
    27    17    28    1
    28    28    29    2
    29    28    30    1
    30     6    31    2
    31    31    32    1
    32    32     4    1
    33    13     9    1
    34    27    19    1
    35    27    22    1
@<TRIPOS>SUBSTRUCTURE
     1 RES1        1 GROUP             0 ****  ****    0  
@<TRIPOS>MOLECULE
ligand_52
    32    35     1     0     0
SMALL
USER_CHARGES
****
Generated from the CSD

@<TRIPOS>ATOM
     1 C1     -15.9109 -21.6186  -0.4868   C.3       1 RES1   0.0000
     2 C2     -15.2881 -20.2634  -0.8071   C.3       1 RES1   0.0000
     3 N3     -15.7659 -19.2175   0.1009   N.3       1 RES1   1.0000
     4 C4     -15.5972 -19.8897  -2.2256   C.2       1 RES1   0.0000
     5 N5     -14.7060 -19.6118  -3.0963   N.2       1 RES1   0.0000
     6 C6     -15.2975 -19.3174  -4.2651   C.2       1 RES1   0.0000
     7 C7     -14.5332 -18.9538  -5.4761   C.2       1 RES1   0.0000
     8 O8     -13.3805 -18.6011  -5.2942   O.2       1 RES1   0.0000
     9 N9     -15.0045 -19.0031  -6.7742   N.am      1 RES1   0.0000
    10 C10    -16.2723 -19.5639  -7.2424   C.3       1 RES1   0.0000
    11 C11    -16.1866 -19.5233  -8.6907   C.3       1 RES1   0.0000
    12 C12    -14.9664 -18.9784  -9.1312   C.3       1 RES1   0.0000
    13 C13    -14.1435 -18.6358  -7.9003   C.3       1 RES1   0.0000
    14 C14    -13.7744 -17.1790  -7.8857   C.2       1 RES1   0.0000
    15 O15    -12.8587 -16.7754  -8.5836   O.2       1 RES1   0.0000
    16 N16    -14.4964 -16.3307  -7.1313   N.am      1 RES1   0.0000
    17 C17    -14.2205 -14.8938  -7.1059   C.3       1 RES1   0.0000
    18 C18    -15.5134 -14.0857  -7.4305   C.3       1 RES1   0.0000
    19 C19    -16.0388 -14.3049  -8.8516   C.2       1 RES1   0.0000
    20 C20    -17.0785 -15.0918  -9.1907   C.2       1 RES1   0.0000
    21 N21    -17.2778 -15.0604 -10.5452   N.2       1 RES1   0.0000
    22 C22    -16.3584 -14.2360 -11.1426   C.2       1 RES1   0.0000
    23 C23    -16.1218 -13.8564 -12.4865   C.2       1 RES1   0.0000
    24 C24    -15.0794 -12.9734 -12.7896   C.2       1 RES1   0.0000
    25 C25    -14.2580 -12.4568 -11.7602   C.2       1 RES1   0.0000
    26 C26    -14.4758 -12.8206 -10.4343   C.2       1 RES1   0.0000
    27 C27    -15.5279 -13.7152 -10.1053   C.2       1 RES1   0.0000
    28 C28    -13.6472 -14.5226  -5.7433   C.2       1 RES1   0.0000
    29 O29    -13.8759 -15.3221  -4.6743   O.co2     1 RES1   0.0000
    30 O30    -12.9819 -13.5189  -5.6216   O.co2     1 RES1  -1.0000
    31 C31    -16.6383 -19.4308  -4.0659   C.2       1 RES1   0.0000
    32 O32    -16.8094 -19.7902  -2.7849   O.3       1 RES1   0.0000
@<TRIPOS>BOND
     1     2     1    1
     2     2     3    1
     3     2     4    1
     4     4     5    2
     5     5     6    1
     6     6     7    1
     7     7     8    2
     8     7     9   am
     9     9    10    1
    10    10    11    1
    11    11    12    1
    12    12    13    1
    13    13    14    1
    14    14    15    2
    15    14    16   am
    16    16    17    1
    17    17    18    1
    18    18    19    1
    19    19    20    2
    20    20    21    1
    21    21    22    1
    22    22    23    2
    23    23    24    1
    24    24    25    2
    25    25    26    1
    26    26    27    2
    27    17    28    1
    28    28    29    2
    29    28    30    1
    30     6    31    2
    31    31    32    1
    32    32     4    1
    33    13     9    1
    34    27    19    1
    35    27    22    1
@<TRIPOS>SUBSTRUCTURE
     1 RES1        1 GROUP             0 ****  ****    0  
@<TRIPOS>MOLECULE
ligand_53
    32    35     1     0     0
SMALL
USER_CHARGES
****
Generated from the CSD

@<TRIPOS>ATOM
     1 C1     -16.2346 -21.4539  -0.5647   C.3       1 RES1   0.0000
     2 C2     -15.5673 -20.1171  -0.8725   C.3       1 RES1   0.0000
     3 N3     -16.0538 -19.0515   0.0074   N.3       1 RES1   1.0000
     4 C4     -15.8130 -19.7497  -2.3050   C.2       1 RES1   0.0000
     5 N5     -14.8829 -19.5015  -3.1433   N.2       1 RES1   0.0000
     6 C6     -15.4221 -19.2041  -4.3364   C.2       1 RES1   0.0000
     7 C7     -14.6037 -18.8705  -5.5204   C.2       1 RES1   0.0000
     8 O8     -15.1397 -18.1664  -6.3589   O.2       1 RES1   0.0000
     9 N9     -13.2975 -19.2660  -5.7372   N.am      1 RES1   0.0000
    10 C10    -12.3196 -19.9087  -4.8596   C.3       1 RES1   0.0000
    11 C11    -11.0479 -19.1369  -5.1699   C.3       1 RES1   0.0000
    12 C12    -11.1329 -18.9260  -6.6802   C.3       1 RES1   0.0000
    13 C13    -12.6380 -18.8145  -6.9758   C.3       1 RES1   0.0000
    14 C14    -12.9837 -19.6185  -8.1976   C.2       1 RES1   0.0000
    15 O15    -12.7439 -19.1732  -9.3080   O.2       1 RES1   0.0000
    16 N16    -13.5140 -20.8451  -8.0427   N.am      1 RES1   0.0000
    17 C17    -13.9219 -21.6602  -9.1876   C.3       1 RES1   0.0000
    18 C18    -13.2266 -23.0545  -9.1381   C.3       1 RES1   0.0000
    19 C19    -11.7090 -22.9956  -9.3308   C.2       1 RES1   0.0000
    20 C20    -11.0551 -23.2329 -10.4847   C.2       1 RES1   0.0000
    21 N21     -9.7046 -23.0956 -10.3039   N.2       1 RES1   0.0000
    22 C22     -9.4306 -22.7569  -9.0032   C.2       1 RES1   0.0000
    23 C23     -8.2291 -22.5017  -8.2977   C.2       1 RES1   0.0000
    24 C24     -8.2740 -22.1697  -6.9391   C.2       1 RES1   0.0000
    25 C25     -9.5144 -22.0880  -6.2638   C.2       1 RES1   0.0000
    26 C26    -10.7045 -22.3371  -6.9416   C.2       1 RES1   0.0000
    27 C27    -10.6811 -22.6755  -8.3202   C.2       1 RES1   0.0000
    28 C28    -15.4410 -21.7843  -9.1923   C.2       1 RES1   0.0000
    29 O29    -16.1376 -21.5907  -8.0471   O.co2     1 RES1   0.0000
    30 O30    -16.0217 -22.0469 -10.2212   O.co2     1 RES1  -1.0000
    31 C31    -16.7719 -19.2836  -4.1877   C.2       1 RES1   0.0000
    32 O32    -17.0003 -19.6266  -2.9112   O.3       1 RES1   0.0000
@<TRIPOS>BOND
     1     2     1    1
     2     2     3    1
     3     2     4    1
     4     4     5    2
     5     5     6    1
     6     6     7    1
     7     7     8    2
     8     7     9   am
     9     9    10    1
    10    10    11    1
    11    11    12    1
    12    12    13    1
    13    13    14    1
    14    14    15    2
    15    14    16   am
    16    16    17    1
    17    17    18    1
    18    18    19    1
    19    19    20    2
    20    20    21    1
    21    21    22    1
    22    22    23    2
    23    23    24    1
    24    24    25    2
    25    25    26    1
    26    26    27    2
    27    17    28    1
    28    28    29    2
    29    28    30    1
    30     6    31    2
    31    31    32    1
    32    32     4    1
    33    13     9    1
    34    27    19    1
    35    27    22    1
@<TRIPOS>SUBSTRUCTURE
     1 RES1        1 GROUP             0 ****  ****    0  
@<TRIPOS>MOLECULE
ligand_54
    32    35     1     0     0
SMALL
USER_CHARGES
****
Generated from the CSD

@<TRIPOS>ATOM
     1 C1     -16.0171 -21.6165  -0.5154   C.3       1 RES1   0.0000
     2 C2     -15.3970 -20.2577  -0.8254   C.3       1 RES1   0.0000
     3 N3     -15.8965 -19.2146   0.0740   N.3       1 RES1   1.0000
     4 C4     -15.6841 -19.8861  -2.2491   C.2       1 RES1   0.0000
     5 N5     -14.7799 -19.6030  -3.1045   N.2       1 RES1   0.0000
     6 C6     -15.3532 -19.3122  -4.2833   C.2       1 RES1   0.0000
     7 C7     -14.5705 -18.9443  -5.4812   C.2       1 RES1   0.0000
     8 O8     -15.1458 -18.2512  -6.3027   O.2       1 RES1   0.0000
     9 N9     -13.2574 -19.2969  -5.7282   N.am      1 RES1   0.0000
    10 C10    -12.3235 -19.9559  -4.8146   C.3       1 RES1   0.0000
    11 C11    -11.0452 -19.9259  -5.5013   C.3       1 RES1   0.0000
    12 C12    -11.1375 -19.3028  -6.7594   C.3       1 RES1   0.0000
    13 C13    -12.5773 -18.8539  -6.9469   C.3       1 RES1   0.0000
    14 C14    -13.1745 -19.4586  -8.1865   C.2       1 RES1   0.0000
    15 O15    -13.6098 -20.5981  -8.1596   O.2       1 RES1   0.0000
    16 N16    -13.2609 -18.7100  -9.3009   N.am      1 RES1   0.0000
    17 C17    -13.8758 -19.2192 -10.5274   C.3       1 RES1   0.0000
    18 C18    -14.2017 -18.0457 -11.5003   C.3       1 RES1   0.0000
    19 C19    -12.9642 -17.2972 -12.0024   C.2       1 RES1   0.0000
    20 C20    -12.5318 -16.1042 -11.5496   C.2       1 RES1   0.0000
    21 N21    -11.3983 -15.7237 -12.2172   N.2       1 RES1   0.0000
    22 C22    -11.0490 -16.6744 -13.1423   C.2       1 RES1   0.0000
    23 C23     -9.9897 -16.7782 -14.0769   C.2       1 RES1   0.0000
    24 C24     -9.8979 -17.9013 -14.9066   C.2       1 RES1   0.0000
    25 C25    -10.8589 -18.9357 -14.8183   C.2       1 RES1   0.0000
    26 C26    -11.9071 -18.8491 -13.9064   C.2       1 RES1   0.0000
    27 C27    -12.0185 -17.7181 -13.0555   C.2       1 RES1   0.0000
    28 C28    -12.9407 -20.2404 -11.1643   C.2       1 RES1   0.0000
    29 O29    -11.6192 -20.2224 -10.8684   O.co2     1 RES1   0.0000
    30 O30    -13.3827 -21.0704 -11.9263   O.co2     1 RES1  -1.0000
    31 C31    -16.6965 -19.4337  -4.1069   C.2       1 RES1   0.0000
    32 O32    -16.8873 -19.7939  -2.8290   O.3       1 RES1   0.0000
@<TRIPOS>BOND
     1     2     1    1
     2     2     3    1
     3     2     4    1
     4     4     5    2
     5     5     6    1
     6     6     7    1
     7     7     8    2
     8     7     9   am
     9     9    10    1
    10    10    11    1
    11    11    12    1
    12    12    13    1
    13    13    14    1
    14    14    15    2
    15    14    16   am
    16    16    17    1
    17    17    18    1
    18    18    19    1
    19    19    20    2
    20    20    21    1
    21    21    22    1
    22    22    23    2
    23    23    24    1
    24    24    25    2
    25    25    26    1
    26    26    27    2
    27    17    28    1
    28    28    29    2
    29    28    30    1
    30     6    31    2
    31    31    32    1
    32    32     4    1
    33    13     9    1
    34    27    19    1
    35    27    22    1
@<TRIPOS>SUBSTRUCTURE
     1 RES1        1 GROUP             0 ****  ****    0  
@<TRIPOS>MOLECULE
ligand_55
    32    35     1     0     0
SMALL
USER_CHARGES
****
Generated from the CSD

@<TRIPOS>ATOM
     1 C1     -16.0176 -21.6181  -0.5164   C.3       1 RES1   0.0000
     2 C2     -15.3978 -20.2590  -0.8259   C.3       1 RES1   0.0000
     3 N3     -15.8978 -19.2163   0.0737   N.3       1 RES1   1.0000
     4 C4     -15.6847 -19.8872  -2.2496   C.2       1 RES1   0.0000
     5 N5     -14.7803 -19.6036  -3.1047   N.2       1 RES1   0.0000
     6 C6     -15.3534 -19.3127  -4.2836   C.2       1 RES1   0.0000
     7 C7     -14.5705 -18.9443  -5.4812   C.2       1 RES1   0.0000
     8 O8     -15.1456 -18.2507  -6.3025   O.2       1 RES1   0.0000
     9 N9     -13.2574 -19.2969  -5.7282   N.am      1 RES1   0.0000
    10 C10    -12.3235 -19.9559  -4.8146   C.3       1 RES1   0.0000
    11 C11    -11.0452 -19.9259  -5.5013   C.3       1 RES1   0.0000
    12 C12    -11.1375 -19.3028  -6.7594   C.3       1 RES1   0.0000
    13 C13    -12.5773 -18.8539  -6.9469   C.3       1 RES1   0.0000
    14 C14    -13.1745 -19.4586  -8.1865   C.2       1 RES1   0.0000
    15 O15    -13.6098 -20.5981  -8.1596   O.2       1 RES1   0.0000
    16 N16    -13.2609 -18.7100  -9.3009   N.am      1 RES1   0.0000
    17 C17    -13.8758 -19.2192 -10.5274   C.3       1 RES1   0.0000
    18 C18    -14.2014 -18.0457 -11.5005   C.3       1 RES1   0.0000
    19 C19    -12.9618 -17.3210 -12.0314   C.2       1 RES1   0.0000
    20 C20    -12.3627 -17.5561 -13.2150   C.2       1 RES1   0.0000
    21 N21    -11.2802 -16.7322 -13.3729   N.2       1 RES1   0.0000
    22 C22    -11.1377 -15.9184 -12.2779   C.2       1 RES1   0.0000
    23 C23    -10.2075 -14.9076 -11.9326   C.2       1 RES1   0.0000
    24 C24    -10.3273 -14.2360 -10.7108   C.2       1 RES1   0.0000
    25 C25    -11.3735 -14.5613  -9.8159   C.2       1 RES1   0.0000
    26 C26    -12.2954 -15.5530 -10.1389   C.2       1 RES1   0.0000
    27 C27    -12.1917 -16.2465 -11.3733   C.2       1 RES1   0.0000
    28 C28    -12.9408 -20.2407 -11.1641   C.2       1 RES1   0.0000
    29 O29    -11.6194 -20.2228 -10.8681   O.co2     1 RES1   0.0000
    30 O30    -13.3829 -21.0707 -11.9261   O.co2     1 RES1  -1.0000
    31 C31    -16.6967 -19.4346  -4.1076   C.2       1 RES1   0.0000
    32 O32    -16.8877 -19.7952  -2.8298   O.3       1 RES1   0.0000
@<TRIPOS>BOND
     1     2     1    1
     2     2     3    1
     3     2     4    1
     4     4     5    2
     5     5     6    1
     6     6     7    1
     7     7     8    2
     8     7     9   am
     9     9    10    1
    10    10    11    1
    11    11    12    1
    12    12    13    1
    13    13    14    1
    14    14    15    2
    15    14    16   am
    16    16    17    1
    17    17    18    1
    18    18    19    1
    19    19    20    2
    20    20    21    1
    21    21    22    1
    22    22    23    2
    23    23    24    1
    24    24    25    2
    25    25    26    1
    26    26    27    2
    27    17    28    1
    28    28    29    2
    29    28    30    1
    30     6    31    2
    31    31    32    1
    32    32     4    1
    33    13     9    1
    34    27    19    1
    35    27    22    1
@<TRIPOS>SUBSTRUCTURE
     1 RES1        1 GROUP             0 ****  ****    0  
@<TRIPOS>MOLECULE
ligand_56
    32    35     1     0     0
SMALL
USER_CHARGES
****
Generated from the CSD

@<TRIPOS>ATOM
     1 C1     -15.9567 -21.5363  -0.4628   C.3       1 RES1   0.0000
     2 C2     -15.3373 -20.1859  -0.8087   C.3       1 RES1   0.0000
     3 N3     -15.8178 -19.1242   0.0792   N.3       1 RES1   1.0000
     4 C4     -15.6473 -19.8400  -2.2341   C.2       1 RES1   0.0000
     5 N5     -16.3698 -18.8469  -2.5821   N.2       1 RES1   0.0000
     6 C6     -16.4609 -18.8059  -3.9210   C.2       1 RES1   0.0000
     7 C7     -17.2304 -17.7671  -4.6363   C.2       1 RES1   0.0000
     8 O8     -16.8574 -17.5108  -5.7683   O.2       1 RES1   0.0000
     9 N9     -18.3313 -17.0933  -4.1426   N.am      1 RES1   0.0000
    10 C10    -19.0611 -17.6649  -2.9996   C.3       1 RES1   0.0000
    11 C11    -20.3955 -16.9515  -2.9875   C.3       1 RES1   0.0000
    12 C12    -20.5672 -16.4636  -4.4049   C.3       1 RES1   0.0000
    13 C13    -19.1505 -16.0627  -4.7892   C.3       1 RES1   0.0000
    14 C14    -18.8483 -14.6567  -4.3527   C.2       1 RES1   0.0000
    15 O15    -18.5251 -14.4334  -3.1976   O.2       1 RES1   0.0000
    16 N16    -18.8956 -13.6669  -5.2627   N.am      1 RES1   0.0000
    17 C17    -18.5307 -12.2903  -4.9258   C.3       1 RES1   0.0000
    18 C18    -16.9862 -12.0993  -5.0157   C.3       1 RES1   0.0000
    19 C19    -16.2021 -12.9077  -3.9787   C.2       1 RES1   0.0000
    20 C20    -15.5436 -14.0589  -4.2161   C.2       1 RES1   0.0000
    21 N21    -14.9525 -14.5152  -3.0682   N.2       1 RES1   0.0000
    22 C22    -15.2106 -13.6595  -2.0275   C.2       1 RES1   0.0000
    23 C23    -14.8482 -13.6574  -0.6582   C.2       1 RES1   0.0000
    24 C24    -15.2751 -12.6179   0.1756   C.2       1 RES1   0.0000
    25 C25    -16.0688 -11.5671  -0.3412   C.2       1 RES1   0.0000
    26 C26    -16.4351 -11.5543  -1.6841   C.2       1 RES1   0.0000
    27 C27    -16.0126 -12.5995  -2.5470   C.2       1 RES1   0.0000
    28 C28    -19.2745 -11.3383  -5.8551   C.2       1 RES1   0.0000
    29 O29    -19.7402 -11.7841  -7.0461   O.co2     1 RES1   0.0000
    30 O30    -19.4547 -10.1885  -5.5227   O.co2     1 RES1  -1.0000
    31 C31    -15.7369 -19.8551  -4.3958   C.2       1 RES1   0.0000
    32 O32    -15.2337 -20.4919  -3.3279   O.3       1 RES1   0.0000
@<TRIPOS>BOND
     1     2     1    1
     2     2     3    1
     3     2     4    1
     4     4     5    2
     5     5     6    1
     6     6     7    1
     7     7     8    2
     8     7     9   am
     9     9    10    1
    10    10    11    1
    11    11    12    1
    12    12    13    1
    13    13    14    1
    14    14    15    2
    15    14    16   am
    16    16    17    1
    17    17    18    1
    18    18    19    1
    19    19    20    2
    20    20    21    1
    21    21    22    1
    22    22    23    2
    23    23    24    1
    24    24    25    2
    25    25    26    1
    26    26    27    2
    27    17    28    1
    28    28    29    2
    29    28    30    1
    30     6    31    2
    31    31    32    1
    32    32     4    1
    33    13     9    1
    34    27    19    1
    35    27    22    1
@<TRIPOS>SUBSTRUCTURE
     1 RES1        1 GROUP             0 ****  ****    0  
@<TRIPOS>MOLECULE
ligand_57
    32    35     1     0     0
SMALL
USER_CHARGES
****
Generated from the CSD

@<TRIPOS>ATOM
     1 C1     -15.9970 -21.5853  -0.4954   C.3       1 RES1   0.0000
     2 C2     -15.3780 -20.2285  -0.8159   C.3       1 RES1   0.0000
     3 N3     -15.8737 -19.1799   0.0793   N.3       1 RES1   1.0000
     4 C4     -15.6709 -19.8653  -2.2407   C.2       1 RES1   0.0000
     5 N5     -16.3924 -18.8702  -2.5852   N.2       1 RES1   0.0000
     6 C6     -16.4665 -18.8124  -3.9245   C.2       1 RES1   0.0000
     7 C7     -17.2304 -17.7671  -4.6363   C.2       1 RES1   0.0000
     8 O8     -16.8524 -17.5049  -5.7653   O.2       1 RES1   0.0000
     9 N9     -18.3313 -17.0933  -4.1426   N.am      1 RES1   0.0000
    10 C10    -19.0657 -17.3685  -2.9073   C.3       1 RES1   0.0000
    11 C11    -20.2249 -16.4967  -2.9598   C.3       1 RES1   0.0000
    12 C12    -20.2438 -15.7152  -4.1297   C.3       1 RES1   0.0000
    13 C13    -19.0212 -16.0870  -4.9522   C.3       1 RES1   0.0000
    14 C14    -18.1632 -14.8824  -5.2194   C.2       1 RES1   0.0000
    15 O15    -17.3814 -14.4903  -4.3686   O.2       1 RES1   0.0000
    16 N16    -18.2401 -14.2800  -6.4198   N.am      1 RES1   0.0000
    17 C17    -17.3957 -13.1358  -6.7651   C.3       1 RES1   0.0000
    18 C18    -16.6292 -13.4069  -8.0951   C.3       1 RES1   0.0000
    19 C19    -17.5422 -13.5611  -9.3143   C.2       1 RES1   0.0000
    20 C20    -17.8892 -14.7278  -9.8918   C.2       1 RES1   0.0000
    21 N21    -18.7157 -14.5033 -10.9604   N.2       1 RES1   0.0000
    22 C22    -18.9386 -13.1586 -11.1153   C.2       1 RES1   0.0000
    23 C23    -19.6970 -12.3993 -12.0397   C.2       1 RES1   0.0000
    24 C24    -19.7300 -11.0042 -11.9367   C.2       1 RES1   0.0000
    25 C25    -19.0086 -10.3456 -10.9134   C.2       1 RES1   0.0000
    26 C26    -18.2571 -11.0765  -9.9975   C.2       1 RES1   0.0000
    27 C27    -18.2102 -12.4927 -10.0844   C.2       1 RES1   0.0000
    28 C28    -18.2651 -11.8872  -6.8565   C.2       1 RES1   0.0000
    29 O29    -19.5964 -12.0062  -7.0751   O.co2     1 RES1   0.0000
    30 O30    -17.7652 -10.7928  -6.7249   O.co2     1 RES1  -1.0000
    31 C31    -15.7326 -19.8528  -4.4034   C.2       1 RES1   0.0000
    32 O32    -15.2409 -20.5017  -3.3373   O.3       1 RES1   0.0000
@<TRIPOS>BOND
     1     2     1    1
     2     2     3    1
     3     2     4    1
     4     4     5    2
     5     5     6    1
     6     6     7    1
     7     7     8    2
     8     7     9   am
     9     9    10    1
    10    10    11    1
    11    11    12    1
    12    12    13    1
    13    13    14    1
    14    14    15    2
    15    14    16   am
    16    16    17    1
    17    17    18    1
    18    18    19    1
    19    19    20    2
    20    20    21    1
    21    21    22    1
    22    22    23    2
    23    23    24    1
    24    24    25    2
    25    25    26    1
    26    26    27    2
    27    17    28    1
    28    28    29    2
    29    28    30    1
    30     6    31    2
    31    31    32    1
    32    32     4    1
    33    13     9    1
    34    27    19    1
    35    27    22    1
@<TRIPOS>SUBSTRUCTURE
     1 RES1        1 GROUP             0 ****  ****    0  
@<TRIPOS>MOLECULE
ligand_58
    32    35     1     0     0
SMALL
USER_CHARGES
****
Generated from the CSD

@<TRIPOS>ATOM
     1 C1     -15.9961 -21.5843  -0.4947   C.3       1 RES1   0.0000
     2 C2     -15.3773 -20.2275  -0.8157   C.3       1 RES1   0.0000
     3 N3     -15.8729 -19.1788   0.0794   N.3       1 RES1   1.0000
     4 C4     -15.6704 -19.8647  -2.2404   C.2       1 RES1   0.0000
     5 N5     -16.3921 -18.8697  -2.5850   N.2       1 RES1   0.0000
     6 C6     -16.4663 -18.8122  -3.9244   C.2       1 RES1   0.0000
     7 C7     -17.2304 -17.7671  -4.6363   C.2       1 RES1   0.0000
     8 O8     -16.8526 -17.5052  -5.7654   O.2       1 RES1   0.0000
     9 N9     -18.3313 -17.0933  -4.1426   N.am      1 RES1   0.0000
    10 C10    -19.0657 -17.3685  -2.9073   C.3       1 RES1   0.0000
    11 C11    -20.2249 -16.4967  -2.9598   C.3       1 RES1   0.0000
    12 C12    -20.2438 -15.7152  -4.1297   C.3       1 RES1   0.0000
    13 C13    -19.0212 -16.0870  -4.9522   C.3       1 RES1   0.0000
    14 C14    -18.1632 -14.8824  -5.2194   C.2       1 RES1   0.0000
    15 O15    -17.3814 -14.4903  -4.3686   O.2       1 RES1   0.0000
    16 N16    -18.2401 -14.2800  -6.4198   N.am      1 RES1   0.0000
    17 C17    -17.3955 -13.1359  -6.7653   C.3       1 RES1   0.0000
    18 C18    -16.6209 -13.4116  -8.0896   C.3       1 RES1   0.0000
    19 C19    -17.5268 -13.5758  -9.3128   C.2       1 RES1   0.0000
    20 C20    -17.7681 -12.6310 -10.2425   C.2       1 RES1   0.0000
    21 N21    -18.6243 -13.1103 -11.1978   N.2       1 RES1   0.0000
    22 C22    -18.9735 -14.4067 -10.9165   C.2       1 RES1   0.0000
    23 C23    -19.8114 -15.3493 -11.5613   C.2       1 RES1   0.0000
    24 C24    -19.9716 -16.6286 -11.0172   C.2       1 RES1   0.0000
    25 C25    -19.3012 -16.9870  -9.8241   C.2       1 RES1   0.0000
    26 C26    -18.4752 -16.0724  -9.1769   C.2       1 RES1   0.0000
    27 C27    -18.2991 -14.7694  -9.7122   C.2       1 RES1   0.0000
    28 C28    -18.2663 -11.8892  -6.8670   C.2       1 RES1   0.0000
    29 O29    -19.5961 -12.0112  -7.0928   O.co2     1 RES1   0.0000
    30 O30    -17.7689 -10.7935  -6.7373   O.co2     1 RES1  -1.0000
    31 C31    -15.7324 -19.8527  -4.4031   C.2       1 RES1   0.0000
    32 O32    -15.2405 -20.5012  -3.3370   O.3       1 RES1   0.0000
@<TRIPOS>BOND
     1     2     1    1
     2     2     3    1
     3     2     4    1
     4     4     5    2
     5     5     6    1
     6     6     7    1
     7     7     8    2
     8     7     9   am
     9     9    10    1
    10    10    11    1
    11    11    12    1
    12    12    13    1
    13    13    14    1
    14    14    15    2
    15    14    16   am
    16    16    17    1
    17    17    18    1
    18    18    19    1
    19    19    20    2
    20    20    21    1
    21    21    22    1
    22    22    23    2
    23    23    24    1
    24    24    25    2
    25    25    26    1
    26    26    27    2
    27    17    28    1
    28    28    29    2
    29    28    30    1
    30     6    31    2
    31    31    32    1
    32    32     4    1
    33    13     9    1
    34    27    19    1
    35    27    22    1
@<TRIPOS>SUBSTRUCTURE
     1 RES1        1 GROUP             0 ****  ****    0  
@<TRIPOS>MOLECULE
ligand_59
    32    35     1     0     0
SMALL
USER_CHARGES
****
Generated from the CSD

@<TRIPOS>ATOM
     1 C1     -15.9957 -21.6023  -0.5115   C.3       1 RES1   0.0000
     2 C2     -15.3782 -20.2433  -0.8254   C.3       1 RES1   0.0000
     3 N3     -15.8759 -19.1994   0.0740   N.3       1 RES1   1.0000
     4 C4     -15.6703 -19.8741  -2.2488   C.2       1 RES1   0.0000
     5 N5     -16.3928 -18.8784  -2.5894   N.2       1 RES1   0.0000
     6 C6     -16.4658 -18.8146  -3.9285   C.2       1 RES1   0.0000
     7 C7     -17.2304 -17.7671  -4.6363   C.2       1 RES1   0.0000
     8 O8     -17.6353 -18.0607  -5.7481   O.2       1 RES1   0.0000
     9 N9     -17.5367 -16.5148  -4.1388   N.am      1 RES1   0.0000
    10 C10    -17.3205 -16.0173  -2.7798   C.3       1 RES1   0.0000
    11 C11    -17.9791 -14.7244  -2.7462   C.3       1 RES1   0.0000
    12 C12    -18.5725 -14.4031  -3.9808   C.3       1 RES1   0.0000
    13 C13    -18.3223 -15.5644  -4.9286   C.3       1 RES1   0.0000
    14 C14    -17.5948 -15.1079  -6.1620   C.2       1 RES1   0.0000
    15 O15    -16.3837 -14.9627  -6.1363   O.2       1 RES1   0.0000
    16 N16    -18.2926 -14.9100  -7.2950   N.am      1 RES1   0.0000
    17 C17    -17.6408 -14.5138  -8.5440   C.3       1 RES1   0.0000
    18 C18    -18.5957 -14.7470  -9.7538   C.3       1 RES1   0.0000
    19 C19    -18.9332 -16.2199  -9.9999   C.2       1 RES1   0.0000
    20 C20    -18.0895 -17.1455 -10.4964   C.2       1 RES1   0.0000
    21 N21    -18.7153 -18.3601 -10.5884   N.2       1 RES1   0.0000
    22 C22    -20.0100 -18.2632 -10.1455   C.2       1 RES1   0.0000
    23 C23    -21.0698 -19.1955 -10.0292   C.2       1 RES1   0.0000
    24 C24    -22.3096 -18.7847  -9.5268   C.2       1 RES1   0.0000
    25 C25    -22.5118 -17.4407  -9.1340   C.2       1 RES1   0.0000
    26 C26    -21.4814 -16.5111  -9.2429   C.2       1 RES1   0.0000
    27 C27    -20.2160 -16.9074  -9.7502   C.2       1 RES1   0.0000
    28 C28    -17.2072 -13.0566  -8.4369   C.2       1 RES1   0.0000
    29 O29    -17.8097 -12.2370  -7.5428   O.co2     1 RES1   0.0000
    30 O30    -16.3196 -12.6375  -9.1451   O.co2     1 RES1  -1.0000
    31 C31    -15.7302 -19.8520  -4.4114   C.2       1 RES1   0.0000
    32 O32    -15.2386 -20.5050  -3.3479   O.3       1 RES1   0.0000
@<TRIPOS>BOND
     1     2     1    1
     2     2     3    1
     3     2     4    1
     4     4     5    2
     5     5     6    1
     6     6     7    1
     7     7     8    2
     8     7     9   am
     9     9    10    1
    10    10    11    1
    11    11    12    1
    12    12    13    1
    13    13    14    1
    14    14    15    2
    15    14    16   am
    16    16    17    1
    17    17    18    1
    18    18    19    1
    19    19    20    2
    20    20    21    1
    21    21    22    1
    22    22    23    2
    23    23    24    1
    24    24    25    2
    25    25    26    1
    26    26    27    2
    27    17    28    1
    28    28    29    2
    29    28    30    1
    30     6    31    2
    31    31    32    1
    32    32     4    1
    33    13     9    1
    34    27    19    1
    35    27    22    1
@<TRIPOS>SUBSTRUCTURE
     1 RES1        1 GROUP             0 ****  ****    0  
@<TRIPOS>MOLECULE
ligand_60
    32    35     1     0     0
SMALL
USER_CHARGES
****
Generated from the CSD

@<TRIPOS>ATOM
     1 C1     -15.9957 -21.6023  -0.5115   C.3       1 RES1   0.0000
     2 C2     -15.3782 -20.2433  -0.8254   C.3       1 RES1   0.0000
     3 N3     -15.8759 -19.1994   0.0740   N.3       1 RES1   1.0000
     4 C4     -15.6703 -19.8741  -2.2488   C.2       1 RES1   0.0000
     5 N5     -16.3928 -18.8784  -2.5894   N.2       1 RES1   0.0000
     6 C6     -16.4658 -18.8146  -3.9285   C.2       1 RES1   0.0000
     7 C7     -17.2304 -17.7671  -4.6363   C.2       1 RES1   0.0000
     8 O8     -17.6353 -18.0607  -5.7481   O.2       1 RES1   0.0000
     9 N9     -17.5367 -16.5148  -4.1388   N.am      1 RES1   0.0000
    10 C10    -17.3205 -16.0173  -2.7798   C.3       1 RES1   0.0000
    11 C11    -17.9791 -14.7244  -2.7462   C.3       1 RES1   0.0000
    12 C12    -18.5725 -14.4031  -3.9808   C.3       1 RES1   0.0000
    13 C13    -18.3223 -15.5644  -4.9286   C.3       1 RES1   0.0000
    14 C14    -17.5948 -15.1079  -6.1620   C.2       1 RES1   0.0000
    15 O15    -16.3837 -14.9627  -6.1363   O.2       1 RES1   0.0000
    16 N16    -18.2926 -14.9100  -7.2950   N.am      1 RES1   0.0000
    17 C17    -17.6408 -14.5138  -8.5440   C.3       1 RES1   0.0000
    18 C18    -18.5957 -14.7470  -9.7538   C.3       1 RES1   0.0000
    19 C19    -18.9332 -16.2199  -9.9999   C.2       1 RES1   0.0000
    20 C20    -19.7353 -16.9801  -9.2292   C.2       1 RES1   0.0000
    21 N21    -19.8186 -18.2498  -9.7355   N.2       1 RES1   0.0000
    22 C22    -19.0607 -18.3590 -10.8737   C.2       1 RES1   0.0000
    23 C23    -18.8005 -19.4248 -11.7695   C.2       1 RES1   0.0000
    24 C24    -17.9620 -19.2220 -12.8714   C.2       1 RES1   0.0000
    25 C25    -17.3705 -17.9568 -13.0963   C.2       1 RES1   0.0000
    26 C26    -17.6145 -16.8990 -12.2249   C.2       1 RES1   0.0000
    27 C27    -18.4621 -17.0835 -11.1011   C.2       1 RES1   0.0000
    28 C28    -17.2072 -13.0566  -8.4369   C.2       1 RES1   0.0000
    29 O29    -17.8097 -12.2370  -7.5428   O.co2     1 RES1   0.0000
    30 O30    -16.3196 -12.6375  -9.1451   O.co2     1 RES1  -1.0000
    31 C31    -15.7302 -19.8520  -4.4114   C.2       1 RES1   0.0000
    32 O32    -15.2386 -20.5050  -3.3479   O.3       1 RES1   0.0000
@<TRIPOS>BOND
     1     2     1    1
     2     2     3    1
     3     2     4    1
     4     4     5    2
     5     5     6    1
     6     6     7    1
     7     7     8    2
     8     7     9   am
     9     9    10    1
    10    10    11    1
    11    11    12    1
    12    12    13    1
    13    13    14    1
    14    14    15    2
    15    14    16   am
    16    16    17    1
    17    17    18    1
    18    18    19    1
    19    19    20    2
    20    20    21    1
    21    21    22    1
    22    22    23    2
    23    23    24    1
    24    24    25    2
    25    25    26    1
    26    26    27    2
    27    17    28    1
    28    28    29    2
    29    28    30    1
    30     6    31    2
    31    31    32    1
    32    32     4    1
    33    13     9    1
    34    27    19    1
    35    27    22    1
@<TRIPOS>SUBSTRUCTURE
     1 RES1        1 GROUP             0 ****  ****    0  
@<TRIPOS>MOLECULE
ligand_61
    32    35     1     0     0
SMALL
USER_CHARGES
****
Generated from the CSD

@<TRIPOS>ATOM
     1 C1     -15.9995 -21.6737  -0.5415   C.3       1 RES1   0.0000
     2 C2     -15.3663 -20.3178  -0.8374   C.3       1 RES1   0.0000
     3 N3     -15.8443 -19.2825   0.0825   N.3       1 RES1   1.0000
     4 C4     -15.6631 -19.9215  -2.2524   C.2       1 RES1   0.0000
     5 N5     -14.7641 -19.6362  -3.1126   N.2       1 RES1   0.0000
     6 C6     -15.3456 -19.3210  -4.2810   C.2       1 RES1   0.0000
     7 C7     -14.5705 -18.9443  -5.4812   C.2       1 RES1   0.0000
     8 O8     -15.1040 -19.1700  -6.5539   O.2       1 RES1   0.0000
     9 N9     -13.3242 -18.3473  -5.4838   N.am      1 RES1   0.0000
    10 C10    -12.8555 -17.6748  -4.2616   C.3       1 RES1   0.0000
    11 C11    -11.7078 -16.7966  -4.7106   C.3       1 RES1   0.0000
    12 C12    -11.9592 -16.5830  -6.1829   C.3       1 RES1   0.0000
    13 C13    -12.4992 -17.9355  -6.6244   C.3       1 RES1   0.0000
    14 C14    -11.3809 -18.8808  -6.9628   C.2       1 RES1   0.0000
    15 O15    -10.7993 -19.4800  -6.0733   O.2       1 RES1   0.0000
    16 N16    -11.0689 -19.0859  -8.2553   N.am      1 RES1   0.0000
    17 C17    -10.0272 -20.0318  -8.6575   C.3       1 RES1   0.0000
    18 C18    -10.5889 -21.0513  -9.6943   C.3       1 RES1   0.0000
    19 C19    -11.6795 -21.9669  -9.1323   C.2       1 RES1   0.0000
    20 C20    -13.0035 -21.8289  -9.3402   C.2       1 RES1   0.0000
    21 N21    -13.6934 -22.8178  -8.6911   N.2       1 RES1   0.0000
    22 C22    -12.8251 -23.6477  -8.0285   C.2       1 RES1   0.0000
    23 C23    -13.0045 -24.7980  -7.2218   C.2       1 RES1   0.0000
    24 C24    -11.8928 -25.4451  -6.6710   C.2       1 RES1   0.0000
    25 C25    -10.5878 -24.9563  -6.9146   C.2       1 RES1   0.0000
    26 C26    -10.3936 -23.8263  -7.7040   C.2       1 RES1   0.0000
    27 C27    -11.5080 -23.1549  -8.2722   C.2       1 RES1   0.0000
    28 C28     -8.8392 -19.2550  -9.2128   C.2       1 RES1   0.0000
    29 O29     -9.0152 -17.9968  -9.6820   O.co2     1 RES1   0.0000
    30 O30     -7.7399 -19.7612  -9.2252   O.co2     1 RES1  -1.0000
    31 C31    -16.6884 -19.4292  -4.0929   C.2       1 RES1   0.0000
    32 O32    -16.8708 -19.8064  -2.8187   O.3       1 RES1   0.0000
@<TRIPOS>BOND
     1     2     1    1
     2     2     3    1
     3     2     4    1
     4     4     5    2
     5     5     6    1
     6     6     7    1
     7     7     8    2
     8     7     9   am
     9     9    10    1
    10    10    11    1
    11    11    12    1
    12    12    13    1
    13    13    14    1
    14    14    15    2
    15    14    16   am
    16    16    17    1
    17    17    18    1
    18    18    19    1
    19    19    20    2
    20    20    21    1
    21    21    22    1
    22    22    23    2
    23    23    24    1
    24    24    25    2
    25    25    26    1
    26    26    27    2
    27    17    28    1
    28    28    29    2
    29    28    30    1
    30     6    31    2
    31    31    32    1
    32    32     4    1
    33    13     9    1
    34    27    19    1
    35    27    22    1
@<TRIPOS>SUBSTRUCTURE
     1 RES1        1 GROUP             0 ****  ****    0  
@<TRIPOS>MOLECULE
ligand_62
    32    35     1     0     0
SMALL
USER_CHARGES
****
Generated from the CSD

@<TRIPOS>ATOM
     1 C1     -16.0786 -21.5810  -0.4706   C.3       1 RES1   0.0000
     2 C2     -15.4248 -20.2443  -0.8062   C.3       1 RES1   0.0000
     3 N3     -15.8829 -19.1762   0.0859   N.3       1 RES1   1.0000
     4 C4     -15.7204 -19.8827  -2.2308   C.2       1 RES1   0.0000
     5 N5     -16.4170 -18.8701  -2.5759   N.2       1 RES1   0.0000
     6 C6     -16.5015 -18.8193  -3.9148   C.2       1 RES1   0.0000
     7 C7     -17.2424 -17.7579  -4.6272   C.2       1 RES1   0.0000
     8 O8     -18.0602 -17.1416  -3.9657   O.2       1 RES1   0.0000
     9 N9     -17.0688 -17.4001  -5.9506   N.am      1 RES1   0.0000
    10 C10    -15.8275 -17.7931  -6.6365   C.3       1 RES1   0.0000
    11 C11    -15.7645 -16.9180  -7.8694   C.3       1 RES1   0.0000
    12 C12    -16.6253 -15.7282  -7.5231   C.3       1 RES1   0.0000
    13 C13    -17.7557 -16.3608  -6.7246   C.3       1 RES1   0.0000
    14 C14    -18.8410 -16.8690  -7.6317   C.2       1 RES1   0.0000
    15 O15    -19.6450 -16.0896  -8.1160   O.2       1 RES1   0.0000
    16 N16    -18.8789 -18.1797  -7.9326   N.am      1 RES1   0.0000
    17 C17    -19.8795 -18.7337  -8.8455   C.3       1 RES1   0.0000
    18 C18    -19.4539 -20.1558  -9.3212   C.3       1 RES1   0.0000
    19 C19    -18.1786 -20.1683 -10.1682   C.2       1 RES1   0.0000
    20 C20    -16.9528 -20.5218  -9.7350   C.2       1 RES1   0.0000
    21 N21    -16.0401 -20.4170 -10.7506   N.2       1 RES1   0.0000
    22 C22    -16.6535 -19.9853 -11.8991   C.2       1 RES1   0.0000
    23 C23    -16.1854 -19.7146 -13.2082   C.2       1 RES1   0.0000
    24 C24    -17.0782 -19.2759 -14.1924   C.2       1 RES1   0.0000
    25 C25    -18.4483 -19.0998 -13.8874   C.2       1 RES1   0.0000
    26 C26    -18.9249 -19.3600 -12.6056   C.2       1 RES1   0.0000
    27 C27    -18.0358 -19.8058 -11.5925   C.2       1 RES1   0.0000
    28 C28    -21.2335 -18.7519  -8.1458   C.2       1 RES1   0.0000
    29 O29    -21.2945 -18.7322  -6.7929   O.co2     1 RES1   0.0000
    30 O30    -22.2510 -18.7750  -8.8008   O.co2     1 RES1  -1.0000
    31 C31    -15.8015 -19.8832  -4.3929   C.2       1 RES1   0.0000
    32 O32    -15.3184 -20.5383  -3.3267   O.3       1 RES1   0.0000
@<TRIPOS>BOND
     1     2     1    1
     2     2     3    1
     3     2     4    1
     4     4     5    2
     5     5     6    1
     6     6     7    1
     7     7     8    2
     8     7     9   am
     9     9    10    1
    10    10    11    1
    11    11    12    1
    12    12    13    1
    13    13    14    1
    14    14    15    2
    15    14    16   am
    16    16    17    1
    17    17    18    1
    18    18    19    1
    19    19    20    2
    20    20    21    1
    21    21    22    1
    22    22    23    2
    23    23    24    1
    24    24    25    2
    25    25    26    1
    26    26    27    2
    27    17    28    1
    28    28    29    2
    29    28    30    1
    30     6    31    2
    31    31    32    1
    32    32     4    1
    33    13     9    1
    34    27    19    1
    35    27    22    1
@<TRIPOS>SUBSTRUCTURE
     1 RES1        1 GROUP             0 ****  ****    0  
@<TRIPOS>MOLECULE
ligand_63
    32    35     1     0     0
SMALL
USER_CHARGES
****
Generated from the CSD

@<TRIPOS>ATOM
     1 C1     -16.0171 -21.6165  -0.5154   C.3       1 RES1   0.0000
     2 C2     -15.3970 -20.2577  -0.8254   C.3       1 RES1   0.0000
     3 N3     -15.8965 -19.2146   0.0740   N.3       1 RES1   1.0000
     4 C4     -15.6841 -19.8861  -2.2491   C.2       1 RES1   0.0000
     5 N5     -14.7799 -19.6030  -3.1045   N.2       1 RES1   0.0000
     6 C6     -15.3532 -19.3122  -4.2833   C.2       1 RES1   0.0000
     7 C7     -14.5705 -18.9443  -5.4812   C.2       1 RES1   0.0000
     8 O8     -15.1458 -18.2512  -6.3027   O.2       1 RES1   0.0000
     9 N9     -13.2574 -19.2969  -5.7282   N.am      1 RES1   0.0000
    10 C10    -12.3235 -19.9559  -4.8146   C.3       1 RES1   0.0000
    11 C11    -11.0452 -19.9259  -5.5013   C.3       1 RES1   0.0000
    12 C12    -11.1375 -19.3028  -6.7594   C.3       1 RES1   0.0000
    13 C13    -12.5773 -18.8539  -6.9469   C.3       1 RES1   0.0000
    14 C14    -13.1745 -19.4586  -8.1865   C.2       1 RES1   0.0000
    15 O15    -13.6098 -20.5981  -8.1596   O.2       1 RES1   0.0000
    16 N16    -13.2609 -18.7100  -9.3009   N.am      1 RES1   0.0000
    17 C17    -13.8758 -19.2192 -10.5274   C.3       1 RES1   0.0000
    18 C18    -14.2017 -18.0457 -11.5003   C.3       1 RES1   0.0000
    19 C19    -14.8720 -18.4907 -12.8028   C.2       1 RES1   0.0000
    20 C20    -14.2607 -18.6138 -13.9972   C.2       1 RES1   0.0000
    21 N21    -15.1533 -19.0310 -14.9484   N.2       1 RES1   0.0000
    22 C22    -16.3968 -19.1973 -14.3938   C.2       1 RES1   0.0000
    23 C23    -17.6486 -19.6028 -14.9181   C.2       1 RES1   0.0000
    24 C24    -18.7659 -19.6782 -14.0790   C.2       1 RES1   0.0000
    25 C25    -18.6533 -19.3504 -12.7075   C.2       1 RES1   0.0000
    26 C26    -17.4310 -18.9487 -12.1761   C.2       1 RES1   0.0000
    27 C27    -16.2852 -18.8656 -13.0101   C.2       1 RES1   0.0000
    28 C28    -12.9407 -20.2404 -11.1643   C.2       1 RES1   0.0000
    29 O29    -11.6192 -20.2224 -10.8684   O.co2     1 RES1   0.0000
    30 O30    -13.3827 -21.0704 -11.9263   O.co2     1 RES1  -1.0000
    31 C31    -16.6965 -19.4337  -4.1069   C.2       1 RES1   0.0000
    32 O32    -16.8873 -19.7939  -2.8290   O.3       1 RES1   0.0000
@<TRIPOS>BOND
     1     2     1    1
     2     2     3    1
     3     2     4    1
     4     4     5    2
     5     5     6    1
     6     6     7    1
     7     7     8    2
     8     7     9   am
     9     9    10    1
    10    10    11    1
    11    11    12    1
    12    12    13    1
    13    13    14    1
    14    14    15    2
    15    14    16   am
    16    16    17    1
    17    17    18    1
    18    18    19    1
    19    19    20    2
    20    20    21    1
    21    21    22    1
    22    22    23    2
    23    23    24    1
    24    24    25    2
    25    25    26    1
    26    26    27    2
    27    17    28    1
    28    28    29    2
    29    28    30    1
    30     6    31    2
    31    31    32    1
    32    32     4    1
    33    13     9    1
    34    27    19    1
    35    27    22    1
@<TRIPOS>SUBSTRUCTURE
     1 RES1        1 GROUP             0 ****  ****    0  
@<TRIPOS>MOLECULE
ligand_64
    32    35     1     0     0
SMALL
USER_CHARGES
****
Generated from the CSD

@<TRIPOS>ATOM
     1 C1     -16.0175 -21.6176  -0.5161   C.3       1 RES1   0.0000
     2 C2     -15.3975 -20.2586  -0.8257   C.3       1 RES1   0.0000
     3 N3     -15.8974 -19.2157   0.0738   N.3       1 RES1   1.0000
     4 C4     -15.6845 -19.8868  -2.2494   C.2       1 RES1   0.0000
     5 N5     -14.7802 -19.6034  -3.1046   N.2       1 RES1   0.0000
     6 C6     -15.3533 -19.3126  -4.2835   C.2       1 RES1   0.0000
     7 C7     -14.5705 -18.9443  -5.4812   C.2       1 RES1   0.0000
     8 O8     -15.1457 -18.2509  -6.3026   O.2       1 RES1   0.0000
     9 N9     -13.2574 -19.2969  -5.7282   N.am      1 RES1   0.0000
    10 C10    -12.3235 -19.9559  -4.8146   C.3       1 RES1   0.0000
    11 C11    -11.0452 -19.9259  -5.5013   C.3       1 RES1   0.0000
    12 C12    -11.1375 -19.3028  -6.7594   C.3       1 RES1   0.0000
    13 C13    -12.5773 -18.8539  -6.9469   C.3       1 RES1   0.0000
    14 C14    -13.1745 -19.4586  -8.1865   C.2       1 RES1   0.0000
    15 O15    -13.6098 -20.5981  -8.1596   O.2       1 RES1   0.0000
    16 N16    -13.2609 -18.7100  -9.3009   N.am      1 RES1   0.0000
    17 C17    -13.8758 -19.2192 -10.5274   C.3       1 RES1   0.0000
    18 C18    -14.2017 -18.0457 -11.5003   C.3       1 RES1   0.0000
    19 C19    -14.8654 -18.4915 -12.8059   C.2       1 RES1   0.0000
    20 C20    -16.1822 -18.4180 -13.0814   C.2       1 RES1   0.0000
    21 N21    -16.4341 -18.9033 -14.3370   N.2       1 RES1   0.0000
    22 C22    -15.2680 -19.3148 -14.9309   C.2       1 RES1   0.0000
    23 C23    -14.9680 -19.8820 -16.1936   C.2       1 RES1   0.0000
    24 C24    -13.6453 -20.2029 -16.5186   C.2       1 RES1   0.0000
    25 C25    -12.6035 -19.9646 -15.5917   C.2       1 RES1   0.0000
    26 C26    -12.8810 -19.4091 -14.3458   C.2       1 RES1   0.0000
    27 C27    -14.2161 -19.0763 -13.9963   C.2       1 RES1   0.0000
    28 C28    -12.9407 -20.2404 -11.1643   C.2       1 RES1   0.0000
    29 O29    -11.6168 -20.2127 -10.8802   O.co2     1 RES1   0.0000
    30 O30    -13.3848 -21.0790 -11.9157   O.co2     1 RES1  -1.0000
    31 C31    -16.6966 -19.4343  -4.1074   C.2       1 RES1   0.0000
    32 O32    -16.8876 -19.7947  -2.8295   O.3       1 RES1   0.0000
@<TRIPOS>BOND
     1     2     1    1
     2     2     3    1
     3     2     4    1
     4     4     5    2
     5     5     6    1
     6     6     7    1
     7     7     8    2
     8     7     9   am
     9     9    10    1
    10    10    11    1
    11    11    12    1
    12    12    13    1
    13    13    14    1
    14    14    15    2
    15    14    16   am
    16    16    17    1
    17    17    18    1
    18    18    19    1
    19    19    20    2
    20    20    21    1
    21    21    22    1
    22    22    23    2
    23    23    24    1
    24    24    25    2
    25    25    26    1
    26    26    27    2
    27    17    28    1
    28    28    29    2
    29    28    30    1
    30     6    31    2
    31    31    32    1
    32    32     4    1
    33    13     9    1
    34    27    19    1
    35    27    22    1
@<TRIPOS>SUBSTRUCTURE
     1 RES1        1 GROUP             0 ****  ****    0  
@<TRIPOS>MOLECULE
ligand_65
    32    35     1     0     0
SMALL
USER_CHARGES
****
Generated from the CSD

@<TRIPOS>ATOM
     1 C1     -15.9970 -21.5853  -0.4954   C.3       1 RES1   0.0000
     2 C2     -15.3780 -20.2285  -0.8159   C.3       1 RES1   0.0000
     3 N3     -15.8737 -19.1799   0.0793   N.3       1 RES1   1.0000
     4 C4     -15.6709 -19.8653  -2.2407   C.2       1 RES1   0.0000
     5 N5     -16.3924 -18.8702  -2.5852   N.2       1 RES1   0.0000
     6 C6     -16.4665 -18.8124  -3.9245   C.2       1 RES1   0.0000
     7 C7     -17.2304 -17.7671  -4.6363   C.2       1 RES1   0.0000
     8 O8     -16.8524 -17.5049  -5.7653   O.2       1 RES1   0.0000
     9 N9     -18.3313 -17.0933  -4.1426   N.am      1 RES1   0.0000
    10 C10    -19.0657 -17.3685  -2.9073   C.3       1 RES1   0.0000
    11 C11    -20.2249 -16.4967  -2.9598   C.3       1 RES1   0.0000
    12 C12    -20.2438 -15.7152  -4.1297   C.3       1 RES1   0.0000
    13 C13    -19.0212 -16.0870  -4.9522   C.3       1 RES1   0.0000
    14 C14    -18.1632 -14.8824  -5.2194   C.2       1 RES1   0.0000
    15 O15    -17.3814 -14.4903  -4.3686   O.2       1 RES1   0.0000
    16 N16    -18.2401 -14.2800  -6.4198   N.am      1 RES1   0.0000
    17 C17    -17.3957 -13.1358  -6.7651   C.3       1 RES1   0.0000
    18 C18    -16.6292 -13.4069  -8.0951   C.3       1 RES1   0.0000
    19 C19    -15.7010 -12.2650  -8.5174   C.2       1 RES1   0.0000
    20 C20    -15.9656 -11.3513  -9.4715   C.2       1 RES1   0.0000
    21 N21    -14.9207 -10.4746  -9.5945   N.2       1 RES1   0.0000
    22 C22    -13.9244 -10.7943  -8.7074   C.2       1 RES1   0.0000
    23 C23    -12.6568 -10.2292  -8.4245   C.2       1 RES1   0.0000
    24 C24    -11.8451 -10.7949  -7.4349   C.2       1 RES1   0.0000
    25 C25    -12.2831 -11.9306  -6.7140   C.2       1 RES1   0.0000
    26 C26    -13.5254 -12.4993  -6.9802   C.2       1 RES1   0.0000
    27 C27    -14.3642 -11.9409  -7.9803   C.2       1 RES1   0.0000
    28 C28    -18.2651 -11.8872  -6.8565   C.2       1 RES1   0.0000
    29 O29    -19.5964 -12.0062  -7.0751   O.co2     1 RES1   0.0000
    30 O30    -17.7652 -10.7928  -6.7249   O.co2     1 RES1  -1.0000
    31 C31    -15.7326 -19.8528  -4.4034   C.2       1 RES1   0.0000
    32 O32    -15.2409 -20.5017  -3.3373   O.3       1 RES1   0.0000
@<TRIPOS>BOND
     1     2     1    1
     2     2     3    1
     3     2     4    1
     4     4     5    2
     5     5     6    1
     6     6     7    1
     7     7     8    2
     8     7     9   am
     9     9    10    1
    10    10    11    1
    11    11    12    1
    12    12    13    1
    13    13    14    1
    14    14    15    2
    15    14    16   am
    16    16    17    1
    17    17    18    1
    18    18    19    1
    19    19    20    2
    20    20    21    1
    21    21    22    1
    22    22    23    2
    23    23    24    1
    24    24    25    2
    25    25    26    1
    26    26    27    2
    27    17    28    1
    28    28    29    2
    29    28    30    1
    30     6    31    2
    31    31    32    1
    32    32     4    1
    33    13     9    1
    34    27    19    1
    35    27    22    1
@<TRIPOS>SUBSTRUCTURE
     1 RES1        1 GROUP             0 ****  ****    0  
@<TRIPOS>MOLECULE
ligand_66
    32    35     1     0     0
SMALL
USER_CHARGES
****
Generated from the CSD

@<TRIPOS>ATOM
     1 C1     -15.9935 -21.6023  -0.5121   C.3       1 RES1   0.0000
     2 C2     -15.3766 -20.2430  -0.8260   C.3       1 RES1   0.0000
     3 N3     -15.8747 -19.1994   0.0737   N.3       1 RES1   1.0000
     4 C4     -15.6691 -19.8738  -2.2492   C.2       1 RES1   0.0000
     5 N5     -16.3921 -18.8783  -2.5897   N.2       1 RES1   0.0000
     6 C6     -16.4652 -18.8144  -3.9288   C.2       1 RES1   0.0000
     7 C7     -17.2304 -17.7671  -4.6363   C.2       1 RES1   0.0000
     8 O8     -17.6357 -18.0609  -5.7479   O.2       1 RES1   0.0000
     9 N9     -17.5367 -16.5148  -4.1388   N.am      1 RES1   0.0000
    10 C10    -17.3205 -16.0173  -2.7798   C.3       1 RES1   0.0000
    11 C11    -17.9791 -14.7244  -2.7462   C.3       1 RES1   0.0000
    12 C12    -18.5725 -14.4031  -3.9808   C.3       1 RES1   0.0000
    13 C13    -18.3223 -15.5644  -4.9286   C.3       1 RES1   0.0000
    14 C14    -17.5948 -15.1079  -6.1620   C.2       1 RES1   0.0000
    15 O15    -16.3837 -14.9627  -6.1363   O.2       1 RES1   0.0000
    16 N16    -18.2926 -14.9100  -7.2950   N.am      1 RES1   0.0000
    17 C17    -17.6404 -14.5172  -8.5448   C.3       1 RES1   0.0000
    18 C18    -18.0269 -15.4991  -9.6922   C.3       1 RES1   0.0000
    19 C19    -17.3714 -15.1686 -11.0356   C.2       1 RES1   0.0000
    20 C20    -16.2918 -15.7855 -11.5543   C.2       1 RES1   0.0000
    21 N21    -15.9696 -15.2409 -12.7688   N.2       1 RES1   0.0000
    22 C22    -16.8457 -14.2343 -13.0865   C.2       1 RES1   0.0000
    23 C23    -16.9641 -13.3634 -14.1972   C.2       1 RES1   0.0000
    24 C24    -17.9920 -12.4147 -14.2343   C.2       1 RES1   0.0000
    25 C25    -18.9154 -12.3190 -13.1669   C.2       1 RES1   0.0000
    26 C26    -18.8127 -13.1661 -12.0671   C.2       1 RES1   0.0000
    27 C27    -17.7771 -14.1356 -12.0097   C.2       1 RES1   0.0000
    28 C28    -18.0254 -13.0799  -8.8751   C.2       1 RES1   0.0000
    29 O29    -19.1593 -12.5492  -8.3585   O.co2     1 RES1   0.0000
    30 O30    -17.3126 -12.4136  -9.5912   O.co2     1 RES1  -1.0000
    31 C31    -15.7294 -19.8514  -4.4119   C.2       1 RES1   0.0000
    32 O32    -15.2373 -20.5043  -3.3485   O.3       1 RES1   0.0000
@<TRIPOS>BOND
     1     2     1    1
     2     2     3    1
     3     2     4    1
     4     4     5    2
     5     5     6    1
     6     6     7    1
     7     7     8    2
     8     7     9   am
     9     9    10    1
    10    10    11    1
    11    11    12    1
    12    12    13    1
    13    13    14    1
    14    14    15    2
    15    14    16   am
    16    16    17    1
    17    17    18    1
    18    18    19    1
    19    19    20    2
    20    20    21    1
    21    21    22    1
    22    22    23    2
    23    23    24    1
    24    24    25    2
    25    25    26    1
    26    26    27    2
    27    17    28    1
    28    28    29    2
    29    28    30    1
    30     6    31    2
    31    31    32    1
    32    32     4    1
    33    13     9    1
    34    27    19    1
    35    27    22    1
@<TRIPOS>SUBSTRUCTURE
     1 RES1        1 GROUP             0 ****  ****    0  
@<TRIPOS>MOLECULE
ligand_67
    32    35     1     0     0
SMALL
USER_CHARGES
****
Generated from the CSD

@<TRIPOS>ATOM
     1 C1     -15.9937 -21.6031  -0.5129   C.3       1 RES1   0.0000
     2 C2     -15.3771 -20.2435  -0.8261   C.3       1 RES1   0.0000
     3 N3     -15.8758 -19.2003   0.0737   N.3       1 RES1   1.0000
     4 C4     -15.6692 -19.8740  -2.2493   C.2       1 RES1   0.0000
     5 N5     -16.3924 -18.8786  -2.5897   N.2       1 RES1   0.0000
     6 C6     -16.4651 -18.8144  -3.9288   C.2       1 RES1   0.0000
     7 C7     -17.2304 -17.7671  -4.6363   C.2       1 RES1   0.0000
     8 O8     -17.6358 -18.0610  -5.7479   O.2       1 RES1   0.0000
     9 N9     -17.5367 -16.5148  -4.1388   N.am      1 RES1   0.0000
    10 C10    -17.3972 -15.9415  -2.8005   C.3       1 RES1   0.0000
    11 C11    -18.7092 -15.1942  -2.6287   C.3       1 RES1   0.0000
    12 C12    -18.9487 -14.5963  -4.0136   C.3       1 RES1   0.0000
    13 C13    -18.3313 -15.6111  -4.9903   C.3       1 RES1   0.0000
    14 C14    -17.5415 -14.8928  -6.0481   C.2       1 RES1   0.0000
    15 O15    -16.3960 -14.5405  -5.8192   O.2       1 RES1   0.0000
    16 N16    -18.1009 -14.6898  -7.2546   N.am      1 RES1   0.0000
    17 C17    -17.3597 -14.0732  -8.3555   C.3       1 RES1   0.0000
    18 C18    -16.4994 -15.1407  -9.0975   C.3       1 RES1   0.0000
    19 C19    -15.3770 -15.7335  -8.2418   C.2       1 RES1   0.0000
    20 C20    -15.4024 -16.9388  -7.6403   C.2       1 RES1   0.0000
    21 N21    -14.2368 -17.1535  -6.9541   N.2       1 RES1   0.0000
    22 C22    -13.3990 -16.0759  -7.0902   C.2       1 RES1   0.0000
    23 C23    -12.1035 -15.7837  -6.5978   C.2       1 RES1   0.0000
    24 C24    -11.4925 -14.5663  -6.9187   C.2       1 RES1   0.0000
    25 C25    -12.1623 -13.6232  -7.7330   C.2       1 RES1   0.0000
    26 C26    -13.4363 -13.8937  -8.2242   C.2       1 RES1   0.0000
    27 C27    -14.0740 -15.1227  -7.9104   C.2       1 RES1   0.0000
    28 C28    -18.3451 -13.3871  -9.2943   C.2       1 RES1   0.0000
    29 O29    -19.6438 -13.7711  -9.3075   O.co2     1 RES1   0.0000
    30 O30    -17.9665 -12.4951 -10.0194   O.co2     1 RES1  -1.0000
    31 C31    -15.7287 -19.8510  -4.4120   C.2       1 RES1   0.0000
    32 O32    -15.2368 -20.5041  -3.3486   O.3       1 RES1   0.0000
@<TRIPOS>BOND
     1     2     1    1
     2     2     3    1
     3     2     4    1
     4     4     5    2
     5     5     6    1
     6     6     7    1
     7     7     8    2
     8     7     9   am
     9     9    10    1
    10    10    11    1
    11    11    12    1
    12    12    13    1
    13    13    14    1
    14    14    15    2
    15    14    16   am
    16    16    17    1
    17    17    18    1
    18    18    19    1
    19    19    20    2
    20    20    21    1
    21    21    22    1
    22    22    23    2
    23    23    24    1
    24    24    25    2
    25    25    26    1
    26    26    27    2
    27    17    28    1
    28    28    29    2
    29    28    30    1
    30     6    31    2
    31    31    32    1
    32    32     4    1
    33    13     9    1
    34    27    19    1
    35    27    22    1
@<TRIPOS>SUBSTRUCTURE
     1 RES1        1 GROUP             0 ****  ****    0  
@<TRIPOS>MOLECULE
ligand_68
    32    35     1     0     0
SMALL
USER_CHARGES
****
Generated from the CSD

@<TRIPOS>ATOM
     1 C1     -16.0260 -21.5888  -0.5032   C.3       1 RES1   0.0000
     2 C2     -15.3977 -20.2351  -0.8192   C.3       1 RES1   0.0000
     3 N3     -15.8891 -19.1855   0.0772   N.3       1 RES1   1.0000
     4 C4     -15.6848 -19.8670  -2.2438   C.2       1 RES1   0.0000
     5 N5     -14.7802 -19.5928  -3.1017   N.2       1 RES1   0.0000
     6 C6     -15.3535 -19.3028  -4.2807   C.2       1 RES1   0.0000
     7 C7     -14.5705 -18.9443  -5.4812   C.2       1 RES1   0.0000
     8 O8     -13.4206 -18.5912  -5.2829   O.2       1 RES1   0.0000
     9 N9     -15.0218 -18.9986  -6.7862   N.am      1 RES1   0.0000
    10 C10    -16.2824 -19.5610  -7.2717   C.3       1 RES1   0.0000
    11 C11    -16.1743 -19.5261  -8.7186   C.3       1 RES1   0.0000
    12 C12    -14.9474 -18.9831  -9.1424   C.3       1 RES1   0.0000
    13 C13    -14.1435 -18.6358  -7.9003   C.3       1 RES1   0.0000
    14 C14    -13.7744 -17.1790  -7.8857   C.2       1 RES1   0.0000
    15 O15    -14.5839 -16.3491  -7.5052   O.2       1 RES1   0.0000
    16 N16    -12.5316 -16.8173  -8.2523   N.am      1 RES1   0.0000
    17 C17    -12.0894 -15.4229  -8.2111   C.3       1 RES1   0.0000
    18 C18    -10.7766 -15.2927  -7.3807   C.3       1 RES1   0.0000
    19 C19    -10.9456 -15.6385  -5.8990   C.2       1 RES1   0.0000
    20 C20    -10.5759 -16.7958  -5.3166   C.2       1 RES1   0.0000
    21 N21    -10.8731 -16.7727  -3.9799   N.2       1 RES1   0.0000
    22 C22    -11.4554 -15.5774  -3.6425   C.2       1 RES1   0.0000
    23 C23    -11.9454 -15.0444  -2.4251   C.2       1 RES1   0.0000
    24 C24    -12.4983 -13.7592  -2.3977   C.2       1 RES1   0.0000
    25 C25    -12.5719 -12.9874  -3.5810   C.2       1 RES1   0.0000
    26 C26    -12.0963 -13.4964  -4.7862   C.2       1 RES1   0.0000
    27 C27    -11.5317 -14.7981  -4.8357   C.2       1 RES1   0.0000
    28 C28    -11.9102 -14.9169  -9.6377   C.2       1 RES1   0.0000
    29 O29    -11.7155 -15.7986 -10.6471   O.co2     1 RES1   0.0000
    30 O30    -11.9509 -13.7290  -9.8661   O.co2     1 RES1  -1.0000
    31 C31    -16.6973 -19.4150  -4.1017   C.2       1 RES1   0.0000
    32 O32    -16.8883 -19.7693  -2.8221   O.3       1 RES1   0.0000
@<TRIPOS>BOND
     1     2     1    1
     2     2     3    1
     3     2     4    1
     4     4     5    2
     5     5     6    1
     6     6     7    1
     7     7     8    2
     8     7     9   am
     9     9    10    1
    10    10    11    1
    11    11    12    1
    12    12    13    1
    13    13    14    1
    14    14    15    2
    15    14    16   am
    16    16    17    1
    17    17    18    1
    18    18    19    1
    19    19    20    2
    20    20    21    1
    21    21    22    1
    22    22    23    2
    23    23    24    1
    24    24    25    2
    25    25    26    1
    26    26    27    2
    27    17    28    1
    28    28    29    2
    29    28    30    1
    30     6    31    2
    31    31    32    1
    32    32     4    1
    33    13     9    1
    34    27    19    1
    35    27    22    1
@<TRIPOS>SUBSTRUCTURE
     1 RES1        1 GROUP             0 ****  ****    0  
@<TRIPOS>MOLECULE
ligand_69
    32    35     1     0     0
SMALL
USER_CHARGES
****
Generated from the CSD

@<TRIPOS>ATOM
     1 C1     -16.0393 -21.6091  -0.5050   C.3       1 RES1   0.0000
     2 C2     -15.3927 -20.2673  -0.8341   C.3       1 RES1   0.0000
     3 N3     -15.8538 -19.2067   0.0653   N.3       1 RES1   1.0000
     4 C4     -15.6931 -19.8988  -2.2559   C.2       1 RES1   0.0000
     5 N5     -16.3952 -18.8875  -2.5934   N.2       1 RES1   0.0000
     6 C6     -16.4830 -18.8292  -3.9319   C.2       1 RES1   0.0000
     7 C7     -17.2304 -17.7671  -4.6363   C.2       1 RES1   0.0000
     8 O8     -18.0492 -17.1581  -3.9693   O.2       1 RES1   0.0000
     9 N9     -17.0620 -17.4012  -5.9582   N.am      1 RES1   0.0000
    10 C10    -15.8206 -17.7846  -6.6494   C.3       1 RES1   0.0000
    11 C11    -15.7649 -16.9023  -7.8776   C.3       1 RES1   0.0000
    12 C12    -16.6303 -15.7185  -7.5225   C.3       1 RES1   0.0000
    13 C13    -17.7557 -16.3608  -6.7246   C.3       1 RES1   0.0000
    14 C14    -18.8410 -16.8690  -7.6317   C.2       1 RES1   0.0000
    15 O15    -18.7137 -17.9465  -8.1898   O.2       1 RES1   0.0000
    16 N16    -19.9632 -16.1415  -7.7774   N.am      1 RES1   0.0000
    17 C17    -21.0791 -16.6008  -8.6052   C.3       1 RES1   0.0000
    18 C18    -22.3732 -15.8004  -8.2667   C.3       1 RES1   0.0000
    19 C19    -22.8999 -16.0471  -6.8506   C.2       1 RES1   0.0000
    20 C20    -23.8909 -16.8978  -6.5195   C.2       1 RES1   0.0000
    21 N21    -24.1095 -16.8716  -5.1679   N.2       1 RES1   0.0000
    22 C22    -23.2514 -15.9881  -4.5640   C.2       1 RES1   0.0000
    23 C23    -23.0577 -15.5859  -3.2198   C.2       1 RES1   0.0000
    24 C24    -22.0753 -14.6392  -2.9086   C.2       1 RES1   0.0000
    25 C25    -21.2730 -14.0793  -3.9304   C.2       1 RES1   0.0000
    26 C26    -21.4511 -14.4622  -5.2569   C.2       1 RES1   0.0000
    27 C27    -22.4422 -15.4211  -5.5939   C.2       1 RES1   0.0000
    28 C28    -20.6962 -16.4643 -10.0742   C.2       1 RES1   0.0000
    29 O29    -19.7188 -15.6010 -10.4396   O.co2     1 RES1   0.0000
    30 O30    -21.2606 -17.1340 -10.9096   O.co2     1 RES1  -1.0000
    31 C31    -15.7789 -19.8869  -4.4178   C.2       1 RES1   0.0000
    32 O32    -15.2904 -20.5460  -3.3565   O.3       1 RES1   0.0000
@<TRIPOS>BOND
     1     2     1    1
     2     2     3    1
     3     2     4    1
     4     4     5    2
     5     5     6    1
     6     6     7    1
     7     7     8    2
     8     7     9   am
     9     9    10    1
    10    10    11    1
    11    11    12    1
    12    12    13    1
    13    13    14    1
    14    14    15    2
    15    14    16   am
    16    16    17    1
    17    17    18    1
    18    18    19    1
    19    19    20    2
    20    20    21    1
    21    21    22    1
    22    22    23    2
    23    23    24    1
    24    24    25    2
    25    25    26    1
    26    26    27    2
    27    17    28    1
    28    28    29    2
    29    28    30    1
    30     6    31    2
    31    31    32    1
    32    32     4    1
    33    13     9    1
    34    27    19    1
    35    27    22    1
@<TRIPOS>SUBSTRUCTURE
     1 RES1        1 GROUP             0 ****  ****    0  
@<TRIPOS>MOLECULE
ligand_70
    32    35     1     0     0
SMALL
USER_CHARGES
****
Generated from the CSD

@<TRIPOS>ATOM
     1 C1     -16.0379 -21.6077  -0.5041   C.3       1 RES1   0.0000
     2 C2     -15.3913 -20.2660  -0.8339   C.3       1 RES1   0.0000
     3 N3     -15.8520 -19.2051   0.0653   N.3       1 RES1   1.0000
     4 C4     -15.6923 -19.8980  -2.2557   C.2       1 RES1   0.0000
     5 N5     -16.3945 -18.8868  -2.5933   N.2       1 RES1   0.0000
     6 C6     -16.4827 -18.8290  -3.9318   C.2       1 RES1   0.0000
     7 C7     -17.2304 -17.7671  -4.6363   C.2       1 RES1   0.0000
     8 O8     -18.0494 -17.1583  -3.9694   O.2       1 RES1   0.0000
     9 N9     -17.0620 -17.4012  -5.9582   N.am      1 RES1   0.0000
    10 C10    -15.8206 -17.7846  -6.6494   C.3       1 RES1   0.0000
    11 C11    -15.7649 -16.9023  -7.8776   C.3       1 RES1   0.0000
    12 C12    -16.6303 -15.7185  -7.5225   C.3       1 RES1   0.0000
    13 C13    -17.7557 -16.3608  -6.7246   C.3       1 RES1   0.0000
    14 C14    -18.8410 -16.8690  -7.6317   C.2       1 RES1   0.0000
    15 O15    -18.7137 -17.9465  -8.1898   O.2       1 RES1   0.0000
    16 N16    -19.9632 -16.1415  -7.7774   N.am      1 RES1   0.0000
    17 C17    -21.0791 -16.6008  -8.6052   C.3       1 RES1   0.0000
    18 C18    -22.3689 -15.7885  -8.2791   C.3       1 RES1   0.0000
    19 C19    -22.8915 -16.0034  -6.8562   C.2       1 RES1   0.0000
    20 C20    -22.7292 -15.1526  -5.8242   C.2       1 RES1   0.0000
    21 N21    -23.3202 -15.6547  -4.6954   N.2       1 RES1   0.0000
    22 C22    -23.8981 -16.8700  -4.9612   C.2       1 RES1   0.0000
    23 C23    -24.6204 -17.7966  -4.1700   C.2       1 RES1   0.0000
    24 C24    -25.0962 -18.9818  -4.7419   C.2       1 RES1   0.0000
    25 C25    -24.8591 -19.2616  -6.1082   C.2       1 RES1   0.0000
    26 C26    -24.1499 -18.3626  -6.8998   C.2       1 RES1   0.0000
    27 C27    -23.6585 -17.1544  -6.3391   C.2       1 RES1   0.0000
    28 C28    -20.6898 -16.4805 -10.0739   C.2       1 RES1   0.0000
    29 O29    -19.7051 -15.6272 -10.4435   O.co2     1 RES1   0.0000
    30 O30    -21.2556 -17.1540 -10.9053   O.co2     1 RES1  -1.0000
    31 C31    -15.7789 -19.8868  -4.4176   C.2       1 RES1   0.0000
    32 O32    -15.2900 -20.5456  -3.3563   O.3       1 RES1   0.0000
@<TRIPOS>BOND
     1     2     1    1
     2     2     3    1
     3     2     4    1
     4     4     5    2
     5     5     6    1
     6     6     7    1
     7     7     8    2
     8     7     9   am
     9     9    10    1
    10    10    11    1
    11    11    12    1
    12    12    13    1
    13    13    14    1
    14    14    15    2
    15    14    16   am
    16    16    17    1
    17    17    18    1
    18    18    19    1
    19    19    20    2
    20    20    21    1
    21    21    22    1
    22    22    23    2
    23    23    24    1
    24    24    25    2
    25    25    26    1
    26    26    27    2
    27    17    28    1
    28    28    29    2
    29    28    30    1
    30     6    31    2
    31    31    32    1
    32    32     4    1
    33    13     9    1
    34    27    19    1
    35    27    22    1
@<TRIPOS>SUBSTRUCTURE
     1 RES1        1 GROUP             0 ****  ****    0  
@<TRIPOS>MOLECULE
ligand_71
    32    35     1     0     0
SMALL
USER_CHARGES
****
Generated from the CSD

@<TRIPOS>ATOM
     1 C1     -15.9495 -21.5809  -0.5406   C.3       1 RES1   0.0000
     2 C2     -15.3239 -20.2295  -0.8713   C.3       1 RES1   0.0000
     3 N3     -15.8057 -19.1741   0.0234   N.3       1 RES1   1.0000
     4 C4     -15.6253 -19.8701  -2.2952   C.2       1 RES1   0.0000
     5 N5     -16.4282 -20.5280  -3.0382   N.2       1 RES1   0.0000
     6 C6     -16.4829 -19.9591  -4.2531   C.2       1 RES1   0.0000
     7 C7     -17.3290 -20.4870  -5.3433   C.2       1 RES1   0.0000
     8 O8     -16.9573 -20.2362  -6.4769   O.2       1 RES1   0.0000
     9 N9     -18.4722 -21.2467  -5.1833   N.am      1 RES1   0.0000
    10 C10    -18.9966 -21.8195  -3.9431   C.3       1 RES1   0.0000
    11 C11    -20.1007 -22.6645  -4.3594   C.3       1 RES1   0.0000
    12 C12    -20.2841 -22.6425  -5.7543   C.3       1 RES1   0.0000
    13 C13    -19.2196 -21.7328  -6.3449   C.3       1 RES1   0.0000
    14 C14    -19.8416 -20.6142  -7.1328   C.2       1 RES1   0.0000
    15 O15    -20.2599 -20.8221  -8.2600   O.2       1 RES1   0.0000
    16 N16    -19.9686 -19.4042  -6.5589   N.am      1 RES1   0.0000
    17 C17    -20.6352 -18.2930  -7.2391   C.3       1 RES1   0.0000
    18 C18    -22.1791 -18.3833  -7.0441   C.3       1 RES1   0.0000
    19 C19    -22.8163 -19.6036  -7.7140   C.2       1 RES1   0.0000
    20 C20    -23.2011 -20.7316  -7.0857   C.2       1 RES1   0.0000
    21 N21    -23.7306 -21.6200  -7.9833   N.2       1 RES1   0.0000
    22 C22    -23.7084 -21.0891  -9.2480   C.2       1 RES1   0.0000
    23 C23    -24.1229 -21.5734 -10.5128   C.2       1 RES1   0.0000
    24 C24    -23.9663 -20.7755 -11.6517   C.2       1 RES1   0.0000
    25 C25    -23.3948 -19.4856 -11.5478   C.2       1 RES1   0.0000
    26 C26    -22.9808 -18.9947 -10.3127   C.2       1 RES1   0.0000
    27 C27    -23.1306 -19.7881  -9.1450   C.2       1 RES1   0.0000
    28 C28    -20.0731 -16.9786  -6.7103   C.2       1 RES1   0.0000
    29 O29    -19.4705 -16.9413  -5.4980   O.co2     1 RES1   0.0000
    30 O30    -20.1589 -15.9733  -7.3788   O.co2     1 RES1  -1.0000
    31 C31    -15.6486 -18.8852  -4.2215   C.2       1 RES1   0.0000
    32 O32    -15.1201 -18.8429  -2.9894   O.3       1 RES1   0.0000
@<TRIPOS>BOND
     1     2     1    1
     2     2     3    1
     3     2     4    1
     4     4     5    2
     5     5     6    1
     6     6     7    1
     7     7     8    2
     8     7     9   am
     9     9    10    1
    10    10    11    1
    11    11    12    1
    12    12    13    1
    13    13    14    1
    14    14    15    2
    15    14    16   am
    16    16    17    1
    17    17    18    1
    18    18    19    1
    19    19    20    2
    20    20    21    1
    21    21    22    1
    22    22    23    2
    23    23    24    1
    24    24    25    2
    25    25    26    1
    26    26    27    2
    27    17    28    1
    28    28    29    2
    29    28    30    1
    30     6    31    2
    31    31    32    1
    32    32     4    1
    33    13     9    1
    34    27    19    1
    35    27    22    1
@<TRIPOS>SUBSTRUCTURE
     1 RES1        1 GROUP             0 ****  ****    0  
@<TRIPOS>MOLECULE
ligand_72
    32    35     1     0     0
SMALL
USER_CHARGES
****
Generated from the CSD

@<TRIPOS>ATOM
     1 C1     -16.0046 -21.5064  -0.4349   C.3       1 RES1   0.0000
     2 C2     -15.3844 -20.1530  -0.7676   C.3       1 RES1   0.0000
     3 N3     -15.8834 -19.0950   0.1145   N.3       1 RES1   1.0000
     4 C4     -15.6722 -19.8051  -2.1972   C.2       1 RES1   0.0000
     5 N5     -16.3924 -18.8137  -2.5549   N.2       1 RES1   0.0000
     6 C6     -16.4616 -18.7702  -3.8950   C.2       1 RES1   0.0000
     7 C7     -17.2230 -17.7325  -4.6207   C.2       1 RES1   0.0000
     8 O8     -17.6002 -16.7834  -3.9550   O.2       1 RES1   0.0000
     9 N9     -17.5154 -17.7411  -5.9712   N.am      1 RES1   0.0000
    10 C10    -17.0134 -18.6669  -6.9871   C.3       1 RES1   0.0000
    11 C11    -17.4810 -18.1254  -8.2498   C.3       1 RES1   0.0000
    12 C12    -18.2287 -16.9467  -8.0730   C.3       1 RES1   0.0000
    13 C13    -18.2642 -16.6423  -6.5846   C.3       1 RES1   0.0000
    14 C14    -19.6787 -16.5648  -6.0827   C.2       1 RES1   0.0000
    15 O15    -20.3419 -15.5602  -6.2820   O.2       1 RES1   0.0000
    16 N16    -20.2082 -17.6316  -5.4570   N.am      1 RES1   0.0000
    17 C17    -21.5921 -17.6396  -4.9815   C.3       1 RES1   0.0000
    18 C18    -22.0533 -19.0965  -4.6738   C.3       1 RES1   0.0000
    19 C19    -21.2776 -19.7628  -3.5345   C.2       1 RES1   0.0000
    20 C20    -20.2907 -20.6681  -3.6819   C.2       1 RES1   0.0000
    21 N21    -19.8160 -21.0588  -2.4582   N.2       1 RES1   0.0000
    22 C22    -20.4898 -20.4078  -1.4563   C.2       1 RES1   0.0000
    23 C23    -20.3998 -20.4415  -0.0431   C.2       1 RES1   0.0000
    24 C24    -21.2464 -19.6392   0.7300   C.2       1 RES1   0.0000
    25 C25    -22.1944 -18.7933   0.1078   C.2       1 RES1   0.0000
    26 C26    -22.2972 -18.7490  -1.2797   C.2       1 RES1   0.0000
    27 C27    -21.4478 -19.5550  -2.0824   C.2       1 RES1   0.0000
    28 C28    -21.7008 -16.7400  -3.7559   C.2       1 RES1   0.0000
    29 O29    -20.5956 -16.4571  -3.0261   O.co2     1 RES1   0.0000
    30 O30    -22.7730 -16.2737  -3.4428   O.co2     1 RES1  -1.0000
    31 C31    -15.7261 -19.8156  -4.3601   C.2       1 RES1   0.0000
    32 O32    -15.2383 -20.4531  -3.2854   O.3       1 RES1   0.0000
@<TRIPOS>BOND
     1     2     1    1
     2     2     3    1
     3     2     4    1
     4     4     5    2
     5     5     6    1
     6     6     7    1
     7     7     8    2
     8     7     9   am
     9     9    10    1
    10    10    11    1
    11    11    12    1
    12    12    13    1
    13    13    14    1
    14    14    15    2
    15    14    16   am
    16    16    17    1
    17    17    18    1
    18    18    19    1
    19    19    20    2
    20    20    21    1
    21    21    22    1
    22    22    23    2
    23    23    24    1
    24    24    25    2
    25    25    26    1
    26    26    27    2
    27    17    28    1
    28    28    29    2
    29    28    30    1
    30     6    31    2
    31    31    32    1
    32    32     4    1
    33    13     9    1
    34    27    19    1
    35    27    22    1
@<TRIPOS>SUBSTRUCTURE
     1 RES1        1 GROUP             0 ****  ****    0  
@<TRIPOS>MOLECULE
ligand_73
    32    35     1     0     0
SMALL
USER_CHARGES
****
Generated from the CSD

@<TRIPOS>ATOM
     1 C1     -16.0046 -21.5064  -0.4349   C.3       1 RES1   0.0000
     2 C2     -15.3844 -20.1530  -0.7676   C.3       1 RES1   0.0000
     3 N3     -15.8834 -19.0950   0.1145   N.3       1 RES1   1.0000
     4 C4     -15.6722 -19.8051  -2.1972   C.2       1 RES1   0.0000
     5 N5     -16.3924 -18.8137  -2.5549   N.2       1 RES1   0.0000
     6 C6     -16.4616 -18.7702  -3.8950   C.2       1 RES1   0.0000
     7 C7     -17.2230 -17.7325  -4.6207   C.2       1 RES1   0.0000
     8 O8     -17.6002 -16.7834  -3.9550   O.2       1 RES1   0.0000
     9 N9     -17.5154 -17.7411  -5.9712   N.am      1 RES1   0.0000
    10 C10    -17.0134 -18.6669  -6.9871   C.3       1 RES1   0.0000
    11 C11    -17.4810 -18.1254  -8.2498   C.3       1 RES1   0.0000
    12 C12    -18.2287 -16.9467  -8.0730   C.3       1 RES1   0.0000
    13 C13    -18.2642 -16.6423  -6.5846   C.3       1 RES1   0.0000
    14 C14    -19.6787 -16.5648  -6.0827   C.2       1 RES1   0.0000
    15 O15    -20.3419 -15.5602  -6.2820   O.2       1 RES1   0.0000
    16 N16    -20.2082 -17.6316  -5.4570   N.am      1 RES1   0.0000
    17 C17    -21.5921 -17.6396  -4.9815   C.3       1 RES1   0.0000
    18 C18    -22.0533 -19.0965  -4.6738   C.3       1 RES1   0.0000
    19 C19    -23.5030 -19.1972  -4.1921   C.2       1 RES1   0.0000
    20 C20    -23.8949 -19.3650  -2.9141   C.2       1 RES1   0.0000
    21 N21    -25.2614 -19.4152  -2.8375   N.2       1 RES1   0.0000
    22 C22    -25.8134 -19.2779  -4.0857   C.2       1 RES1   0.0000
    23 C23    -27.1471 -19.2598  -4.5620   C.2       1 RES1   0.0000
    24 C24    -27.3985 -19.0978  -5.9291   C.2       1 RES1   0.0000
    25 C25    -26.3265 -18.9525  -6.8406   C.2       1 RES1   0.0000
    26 C26    -25.0096 -18.9694  -6.3897   C.2       1 RES1   0.0000
    27 C27    -24.7329 -19.1326  -5.0068   C.2       1 RES1   0.0000
    28 C28    -21.7008 -16.7400  -3.7559   C.2       1 RES1   0.0000
    29 O29    -20.5956 -16.4571  -3.0261   O.co2     1 RES1   0.0000
    30 O30    -22.7730 -16.2737  -3.4428   O.co2     1 RES1  -1.0000
    31 C31    -15.7261 -19.8156  -4.3601   C.2       1 RES1   0.0000
    32 O32    -15.2383 -20.4531  -3.2854   O.3       1 RES1   0.0000
@<TRIPOS>BOND
     1     2     1    1
     2     2     3    1
     3     2     4    1
     4     4     5    2
     5     5     6    1
     6     6     7    1
     7     7     8    2
     8     7     9   am
     9     9    10    1
    10    10    11    1
    11    11    12    1
    12    12    13    1
    13    13    14    1
    14    14    15    2
    15    14    16   am
    16    16    17    1
    17    17    18    1
    18    18    19    1
    19    19    20    2
    20    20    21    1
    21    21    22    1
    22    22    23    2
    23    23    24    1
    24    24    25    2
    25    25    26    1
    26    26    27    2
    27    17    28    1
    28    28    29    2
    29    28    30    1
    30     6    31    2
    31    31    32    1
    32    32     4    1
    33    13     9    1
    34    27    19    1
    35    27    22    1
@<TRIPOS>SUBSTRUCTURE
     1 RES1        1 GROUP             0 ****  ****    0  
@<TRIPOS>MOLECULE
ligand_74
    32    35     1     0     0
SMALL
USER_CHARGES
****
Generated from the CSD

@<TRIPOS>ATOM
     1 C1     -16.0077 -21.5076  -0.4350   C.3       1 RES1   0.0000
     2 C2     -15.3868 -20.1544  -0.7674   C.3       1 RES1   0.0000
     3 N3     -15.8855 -19.0963   0.1147   N.3       1 RES1   1.0000
     4 C4     -15.6739 -19.8062  -2.1970   C.2       1 RES1   0.0000
     5 N5     -16.3936 -18.8145  -2.5548   N.2       1 RES1   0.0000
     6 C6     -16.4624 -18.7707  -3.8949   C.2       1 RES1   0.0000
     7 C7     -17.2230 -17.7326  -4.6207   C.2       1 RES1   0.0000
     8 O8     -17.5995 -16.7832  -3.9551   O.2       1 RES1   0.0000
     9 N9     -17.5155 -17.7411  -5.9713   N.am      1 RES1   0.0000
    10 C10    -17.0134 -18.6669  -6.9871   C.3       1 RES1   0.0000
    11 C11    -17.4810 -18.1254  -8.2499   C.3       1 RES1   0.0000
    12 C12    -18.2287 -16.9466  -8.0730   C.3       1 RES1   0.0000
    13 C13    -18.2642 -16.6423  -6.5846   C.3       1 RES1   0.0000
    14 C14    -19.6787 -16.5648  -6.0827   C.2       1 RES1   0.0000
    15 O15    -20.3419 -15.5602  -6.2820   O.2       1 RES1   0.0000
    16 N16    -20.2082 -17.6316  -5.4570   N.am      1 RES1   0.0000
    17 C17    -21.5921 -17.6396  -4.9814   C.3       1 RES1   0.0000
    18 C18    -22.0533 -19.0965  -4.6737   C.3       1 RES1   0.0000
    19 C19    -23.5007 -19.1964  -4.1851   C.2       1 RES1   0.0000
    20 C20    -24.5590 -19.5579  -4.9364   C.2       1 RES1   0.0000
    21 N21    -25.7043 -19.5407  -4.1858   N.2       1 RES1   0.0000
    22 C22    -25.4235 -19.1619  -2.8977   C.2       1 RES1   0.0000
    23 C23    -26.2213 -18.9841  -1.7410   C.2       1 RES1   0.0000
    24 C24    -25.6290 -18.5804  -0.5392   C.2       1 RES1   0.0000
    25 C25    -24.2353 -18.3473  -0.4721   C.2       1 RES1   0.0000
    26 C26    -23.4367 -18.5158  -1.5998   C.2       1 RES1   0.0000
    27 C27    -24.0178 -18.9249  -2.8288   C.2       1 RES1   0.0000
    28 C28    -21.7007 -16.7400  -3.7558   C.2       1 RES1   0.0000
    29 O29    -20.5982 -16.4694  -3.0172   O.co2     1 RES1   0.0000
    30 O30    -22.7702 -16.2627  -3.4505   O.co2     1 RES1  -1.0000
    31 C31    -15.7272 -19.8165  -4.3599   C.2       1 RES1   0.0000
    32 O32    -15.2400 -20.4542  -3.2852   O.3       1 RES1   0.0000
@<TRIPOS>BOND
     1     2     1    1
     2     2     3    1
     3     2     4    1
     4     4     5    2
     5     5     6    1
     6     6     7    1
     7     7     8    2
     8     7     9   am
     9     9    10    1
    10    10    11    1
    11    11    12    1
    12    12    13    1
    13    13    14    1
    14    14    15    2
    15    14    16   am
    16    16    17    1
    17    17    18    1
    18    18    19    1
    19    19    20    2
    20    20    21    1
    21    21    22    1
    22    22    23    2
    23    23    24    1
    24    24    25    2
    25    25    26    1
    26    26    27    2
    27    17    28    1
    28    28    29    2
    29    28    30    1
    30     6    31    2
    31    31    32    1
    32    32     4    1
    33    13     9    1
    34    27    19    1
    35    27    22    1
@<TRIPOS>SUBSTRUCTURE
     1 RES1        1 GROUP             0 ****  ****    0  
@<TRIPOS>MOLECULE
ligand_75
    32    35     1     0     0
SMALL
USER_CHARGES
****
Generated from the CSD

@<TRIPOS>ATOM
     1 C1     -16.1082 -21.5256  -0.4782   C.3       1 RES1   0.0000
     2 C2     -15.4686 -20.1796  -0.8039   C.3       1 RES1   0.0000
     3 N3     -15.9699 -19.1145   0.0684   N.3       1 RES1   1.0000
     4 C4     -15.7304 -19.8316  -2.2384   C.2       1 RES1   0.0000
     5 N5     -16.5158 -20.4930  -2.9969   N.2       1 RES1   0.0000
     6 C6     -16.5357 -19.9346  -4.2177   C.2       1 RES1   0.0000
     7 C7     -17.3545 -20.4689  -5.3255   C.2       1 RES1   0.0000
     8 O8     -17.6965 -19.6628  -6.1737   O.2       1 RES1   0.0000
     9 N9     -17.7360 -21.7874  -5.4852   N.am      1 RES1   0.0000
    10 C10    -17.0012 -22.8336  -4.7563   C.3       1 RES1   0.0000
    11 C11    -17.3641 -24.1275  -5.4520   C.3       1 RES1   0.0000
    12 C12    -17.7961 -23.6972  -6.8321   C.3       1 RES1   0.0000
    13 C13    -18.5339 -22.3954  -6.5553   C.3       1 RES1   0.0000
    14 C14    -19.9706 -22.6528  -6.1970   C.2       1 RES1   0.0000
    15 O15    -20.7814 -22.9048  -7.0732   O.2       1 RES1   0.0000
    16 N16    -20.3308 -22.6458  -4.9009   N.am      1 RES1   0.0000
    17 C17    -21.7020 -22.9348  -4.4790   C.3       1 RES1   0.0000
    18 C18    -21.7463 -23.2528  -2.9535   C.3       1 RES1   0.0000
    19 C19    -20.9963 -24.5299  -2.5664   C.2       1 RES1   0.0000
    20 C20    -19.7726 -24.5812  -2.0050   C.2       1 RES1   0.0000
    21 N21    -19.4005 -25.8818  -1.7914   N.2       1 RES1   0.0000
    22 C22    -20.3884 -26.7348  -2.2134   C.2       1 RES1   0.0000
    23 C23    -20.5151 -28.1455  -2.2246   C.2       1 RES1   0.0000
    24 C24    -21.6761 -28.7384  -2.7331   C.2       1 RES1   0.0000
    25 C25    -22.7262 -27.9362  -3.2380   C.2       1 RES1   0.0000
    26 C26    -22.6176 -26.5484  -3.2358   C.2       1 RES1   0.0000
    27 C27    -21.4481 -25.9269  -2.7245   C.2       1 RES1   0.0000
    28 C28    -22.5914 -21.7500  -4.8370   C.2       1 RES1   0.0000
    29 O29    -22.0426 -20.5259  -5.0231   O.co2     1 RES1   0.0000
    30 O30    -23.7849 -21.9076  -4.9626   O.co2     1 RES1  -1.0000
    31 C31    -15.6982 -18.8637  -4.1731   C.2       1 RES1   0.0000
    32 O32    -15.2027 -18.8124  -2.9277   O.3       1 RES1   0.0000
@<TRIPOS>BOND
     1     2     1    1
     2     2     3    1
     3     2     4    1
     4     4     5    2
     5     5     6    1
     6     6     7    1
     7     7     8    2
     8     7     9   am
     9     9    10    1
    10    10    11    1
    11    11    12    1
    12    12    13    1
    13    13    14    1
    14    14    15    2
    15    14    16   am
    16    16    17    1
    17    17    18    1
    18    18    19    1
    19    19    20    2
    20    20    21    1
    21    21    22    1
    22    22    23    2
    23    23    24    1
    24    24    25    2
    25    25    26    1
    26    26    27    2
    27    17    28    1
    28    28    29    2
    29    28    30    1
    30     6    31    2
    31    31    32    1
    32    32     4    1
    33    13     9    1
    34    27    19    1
    35    27    22    1
@<TRIPOS>SUBSTRUCTURE
     1 RES1        1 GROUP             0 ****  ****    0  
@<TRIPOS>MOLECULE
ligand_76
    32    35     1     0     0
SMALL
USER_CHARGES
****
Generated from the CSD

@<TRIPOS>ATOM
     1 C1     -16.2323 -21.3180  -0.2229   C.3       1 RES1   0.0000
     2 C2     -15.5061 -20.0449  -0.6457   C.3       1 RES1   0.0000
     3 N3     -15.8885 -18.8999   0.1846   N.3       1 RES1   1.0000
     4 C4     -15.7995 -19.7526  -2.0865   C.2       1 RES1   0.0000
     5 N5     -16.4402 -18.7231  -2.4853   N.2       1 RES1   0.0000
     6 C6     -16.5400 -18.7479  -3.8240   C.2       1 RES1   0.0000
     7 C7     -17.2272 -17.6891  -4.5920   C.2       1 RES1   0.0000
     8 O8     -17.5405 -16.6921  -3.9643   O.2       1 RES1   0.0000
     9 N9     -17.5162 -17.7288  -5.9427   N.am      1 RES1   0.0000
    10 C10    -17.0366 -18.6033  -7.0126   C.3       1 RES1   0.0000
    11 C11    -16.7906 -17.6233  -8.1475   C.3       1 RES1   0.0000
    12 C12    -17.9626 -16.6519  -8.0239   C.3       1 RES1   0.0000
    13 C13    -18.2726 -16.6021  -6.5184   C.3       1 RES1   0.0000
    14 C14    -19.7576 -16.6667  -6.2960   C.2       1 RES1   0.0000
    15 O15    -20.4420 -15.6699  -6.4586   O.2       1 RES1   0.0000
    16 N16    -20.3166 -17.8443  -5.9632   N.am      1 RES1   0.0000
    17 C17    -21.7473 -17.9676  -5.6813   C.3       1 RES1   0.0000
    18 C18    -22.3872 -19.0651  -6.5846   C.3       1 RES1   0.0000
    19 C19    -22.3997 -18.7101  -8.0737   C.2       1 RES1   0.0000
    20 C20    -23.4492 -18.2048  -8.7508   C.2       1 RES1   0.0000
    21 N21    -23.1176 -18.0060 -10.0646   N.2       1 RES1   0.0000
    22 C22    -21.8173 -18.3810 -10.2892   C.2       1 RES1   0.0000
    23 C23    -20.9916 -18.3838 -11.4400   C.2       1 RES1   0.0000
    24 C24    -19.6710 -18.8379 -11.3508   C.2       1 RES1   0.0000
    25 C25    -19.1544 -19.2960 -10.1161   C.2       1 RES1   0.0000
    26 C26    -19.9526 -19.3014  -8.9757   C.2       1 RES1   0.0000
    27 C27    -21.2952 -18.8449  -9.0446   C.2       1 RES1   0.0000
    28 C28    -21.9367 -18.2715  -4.1998   C.2       1 RES1   0.0000
    29 O29    -20.9213 -18.8147  -3.4870   O.co2     1 RES1   0.0000
    30 O30    -22.9911 -18.0187  -3.6620   O.co2     1 RES1  -1.0000
    31 C31    -15.9101 -19.8781  -4.2436   C.2       1 RES1   0.0000
    32 O32    -15.4516 -20.4955  -3.1446   O.3       1 RES1   0.0000
@<TRIPOS>BOND
     1     2     1    1
     2     2     3    1
     3     2     4    1
     4     4     5    2
     5     5     6    1
     6     6     7    1
     7     7     8    2
     8     7     9   am
     9     9    10    1
    10    10    11    1
    11    11    12    1
    12    12    13    1
    13    13    14    1
    14    14    15    2
    15    14    16   am
    16    16    17    1
    17    17    18    1
    18    18    19    1
    19    19    20    2
    20    20    21    1
    21    21    22    1
    22    22    23    2
    23    23    24    1
    24    24    25    2
    25    25    26    1
    26    26    27    2
    27    17    28    1
    28    28    29    2
    29    28    30    1
    30     6    31    2
    31    31    32    1
    32    32     4    1
    33    13     9    1
    34    27    19    1
    35    27    22    1
@<TRIPOS>SUBSTRUCTURE
     1 RES1        1 GROUP             0 ****  ****    0  
@<TRIPOS>MOLECULE
ligand_77
    32    35     1     0     0
SMALL
USER_CHARGES
****
Generated from the CSD

@<TRIPOS>ATOM
     1 C1     -15.9568 -21.6348  -0.5851   C.3       1 RES1   0.0000
     2 C2     -15.3379 -20.2768  -0.9010   C.3       1 RES1   0.0000
     3 N3     -15.8191 -19.2352   0.0101   N.3       1 RES1   1.0000
     4 C4     -15.6478 -19.8997  -2.3184   C.2       1 RES1   0.0000
     5 N5     -16.3707 -18.8994  -2.6445   N.2       1 RES1   0.0000
     6 C6     -16.4616 -18.8289  -3.9822   C.2       1 RES1   0.0000
     7 C7     -17.2314 -17.7749  -4.6746   C.2       1 RES1   0.0000
     8 O8     -16.8670 -17.5033  -5.8058   O.2       1 RES1   0.0000
     9 N9     -18.3239 -17.1026  -4.1607   N.am      1 RES1   0.0000
    10 C10    -19.0433 -17.3870  -2.9187   C.3       1 RES1   0.0000
    11 C11    -20.2005 -16.5115  -2.9484   C.3       1 RES1   0.0000
    12 C12    -20.2321 -15.7193  -4.1108   C.3       1 RES1   0.0000
    13 C13    -19.0212 -16.0870  -4.9522   C.3       1 RES1   0.0000
    14 C14    -18.1632 -14.8824  -5.2194   C.2       1 RES1   0.0000
    15 O15    -18.4896 -14.0802  -6.0787   O.2       1 RES1   0.0000
    16 N16    -17.0648 -14.6844  -4.4681   N.am      1 RES1   0.0000
    17 C17    -16.2089 -13.5108  -4.6461   C.3       1 RES1   0.0000
    18 C18    -16.8309 -12.2708  -3.9352   C.3       1 RES1   0.0000
    19 C19    -16.9308 -12.4159  -2.4144   C.2       1 RES1   0.0000
    20 C20    -18.0509 -12.7120  -1.7267   C.2       1 RES1   0.0000
    21 N21    -17.7861 -12.7629  -0.3840   N.2       1 RES1   0.0000
    22 C22    -16.4607 -12.4979  -0.1499   C.2       1 RES1   0.0000
    23 C23    -15.6777 -12.4237   1.0280   C.2       1 RES1   0.0000
    24 C24    -14.3131 -12.1258   0.9419   C.2       1 RES1   0.0000
    25 C25    -13.7094 -11.8969  -0.3168   C.2       1 RES1   0.0000
    26 C26    -14.4646 -11.9644  -1.4843   C.2       1 RES1   0.0000
    27 C27    -15.8506 -12.2652  -1.4190   C.2       1 RES1   0.0000
    28 C28    -14.8154 -13.8281  -4.1162   C.2       1 RES1   0.0000
    29 O29    -14.6470 -14.8236  -3.2135   O.co2     1 RES1   0.0000
    30 O30    -13.8617 -13.1954  -4.5098   O.co2     1 RES1  -1.0000
    31 C31    -15.7370 -19.8670  -4.4800   C.2       1 RES1   0.0000
    32 O32    -15.2337 -20.5270  -3.4263   O.3       1 RES1   0.0000
@<TRIPOS>BOND
     1     2     1    1
     2     2     3    1
     3     2     4    1
     4     4     5    2
     5     5     6    1
     6     6     7    1
     7     7     8    2
     8     7     9   am
     9     9    10    1
    10    10    11    1
    11    11    12    1
    12    12    13    1
    13    13    14    1
    14    14    15    2
    15    14    16   am
    16    16    17    1
    17    17    18    1
    18    18    19    1
    19    19    20    2
    20    20    21    1
    21    21    22    1
    22    22    23    2
    23    23    24    1
    24    24    25    2
    25    25    26    1
    26    26    27    2
    27    17    28    1
    28    28    29    2
    29    28    30    1
    30     6    31    2
    31    31    32    1
    32    32     4    1
    33    13     9    1
    34    27    19    1
    35    27    22    1
@<TRIPOS>SUBSTRUCTURE
     1 RES1        1 GROUP             0 ****  ****    0  
@<TRIPOS>MOLECULE
ligand_78
    32    35     1     0     0
SMALL
USER_CHARGES
****
Generated from the CSD

@<TRIPOS>ATOM
     1 C1     -16.1536 -21.7148  -0.4758   C.3       1 RES1   0.0000
     2 C2     -15.5046 -20.3649  -0.7651   C.3       1 RES1   0.0000
     3 N3     -15.9985 -19.3203   0.1357   N.3       1 RES1   1.0000
     4 C4     -15.7640 -19.9765  -2.1896   C.2       1 RES1   0.0000
     5 N5     -16.5539 -20.6117  -2.9656   N.2       1 RES1   0.0000
     6 C6     -16.5699 -20.0205  -4.1709   C.2       1 RES1   0.0000
     7 C7     -17.3924 -20.5190  -5.2925   C.2       1 RES1   0.0000
     8 O8     -17.7886 -21.6678  -5.1948   O.2       1 RES1   0.0000
     9 N9     -17.7599 -19.7936  -6.4098   N.am      1 RES1   0.0000
    10 C10    -17.5620 -18.3639  -6.6503   C.3       1 RES1   0.0000
    11 C11    -18.2861 -18.0877  -7.8774   C.3       1 RES1   0.0000
    12 C12    -18.9022 -19.2412  -8.3966   C.3       1 RES1   0.0000
    13 C13    -18.5979 -20.3915  -7.4513   C.3       1 RES1   0.0000
    14 C14    -17.9018 -21.5124  -8.1710   C.2       1 RES1   0.0000
    15 O15    -18.5458 -22.2882  -8.8580   O.2       1 RES1   0.0000
    16 N16    -16.5634 -21.6137  -8.0808   N.am      1 RES1   0.0000
    17 C17    -15.8208 -22.6703  -8.7691   C.3       1 RES1   0.0000
    18 C18    -14.3061 -22.3101  -8.8447   C.3       1 RES1   0.0000
    19 C19    -14.0017 -21.1016  -9.7338   C.2       1 RES1   0.0000
    20 C20    -13.5835 -21.1548 -11.0134   C.2       1 RES1   0.0000
    21 N21    -13.4057 -19.8907 -11.5094   N.2       1 RES1   0.0000
    22 C22    -13.7092 -18.9566 -10.5518   C.2       1 RES1   0.0000
    23 C23    -13.6964 -17.5404 -10.5370   C.2       1 RES1   0.0000
    24 C24    -14.0700 -16.8506  -9.3781   C.2       1 RES1   0.0000
    25 C25    -14.4604 -17.5604  -8.2184   C.2       1 RES1   0.0000
    26 C26    -14.4772 -18.9523  -8.2153   C.2       1 RES1   0.0000
    27 C27    -14.1018 -19.6713  -9.3805   C.2       1 RES1   0.0000
    28 C28    -16.0538 -23.9920  -8.0466   C.2       1 RES1   0.0000
    29 O29    -16.4495 -23.9926  -6.7513   O.co2     1 RES1   0.0000
    30 O30    -15.8929 -25.0376  -8.6345   O.co2     1 RES1  -1.0000
    31 C31    -15.7250 -18.9570  -4.0976   C.2       1 RES1   0.0000
    32 O32    -15.2292 -18.9428  -2.8513   O.3       1 RES1   0.0000
@<TRIPOS>BOND
     1     2     1    1
     2     2     3    1
     3     2     4    1
     4     4     5    2
     5     5     6    1
     6     6     7    1
     7     7     8    2
     8     7     9   am
     9     9    10    1
    10    10    11    1
    11    11    12    1
    12    12    13    1
    13    13    14    1
    14    14    15    2
    15    14    16   am
    16    16    17    1
    17    17    18    1
    18    18    19    1
    19    19    20    2
    20    20    21    1
    21    21    22    1
    22    22    23    2
    23    23    24    1
    24    24    25    2
    25    25    26    1
    26    26    27    2
    27    17    28    1
    28    28    29    2
    29    28    30    1
    30     6    31    2
    31    31    32    1
    32    32     4    1
    33    13     9    1
    34    27    19    1
    35    27    22    1
@<TRIPOS>SUBSTRUCTURE
     1 RES1        1 GROUP             0 ****  ****    0  
@<TRIPOS>MOLECULE
ligand_79
    32    35     1     0     0
SMALL
USER_CHARGES
****
Generated from the CSD

@<TRIPOS>ATOM
     1 C1     -16.0982 -21.6723  -0.4875   C.3       1 RES1   0.0000
     2 C2     -15.4578 -20.3206  -0.7873   C.3       1 RES1   0.0000
     3 N3     -15.9505 -19.2744   0.1123   N.3       1 RES1   1.0000
     4 C4     -15.7290 -19.9398  -2.2117   C.2       1 RES1   0.0000
     5 N5     -16.5212 -20.5822  -2.9793   N.2       1 RES1   0.0000
     6 C6     -16.5485 -19.9964  -4.1871   C.2       1 RES1   0.0000
     7 C7     -17.3764 -20.5038  -5.3007   C.2       1 RES1   0.0000
     8 O8     -17.7663 -21.6540  -5.1952   O.2       1 RES1   0.0000
     9 N9     -17.7553 -19.7851  -6.4185   N.am      1 RES1   0.0000
    10 C10    -17.5657 -18.3556  -6.6668   C.3       1 RES1   0.0000
    11 C11    -18.2998 -18.0882  -7.8899   C.3       1 RES1   0.0000
    12 C12    -18.9143 -19.2469  -8.3995   C.3       1 RES1   0.0000
    13 C13    -18.5979 -20.3915  -7.4513   C.3       1 RES1   0.0000
    14 C14    -17.9018 -21.5124  -8.1710   C.2       1 RES1   0.0000
    15 O15    -18.5458 -22.2882  -8.8580   O.2       1 RES1   0.0000
    16 N16    -16.5634 -21.6137  -8.0808   N.am      1 RES1   0.0000
    17 C17    -15.8182 -22.6545  -8.7900   C.3       1 RES1   0.0000
    18 C18    -14.3008 -22.3009  -8.8374   C.3       1 RES1   0.0000
    19 C19    -13.9843 -21.0433  -9.6511   C.2       1 RES1   0.0000
    20 C20    -13.7126 -19.8265  -9.1404   C.2       1 RES1   0.0000
    21 N21    -13.4770 -18.9290 -10.1476   N.2       1 RES1   0.0000
    22 C22    -13.5884 -19.5439 -11.3687   C.2       1 RES1   0.0000
    23 C23    -13.4481 -19.0885 -12.7026   C.2       1 RES1   0.0000
    24 C24    -13.6268 -19.9791 -13.7670   C.2       1 RES1   0.0000
    25 C25    -13.9482 -21.3343 -13.5190   C.2       1 RES1   0.0000
    26 C26    -14.0912 -21.7981 -12.2143   C.2       1 RES1   0.0000
    27 C27    -13.9141 -20.9110 -11.1201   C.2       1 RES1   0.0000
    28 C28    -16.0668 -23.9948  -8.1081   C.2       1 RES1   0.0000
    29 O29    -16.4780 -24.0299  -6.8181   O.co2     1 RES1   0.0000
    30 O30    -15.9045 -25.0243  -8.7235   O.co2     1 RES1  -1.0000
    31 C31    -15.7082 -18.9285  -4.1244   C.2       1 RES1   0.0000
    32 O32    -15.2038 -18.9064  -2.8816   O.3       1 RES1   0.0000
@<TRIPOS>BOND
     1     2     1    1
     2     2     3    1
     3     2     4    1
     4     4     5    2
     5     5     6    1
     6     6     7    1
     7     7     8    2
     8     7     9   am
     9     9    10    1
    10    10    11    1
    11    11    12    1
    12    12    13    1
    13    13    14    1
    14    14    15    2
    15    14    16   am
    16    16    17    1
    17    17    18    1
    18    18    19    1
    19    19    20    2
    20    20    21    1
    21    21    22    1
    22    22    23    2
    23    23    24    1
    24    24    25    2
    25    25    26    1
    26    26    27    2
    27    17    28    1
    28    28    29    2
    29    28    30    1
    30     6    31    2
    31    31    32    1
    32    32     4    1
    33    13     9    1
    34    27    19    1
    35    27    22    1
@<TRIPOS>SUBSTRUCTURE
     1 RES1        1 GROUP             0 ****  ****    0  
@<TRIPOS>MOLECULE
ligand_80
    32    35     1     0     0
SMALL
USER_CHARGES
****
Generated from the CSD

@<TRIPOS>ATOM
     1 C1     -16.0338 -21.7042  -0.5803   C.3       1 RES1   0.0000
     2 C2     -15.3966 -20.3478  -0.8649   C.3       1 RES1   0.0000
     3 N3     -15.8766 -19.3172   0.0592   N.3       1 RES1   1.0000
     4 C4     -15.6864 -19.9420  -2.2788   C.2       1 RES1   0.0000
     5 N5     -14.7831 -19.6533  -3.1333   N.2       1 RES1   0.0000
     6 C6     -15.3587 -19.3297  -4.3022   C.2       1 RES1   0.0000
     7 C7     -14.5776 -18.9471  -5.4966   C.2       1 RES1   0.0000
     8 O8     -15.1066 -19.1655  -6.5731   O.2       1 RES1   0.0000
     9 N9     -13.3303 -18.3523  -5.4900   N.am      1 RES1   0.0000
    10 C10    -12.8662 -17.6873  -4.2619   C.3       1 RES1   0.0000
    11 C11    -11.7150 -16.8086  -4.7005   C.3       1 RES1   0.0000
    12 C12    -11.9590 -16.5864  -6.1728   C.3       1 RES1   0.0000
    13 C13    -12.4992 -17.9355  -6.6244   C.3       1 RES1   0.0000
    14 C14    -11.3809 -18.8808  -6.9628   C.2       1 RES1   0.0000
    15 O15    -10.7984 -18.7783  -8.0300   O.2       1 RES1   0.0000
    16 N16    -11.0086 -19.8020  -6.0559   N.am      1 RES1   0.0000
    17 C17     -9.8751 -20.6984  -6.2863   C.3       1 RES1   0.0000
    18 C18     -8.5382 -19.9950  -5.9016   C.3       1 RES1   0.0000
    19 C19     -8.1921 -18.7971  -6.7898   C.2       1 RES1   0.0000
    20 C20     -8.3569 -17.5016  -6.4585   C.2       1 RES1   0.0000
    21 N21     -7.9471 -16.6918  -7.4841   N.2       1 RES1   0.0000
    22 C22     -7.4929 -17.4476  -8.5349   C.2       1 RES1   0.0000
    23 C23     -6.9693 -17.1236  -9.8104   C.2       1 RES1   0.0000
    24 C24     -6.5812 -18.1440 -10.6859   C.2       1 RES1   0.0000
    25 C25     -6.7094 -19.5002 -10.3046   C.2       1 RES1   0.0000
    26 C26     -7.2233 -19.8363  -9.0553   C.2       1 RES1   0.0000
    27 C27     -7.6230 -18.8164  -8.1522   C.2       1 RES1   0.0000
    28 C28    -10.0886 -21.9824  -5.4934   C.2       1 RES1   0.0000
    29 O29    -10.9176 -21.9844  -4.4224   O.co2     1 RES1   0.0000
    30 O30     -9.5236 -22.9992  -5.8278   O.co2     1 RES1  -1.0000
    31 C31    -16.7026 -19.4363  -4.1207   C.2       1 RES1   0.0000
    32 O32    -16.8913 -19.8210  -2.8496   O.3       1 RES1   0.0000
@<TRIPOS>BOND
     1     2     1    1
     2     2     3    1
     3     2     4    1
     4     4     5    2
     5     5     6    1
     6     6     7    1
     7     7     8    2
     8     7     9   am
     9     9    10    1
    10    10    11    1
    11    11    12    1
    12    12    13    1
    13    13    14    1
    14    14    15    2
    15    14    16   am
    16    16    17    1
    17    17    18    1
    18    18    19    1
    19    19    20    2
    20    20    21    1
    21    21    22    1
    22    22    23    2
    23    23    24    1
    24    24    25    2
    25    25    26    1
    26    26    27    2
    27    17    28    1
    28    28    29    2
    29    28    30    1
    30     6    31    2
    31    31    32    1
    32    32     4    1
    33    13     9    1
    34    27    19    1
    35    27    22    1
@<TRIPOS>SUBSTRUCTURE
     1 RES1        1 GROUP             0 ****  ****    0  
@<TRIPOS>MOLECULE
ligand_81
    32    35     1     0     0
SMALL
USER_CHARGES
****
Generated from the CSD

@<TRIPOS>ATOM
     1 C1     -16.2356 -21.6153  -0.6411   C.3       1 RES1   0.0000
     2 C2     -15.5819 -20.2658  -0.9215   C.3       1 RES1   0.0000
     3 N3     -16.0820 -19.2226  -0.0225   N.3       1 RES1   1.0000
     4 C4     -15.8282 -19.8736  -2.3473   C.2       1 RES1   0.0000
     5 N5     -14.8988 -19.5993  -3.1783   N.2       1 RES1   0.0000
     6 C6     -15.4384 -19.2849  -4.3668   C.2       1 RES1   0.0000
     7 C7     -14.6208 -18.9198  -5.5420   C.2       1 RES1   0.0000
     8 O8     -15.1255 -19.1337  -6.6309   O.2       1 RES1   0.0000
     9 N9     -13.3645 -18.3454  -5.5054   N.am      1 RES1   0.0000
    10 C10    -12.6509 -17.8342  -4.3347   C.3       1 RES1   0.0000
    11 C11    -11.4706 -17.1824  -4.8719   C.3       1 RES1   0.0000
    12 C12    -11.4162 -17.2643  -6.2754   C.3       1 RES1   0.0000
    13 C13    -12.6561 -18.0089  -6.7421   C.3       1 RES1   0.0000
    14 C14    -12.2860 -19.2286  -7.5384   C.2       1 RES1   0.0000
    15 O15    -11.9605 -19.1164  -8.7089   O.2       1 RES1   0.0000
    16 N16    -12.2760 -20.4276  -6.9283   N.am      1 RES1   0.0000
    17 C17    -11.9403 -21.6571  -7.6474   C.3       1 RES1   0.0000
    18 C18    -10.7891 -22.4158  -6.9200   C.3       1 RES1   0.0000
    19 C19    -11.1782 -22.9536  -5.5405   C.2       1 RES1   0.0000
    20 C20    -11.5558 -24.2182  -5.2696   C.2       1 RES1   0.0000
    21 N21    -11.8345 -24.3569  -3.9360   N.2       1 RES1   0.0000
    22 C22    -11.6426 -23.1658  -3.2833   C.2       1 RES1   0.0000
    23 C23    -11.7843 -22.7638  -1.9325   C.2       1 RES1   0.0000
    24 C24    -11.5057 -21.4429  -1.5640   C.2       1 RES1   0.0000
    25 C25    -11.0834 -20.5040  -2.5342   C.2       1 RES1   0.0000
    26 C26    -10.9403 -20.8819  -3.8664   C.2       1 RES1   0.0000
    27 C27    -11.2178 -22.2170  -4.2612   C.2       1 RES1   0.0000
    28 C28    -13.1933 -22.5156  -7.7743   C.2       1 RES1   0.0000
    29 O29    -14.2242 -22.3363  -6.9145   O.co2     1 RES1   0.0000
    30 O30    -13.2674 -23.3495  -8.6484   O.co2     1 RES1  -1.0000
    31 C31    -16.7876 -19.3816  -4.2231   C.2       1 RES1   0.0000
    32 O32    -17.0154 -19.7515  -2.9540   O.3       1 RES1   0.0000
@<TRIPOS>BOND
     1     2     1    1
     2     2     3    1
     3     2     4    1
     4     4     5    2
     5     5     6    1
     6     6     7    1
     7     7     8    2
     8     7     9   am
     9     9    10    1
    10    10    11    1
    11    11    12    1
    12    12    13    1
    13    13    14    1
    14    14    15    2
    15    14    16   am
    16    16    17    1
    17    17    18    1
    18    18    19    1
    19    19    20    2
    20    20    21    1
    21    21    22    1
    22    22    23    2
    23    23    24    1
    24    24    25    2
    25    25    26    1
    26    26    27    2
    27    17    28    1
    28    28    29    2
    29    28    30    1
    30     6    31    2
    31    31    32    1
    32    32     4    1
    33    13     9    1
    34    27    19    1
    35    27    22    1
@<TRIPOS>SUBSTRUCTURE
     1 RES1        1 GROUP             0 ****  ****    0  
@<TRIPOS>MOLECULE
ligand_82
    32    35     1     0     0
SMALL
USER_CHARGES
****
Generated from the CSD

@<TRIPOS>ATOM
     1 C1     -16.0940 -21.5301  -0.5205   C.3       1 RES1   0.0000
     2 C2     -15.4541 -20.1816  -0.8349   C.3       1 RES1   0.0000
     3 N3     -15.9455 -19.1263   0.0546   N.3       1 RES1   1.0000
     4 C4     -15.7272 -19.8153  -2.2628   C.2       1 RES1   0.0000
     5 N5     -14.8140 -19.5495  -3.1141   N.2       1 RES1   0.0000
     6 C6     -15.3759 -19.2588  -4.2984   C.2       1 RES1   0.0000
     7 C7     -14.5808 -18.9088  -5.4935   C.2       1 RES1   0.0000
     8 O8     -15.1417 -18.2135  -6.3231   O.2       1 RES1   0.0000
     9 N9     -13.2709 -19.2802  -5.7299   N.am      1 RES1   0.0000
    10 C10    -12.3516 -19.9455  -4.8061   C.3       1 RES1   0.0000
    11 C11    -11.0687 -19.9367  -5.4848   C.3       1 RES1   0.0000
    12 C12    -11.1448 -19.3204  -6.7473   C.3       1 RES1   0.0000
    13 C13    -12.5773 -18.8539  -6.9469   C.3       1 RES1   0.0000
    14 C14    -13.1745 -19.4586  -8.1865   C.2       1 RES1   0.0000
    15 O15    -12.8957 -19.0014  -9.2827   O.2       1 RES1   0.0000
    16 N16    -13.9770 -20.5318  -8.0670   N.am      1 RES1   0.0000
    17 C17    -14.5551 -21.1974  -9.2351   C.3       1 RES1   0.0000
    18 C18    -14.2263 -22.7210  -9.2111   C.3       1 RES1   0.0000
    19 C19    -14.8462 -23.4686  -8.0277   C.2       1 RES1   0.0000
    20 C20    -14.1945 -23.8476  -6.9111   C.2       1 RES1   0.0000
    21 N21    -15.0478 -24.4953  -6.0580   N.2       1 RES1   0.0000
    22 C22    -16.3059 -24.5591  -6.6009   C.2       1 RES1   0.0000
    23 C23    -17.5321 -25.1069  -6.1508   C.2       1 RES1   0.0000
    24 C24    -18.6755 -25.0114  -6.9518   C.2       1 RES1   0.0000
    25 C25    -18.6144 -24.3705  -8.2115   C.2       1 RES1   0.0000
    26 C26    -17.4172 -23.8279  -8.6697   C.2       1 RES1   0.0000
    27 C27    -16.2455 -23.9141  -7.8726   C.2       1 RES1   0.0000
    28 C28    -16.0575 -20.9422  -9.2587   C.2       1 RES1   0.0000
    29 O29    -16.7031 -20.6058  -8.1166   O.co2     1 RES1   0.0000
    30 O30    -16.6686 -21.0323 -10.2995   O.co2     1 RES1  -1.0000
    31 C31    -16.7217 -19.3615  -4.1299   C.2       1 RES1   0.0000
    32 O32    -16.9254 -19.7110  -2.8510   O.3       1 RES1   0.0000
@<TRIPOS>BOND
     1     2     1    1
     2     2     3    1
     3     2     4    1
     4     4     5    2
     5     5     6    1
     6     6     7    1
     7     7     8    2
     8     7     9   am
     9     9    10    1
    10    10    11    1
    11    11    12    1
    12    12    13    1
    13    13    14    1
    14    14    15    2
    15    14    16   am
    16    16    17    1
    17    17    18    1
    18    18    19    1
    19    19    20    2
    20    20    21    1
    21    21    22    1
    22    22    23    2
    23    23    24    1
    24    24    25    2
    25    25    26    1
    26    26    27    2
    27    17    28    1
    28    28    29    2
    29    28    30    1
    30     6    31    2
    31    31    32    1
    32    32     4    1
    33    13     9    1
    34    27    19    1
    35    27    22    1
@<TRIPOS>SUBSTRUCTURE
     1 RES1        1 GROUP             0 ****  ****    0  
@<TRIPOS>MOLECULE
ligand_83
    32    35     1     0     0
SMALL
USER_CHARGES
****
Generated from the CSD

@<TRIPOS>ATOM
     1 C1     -16.1141 -21.6190  -0.5734   C.3       1 RES1   0.0000
     2 C2     -15.4773 -20.2648  -0.8696   C.3       1 RES1   0.0000
     3 N3     -15.9744 -19.2219   0.0314   N.3       1 RES1   1.0000
     4 C4     -15.7475 -19.8820  -2.2936   C.2       1 RES1   0.0000
     5 N5     -14.8326 -19.6032  -3.1391   N.2       1 RES1   0.0000
     6 C6     -15.3919 -19.2998  -4.3213   C.2       1 RES1   0.0000
     7 C7     -14.5945 -18.9329  -5.5098   C.2       1 RES1   0.0000
     8 O8     -15.1126 -19.1570  -6.5904   O.2       1 RES1   0.0000
     9 N9     -13.3433 -18.3465  -5.4939   N.am      1 RES1   0.0000
    10 C10    -12.6178 -17.8234  -4.3358   C.3       1 RES1   0.0000
    11 C11    -11.4516 -17.1630  -4.8928   C.3       1 RES1   0.0000
    12 C12    -11.4167 -17.2506  -6.2967   C.3       1 RES1   0.0000
    13 C13    -12.6561 -18.0089  -6.7421   C.3       1 RES1   0.0000
    14 C14    -12.2860 -19.2286  -7.5384   C.2       1 RES1   0.0000
    15 O15    -11.9605 -19.1164  -8.7089   O.2       1 RES1   0.0000
    16 N16    -12.2760 -20.4276  -6.9283   N.am      1 RES1   0.0000
    17 C17    -11.8844 -21.6491  -7.6326   C.3       1 RES1   0.0000
    18 C18    -11.5771 -22.7892  -6.6149   C.3       1 RES1   0.0000
    19 C19    -10.3659 -22.5101  -5.7212   C.2       1 RES1   0.0000
    20 C20     -9.0783 -22.5265  -6.1177   C.2       1 RES1   0.0000
    21 N21     -8.2520 -22.2346  -5.0653   N.2       1 RES1   0.0000
    22 C22     -8.9883 -22.0135  -3.9292   C.2       1 RES1   0.0000
    23 C23     -8.6426 -21.6850  -2.5955   C.2       1 RES1   0.0000
    24 C24     -9.6461 -21.5189  -1.6346   C.2       1 RES1   0.0000
    25 C25    -11.0068 -21.6781  -1.9871   C.2       1 RES1   0.0000
    26 C26    -11.3641 -22.0023  -3.2929   C.2       1 RES1   0.0000
    27 C27    -10.3615 -22.1753  -4.2830   C.2       1 RES1   0.0000
    28 C28    -12.9930 -22.0393  -8.6031   C.2       1 RES1   0.0000
    29 O29    -14.2546 -21.5891  -8.4032   O.co2     1 RES1   0.0000
    30 O30    -12.7415 -22.7434  -9.5549   O.co2     1 RES1  -1.0000
    31 C31    -16.7380 -19.4084  -4.1580   C.2       1 RES1   0.0000
    32 O32    -16.9442 -19.7741  -2.8840   O.3       1 RES1   0.0000
@<TRIPOS>BOND
     1     2     1    1
     2     2     3    1
     3     2     4    1
     4     4     5    2
     5     5     6    1
     6     6     7    1
     7     7     8    2
     8     7     9   am
     9     9    10    1
    10    10    11    1
    11    11    12    1
    12    12    13    1
    13    13    14    1
    14    14    15    2
    15    14    16   am
    16    16    17    1
    17    17    18    1
    18    18    19    1
    19    19    20    2
    20    20    21    1
    21    21    22    1
    22    22    23    2
    23    23    24    1
    24    24    25    2
    25    25    26    1
    26    26    27    2
    27    17    28    1
    28    28    29    2
    29    28    30    1
    30     6    31    2
    31    31    32    1
    32    32     4    1
    33    13     9    1
    34    27    19    1
    35    27    22    1
@<TRIPOS>SUBSTRUCTURE
     1 RES1        1 GROUP             0 ****  ****    0  
@<TRIPOS>MOLECULE
ligand_84
    32    35     1     0     0
SMALL
USER_CHARGES
****
Generated from the CSD

@<TRIPOS>ATOM
     1 C1     -16.1141 -21.6190  -0.5734   C.3       1 RES1   0.0000
     2 C2     -15.4773 -20.2648  -0.8696   C.3       1 RES1   0.0000
     3 N3     -15.9744 -19.2219   0.0314   N.3       1 RES1   1.0000
     4 C4     -15.7475 -19.8820  -2.2936   C.2       1 RES1   0.0000
     5 N5     -14.8326 -19.6032  -3.1391   N.2       1 RES1   0.0000
     6 C6     -15.3919 -19.2998  -4.3213   C.2       1 RES1   0.0000
     7 C7     -14.5945 -18.9329  -5.5098   C.2       1 RES1   0.0000
     8 O8     -15.1126 -19.1570  -6.5904   O.2       1 RES1   0.0000
     9 N9     -13.3433 -18.3465  -5.4939   N.am      1 RES1   0.0000
    10 C10    -12.6178 -17.8234  -4.3358   C.3       1 RES1   0.0000
    11 C11    -11.4516 -17.1630  -4.8928   C.3       1 RES1   0.0000
    12 C12    -11.4167 -17.2506  -6.2967   C.3       1 RES1   0.0000
    13 C13    -12.6561 -18.0089  -6.7421   C.3       1 RES1   0.0000
    14 C14    -12.2860 -19.2286  -7.5384   C.2       1 RES1   0.0000
    15 O15    -11.9605 -19.1164  -8.7089   O.2       1 RES1   0.0000
    16 N16    -12.2760 -20.4276  -6.9283   N.am      1 RES1   0.0000
    17 C17    -11.8844 -21.6491  -7.6326   C.3       1 RES1   0.0000
    18 C18    -11.5771 -22.7892  -6.6149   C.3       1 RES1   0.0000
    19 C19    -10.3659 -22.5101  -5.7212   C.2       1 RES1   0.0000
    20 C20    -10.3218 -21.6121  -4.7179   C.2       1 RES1   0.0000
    21 N21     -9.0864 -21.6183  -4.1268   N.2       1 RES1   0.0000
    22 C22     -8.2718 -22.5383  -4.7365   C.2       1 RES1   0.0000
    23 C23     -6.9297 -22.9390  -4.5256   C.2       1 RES1   0.0000
    24 C24     -6.3621 -23.9315  -5.3323   C.2       1 RES1   0.0000
    25 C25     -7.1216 -24.5381  -6.3602   C.2       1 RES1   0.0000
    26 C26     -8.4414 -24.1553  -6.5821   C.2       1 RES1   0.0000
    27 C27     -9.0362 -23.1502  -5.7749   C.2       1 RES1   0.0000
    28 C28    -12.9930 -22.0393  -8.6031   C.2       1 RES1   0.0000
    29 O29    -14.2546 -21.5891  -8.4032   O.co2     1 RES1   0.0000
    30 O30    -12.7415 -22.7434  -9.5549   O.co2     1 RES1  -1.0000
    31 C31    -16.7380 -19.4084  -4.1580   C.2       1 RES1   0.0000
    32 O32    -16.9442 -19.7741  -2.8840   O.3       1 RES1   0.0000
@<TRIPOS>BOND
     1     2     1    1
     2     2     3    1
     3     2     4    1
     4     4     5    2
     5     5     6    1
     6     6     7    1
     7     7     8    2
     8     7     9   am
     9     9    10    1
    10    10    11    1
    11    11    12    1
    12    12    13    1
    13    13    14    1
    14    14    15    2
    15    14    16   am
    16    16    17    1
    17    17    18    1
    18    18    19    1
    19    19    20    2
    20    20    21    1
    21    21    22    1
    22    22    23    2
    23    23    24    1
    24    24    25    2
    25    25    26    1
    26    26    27    2
    27    17    28    1
    28    28    29    2
    29    28    30    1
    30     6    31    2
    31    31    32    1
    32    32     4    1
    33    13     9    1
    34    27    19    1
    35    27    22    1
@<TRIPOS>SUBSTRUCTURE
     1 RES1        1 GROUP             0 ****  ****    0  
@<TRIPOS>MOLECULE
ligand_85
    32    35     1     0     0
SMALL
USER_CHARGES
****
Generated from the CSD

@<TRIPOS>ATOM
     1 C1     -16.0539 -21.6661  -0.5694   C.3       1 RES1   0.0000
     2 C2     -15.4201 -20.3129  -0.8759   C.3       1 RES1   0.0000
     3 N3     -15.8998 -19.2696   0.0340   N.3       1 RES1   1.0000
     4 C4     -15.7142 -19.9289  -2.2949   C.2       1 RES1   0.0000
     5 N5     -16.4252 -18.9213  -2.6244   N.2       1 RES1   0.0000
     6 C6     -16.5037 -18.8462  -3.9626   C.2       1 RES1   0.0000
     7 C7     -17.2580 -17.7834  -4.6586   C.2       1 RES1   0.0000
     8 O8     -17.6719 -18.0631  -5.7706   O.2       1 RES1   0.0000
     9 N9     -17.5455 -16.5311  -4.1500   N.am      1 RES1   0.0000
    10 C10    -17.3163 -16.0469  -2.7883   C.3       1 RES1   0.0000
    11 C11    -17.9577 -14.7458  -2.7415   C.3       1 RES1   0.0000
    12 C12    -18.5528 -14.4073  -3.9708   C.3       1 RES1   0.0000
    13 C13    -18.3223 -15.5644  -4.9286   C.3       1 RES1   0.0000
    14 C14    -17.5948 -15.1079  -6.1620   C.2       1 RES1   0.0000
    15 O15    -18.2007 -14.5250  -7.0461   O.2       1 RES1   0.0000
    16 N16    -16.2679 -15.3114  -6.2494   N.am      1 RES1   0.0000
    17 C17    -15.4904 -14.8520  -7.4010   C.3       1 RES1   0.0000
    18 C18    -14.2896 -13.9755  -6.9321   C.3       1 RES1   0.0000
    19 C19    -14.7065 -12.6648  -6.2598   C.2       1 RES1   0.0000
    20 C20    -15.2337 -11.5950  -6.8866   C.2       1 RES1   0.0000
    21 N21    -15.4891 -10.5941  -5.9874   N.2       1 RES1   0.0000
    22 C22    -15.1311 -10.9875  -4.7230   C.2       1 RES1   0.0000
    23 C23    -15.1811 -10.3538  -3.4572   C.2       1 RES1   0.0000
    24 C24    -14.7311 -11.0315  -2.3186   C.2       1 RES1   0.0000
    25 C25    -14.2248 -12.3482  -2.4239   C.2       1 RES1   0.0000
    26 C26    -14.1673 -12.9853  -3.6603   C.2       1 RES1   0.0000
    27 C27    -14.6187 -12.3154  -4.8278   C.2       1 RES1   0.0000
    28 C28    -15.0290 -16.0631  -8.2031   C.2       1 RES1   0.0000
    29 O29    -14.9551 -17.2779  -7.6090   O.co2     1 RES1   0.0000
    30 O30    -14.7379 -15.9379  -9.3712   O.co2     1 RES1  -1.0000
    31 C31    -15.7841 -19.8893  -4.4570   C.2       1 RES1   0.0000
    32 O32    -15.2960 -20.5569  -3.4009   O.3       1 RES1   0.0000
@<TRIPOS>BOND
     1     2     1    1
     2     2     3    1
     3     2     4    1
     4     4     5    2
     5     5     6    1
     6     6     7    1
     7     7     8    2
     8     7     9   am
     9     9    10    1
    10    10    11    1
    11    11    12    1
    12    12    13    1
    13    13    14    1
    14    14    15    2
    15    14    16   am
    16    16    17    1
    17    17    18    1
    18    18    19    1
    19    19    20    2
    20    20    21    1
    21    21    22    1
    22    22    23    2
    23    23    24    1
    24    24    25    2
    25    25    26    1
    26    26    27    2
    27    17    28    1
    28    28    29    2
    29    28    30    1
    30     6    31    2
    31    31    32    1
    32    32     4    1
    33    13     9    1
    34    27    19    1
    35    27    22    1
@<TRIPOS>SUBSTRUCTURE
     1 RES1        1 GROUP             0 ****  ****    0  
@<TRIPOS>MOLECULE
ligand_86
    32    35     1     0     0
SMALL
USER_CHARGES
****
Generated from the CSD

@<TRIPOS>ATOM
     1 C1     -16.0539 -21.6661  -0.5694   C.3       1 RES1   0.0000
     2 C2     -15.4201 -20.3129  -0.8759   C.3       1 RES1   0.0000
     3 N3     -15.8998 -19.2696   0.0340   N.3       1 RES1   1.0000
     4 C4     -15.7142 -19.9289  -2.2949   C.2       1 RES1   0.0000
     5 N5     -16.4252 -18.9213  -2.6244   N.2       1 RES1   0.0000
     6 C6     -16.5037 -18.8462  -3.9626   C.2       1 RES1   0.0000
     7 C7     -17.2580 -17.7834  -4.6586   C.2       1 RES1   0.0000
     8 O8     -17.6719 -18.0631  -5.7706   O.2       1 RES1   0.0000
     9 N9     -17.5455 -16.5311  -4.1500   N.am      1 RES1   0.0000
    10 C10    -17.3163 -16.0469  -2.7883   C.3       1 RES1   0.0000
    11 C11    -17.9577 -14.7458  -2.7415   C.3       1 RES1   0.0000
    12 C12    -18.5528 -14.4073  -3.9708   C.3       1 RES1   0.0000
    13 C13    -18.3223 -15.5644  -4.9286   C.3       1 RES1   0.0000
    14 C14    -17.5948 -15.1079  -6.1620   C.2       1 RES1   0.0000
    15 O15    -18.2007 -14.5250  -7.0461   O.2       1 RES1   0.0000
    16 N16    -16.2679 -15.3114  -6.2494   N.am      1 RES1   0.0000
    17 C17    -15.4904 -14.8520  -7.4010   C.3       1 RES1   0.0000
    18 C18    -14.2896 -13.9755  -6.9321   C.3       1 RES1   0.0000
    19 C19    -14.7065 -12.6648  -6.2598   C.2       1 RES1   0.0000
    20 C20    -15.2579 -12.5519  -5.0357   C.2       1 RES1   0.0000
    21 N21    -15.5080 -11.2372  -4.7453   N.2       1 RES1   0.0000
    22 C22    -15.1193 -10.4368  -5.7893   C.2       1 RES1   0.0000
    23 C23    -15.1532  -9.0376  -6.0064   C.2       1 RES1   0.0000
    24 C24    -14.6694  -8.5050  -7.2066   C.2       1 RES1   0.0000
    25 C25    -14.1462  -9.3572  -8.2072   C.2       1 RES1   0.0000
    26 C26    -14.1066 -10.7347  -8.0109   C.2       1 RES1   0.0000
    27 C27    -14.5924 -11.2954  -6.8004   C.2       1 RES1   0.0000
    28 C28    -15.0290 -16.0631  -8.2031   C.2       1 RES1   0.0000
    29 O29    -14.9551 -17.2779  -7.6090   O.co2     1 RES1   0.0000
    30 O30    -14.7379 -15.9379  -9.3712   O.co2     1 RES1  -1.0000
    31 C31    -15.7841 -19.8893  -4.4570   C.2       1 RES1   0.0000
    32 O32    -15.2960 -20.5569  -3.4009   O.3       1 RES1   0.0000
@<TRIPOS>BOND
     1     2     1    1
     2     2     3    1
     3     2     4    1
     4     4     5    2
     5     5     6    1
     6     6     7    1
     7     7     8    2
     8     7     9   am
     9     9    10    1
    10    10    11    1
    11    11    12    1
    12    12    13    1
    13    13    14    1
    14    14    15    2
    15    14    16   am
    16    16    17    1
    17    17    18    1
    18    18    19    1
    19    19    20    2
    20    20    21    1
    21    21    22    1
    22    22    23    2
    23    23    24    1
    24    24    25    2
    25    25    26    1
    26    26    27    2
    27    17    28    1
    28    28    29    2
    29    28    30    1
    30     6    31    2
    31    31    32    1
    32    32     4    1
    33    13     9    1
    34    27    19    1
    35    27    22    1
@<TRIPOS>SUBSTRUCTURE
     1 RES1        1 GROUP             0 ****  ****    0  
@<TRIPOS>MOLECULE
ligand_87
    32    35     1     0     0
SMALL
USER_CHARGES
****
Generated from the CSD

@<TRIPOS>ATOM
     1 C1     -16.0359 -21.6093  -0.5062   C.3       1 RES1   0.0000
     2 C2     -15.4082 -20.2545  -0.8183   C.3       1 RES1   0.0000
     3 N3     -15.9023 -19.2071   0.0792   N.3       1 RES1   1.0000
     4 C4     -15.6928 -19.8838  -2.2427   C.2       1 RES1   0.0000
     5 N5     -16.4075 -18.8834  -2.5862   N.2       1 RES1   0.0000
     6 C6     -16.4753 -18.8195  -3.9256   C.2       1 RES1   0.0000
     7 C7     -17.2304 -17.7671  -4.6363   C.2       1 RES1   0.0000
     8 O8     -17.6031 -16.8260  -3.9569   O.2       1 RES1   0.0000
     9 N9     -17.5218 -17.7540  -5.9871   N.am      1 RES1   0.0000
    10 C10    -17.0237 -18.6673  -7.0162   C.3       1 RES1   0.0000
    11 C11    -17.4874 -18.1046  -8.2711   C.3       1 RES1   0.0000
    12 C12    -18.2290 -16.9247  -8.0774   C.3       1 RES1   0.0000
    13 C13    -18.2642 -16.6423  -6.5846   C.3       1 RES1   0.0000
    14 C14    -19.6787 -16.5648  -6.0827   C.2       1 RES1   0.0000
    15 O15    -20.2924 -17.5885  -5.8297   O.2       1 RES1   0.0000
    16 N16    -20.2322 -15.3561  -5.8760   N.am      1 RES1   0.0000
    17 C17    -21.5866 -15.2082  -5.3419   C.3       1 RES1   0.0000
    18 C18    -21.8149 -13.7525  -4.8332   C.3       1 RES1   0.0000
    19 C19    -21.7461 -12.6941  -5.9372   C.2       1 RES1   0.0000
    20 C20    -20.6988 -11.8824  -6.1814   C.2       1 RES1   0.0000
    21 N21    -20.9726 -11.0565  -7.2389   N.2       1 RES1   0.0000
    22 C22    -22.2293 -11.3093  -7.7273   C.2       1 RES1   0.0000
    23 C23    -22.9905 -10.7551  -8.7855   C.2       1 RES1   0.0000
    24 C24    -24.2779 -11.2372  -9.0466   C.2       1 RES1   0.0000
    25 C25    -24.8258 -12.2762  -8.2583   C.2       1 RES1   0.0000
    26 C26    -24.0920 -12.8311  -7.2136   C.2       1 RES1   0.0000
    27 C27    -22.7839 -12.3565  -6.9319   C.2       1 RES1   0.0000
    28 C28    -22.5907 -15.5954  -6.4212   C.2       1 RES1   0.0000
    29 O29    -22.2265 -15.5618  -7.7252   O.co2     1 RES1   0.0000
    30 O30    -23.7083 -15.9403  -6.1099   O.co2     1 RES1  -1.0000
    31 C31    -15.7449 -19.8618  -4.4056   C.2       1 RES1   0.0000
    32 O32    -15.2614 -20.5178  -3.3401   O.3       1 RES1   0.0000
@<TRIPOS>BOND
     1     2     1    1
     2     2     3    1
     3     2     4    1
     4     4     5    2
     5     5     6    1
     6     6     7    1
     7     7     8    2
     8     7     9   am
     9     9    10    1
    10    10    11    1
    11    11    12    1
    12    12    13    1
    13    13    14    1
    14    14    15    2
    15    14    16   am
    16    16    17    1
    17    17    18    1
    18    18    19    1
    19    19    20    2
    20    20    21    1
    21    21    22    1
    22    22    23    2
    23    23    24    1
    24    24    25    2
    25    25    26    1
    26    26    27    2
    27    17    28    1
    28    28    29    2
    29    28    30    1
    30     6    31    2
    31    31    32    1
    32    32     4    1
    33    13     9    1
    34    27    19    1
    35    27    22    1
@<TRIPOS>SUBSTRUCTURE
     1 RES1        1 GROUP             0 ****  ****    0  
@<TRIPOS>MOLECULE
ligand_88
    32    35     1     0     0
SMALL
USER_CHARGES
****
Generated from the CSD

@<TRIPOS>ATOM
     1 C1     -16.0388 -21.6102  -0.5061   C.3       1 RES1   0.0000
     2 C2     -15.4105 -20.2556  -0.8179   C.3       1 RES1   0.0000
     3 N3     -15.9043 -19.2080   0.0795   N.3       1 RES1   1.0000
     4 C4     -15.6945 -19.8846  -2.2424   C.2       1 RES1   0.0000
     5 N5     -16.4086 -18.8839  -2.5860   N.2       1 RES1   0.0000
     6 C6     -16.4759 -18.8199  -3.9254   C.2       1 RES1   0.0000
     7 C7     -17.2304 -17.7671  -4.6363   C.2       1 RES1   0.0000
     8 O8     -17.6025 -16.8256  -3.9570   O.2       1 RES1   0.0000
     9 N9     -17.5218 -17.7540  -5.9871   N.am      1 RES1   0.0000
    10 C10    -17.0237 -18.6673  -7.0162   C.3       1 RES1   0.0000
    11 C11    -17.4874 -18.1046  -8.2711   C.3       1 RES1   0.0000
    12 C12    -18.2290 -16.9247  -8.0774   C.3       1 RES1   0.0000
    13 C13    -18.2642 -16.6423  -6.5846   C.3       1 RES1   0.0000
    14 C14    -19.6787 -16.5648  -6.0827   C.2       1 RES1   0.0000
    15 O15    -20.2924 -17.5885  -5.8297   O.2       1 RES1   0.0000
    16 N16    -20.2322 -15.3561  -5.8760   N.am      1 RES1   0.0000
    17 C17    -21.5866 -15.2082  -5.3419   C.3       1 RES1   0.0000
    18 C18    -21.8150 -13.7524  -4.8335   C.3       1 RES1   0.0000
    19 C19    -21.7829 -12.6981  -5.9431   C.2       1 RES1   0.0000
    20 C20    -22.8603 -12.1820  -6.5660   C.2       1 RES1   0.0000
    21 N21    -22.4731 -11.2653  -7.5068   N.2       1 RES1   0.0000
    22 C22    -21.1061 -11.1518  -7.5263   C.2       1 RES1   0.0000
    23 C23    -20.2067 -10.3682  -8.2900   C.2       1 RES1   0.0000
    24 C24    -18.8285 -10.4762  -8.0730   C.2       1 RES1   0.0000
    25 C25    -18.3265 -11.3657  -7.0941   C.2       1 RES1   0.0000
    26 C26    -19.1964 -12.1442  -6.3358   C.2       1 RES1   0.0000
    27 C27    -20.5981 -12.0498  -6.5402   C.2       1 RES1   0.0000
    28 C28    -22.5906 -15.5957  -6.4211   C.2       1 RES1   0.0000
    29 O29    -22.2265 -15.5624  -7.7251   O.co2     1 RES1   0.0000
    30 O30    -23.7082 -15.9406  -6.1097   O.co2     1 RES1  -1.0000
    31 C31    -15.7459 -19.8625  -4.4053   C.2       1 RES1   0.0000
    32 O32    -15.2630 -20.5188  -3.3397   O.3       1 RES1   0.0000
@<TRIPOS>BOND
     1     2     1    1
     2     2     3    1
     3     2     4    1
     4     4     5    2
     5     5     6    1
     6     6     7    1
     7     7     8    2
     8     7     9   am
     9     9    10    1
    10    10    11    1
    11    11    12    1
    12    12    13    1
    13    13    14    1
    14    14    15    2
    15    14    16   am
    16    16    17    1
    17    17    18    1
    18    18    19    1
    19    19    20    2
    20    20    21    1
    21    21    22    1
    22    22    23    2
    23    23    24    1
    24    24    25    2
    25    25    26    1
    26    26    27    2
    27    17    28    1
    28    28    29    2
    29    28    30    1
    30     6    31    2
    31    31    32    1
    32    32     4    1
    33    13     9    1
    34    27    19    1
    35    27    22    1
@<TRIPOS>SUBSTRUCTURE
     1 RES1        1 GROUP             0 ****  ****    0  
@<TRIPOS>MOLECULE
ligand_89
    32    35     1     0     0
SMALL
USER_CHARGES
****
Generated from the CSD

@<TRIPOS>ATOM
     1 C1     -15.9568 -21.6348  -0.5851   C.3       1 RES1   0.0000
     2 C2     -15.3379 -20.2768  -0.9010   C.3       1 RES1   0.0000
     3 N3     -15.8191 -19.2352   0.0101   N.3       1 RES1   1.0000
     4 C4     -15.6478 -19.8997  -2.3184   C.2       1 RES1   0.0000
     5 N5     -16.3707 -18.8994  -2.6445   N.2       1 RES1   0.0000
     6 C6     -16.4616 -18.8289  -3.9822   C.2       1 RES1   0.0000
     7 C7     -17.2314 -17.7749  -4.6746   C.2       1 RES1   0.0000
     8 O8     -16.8670 -17.5033  -5.8058   O.2       1 RES1   0.0000
     9 N9     -18.3239 -17.1026  -4.1607   N.am      1 RES1   0.0000
    10 C10    -19.0433 -17.3870  -2.9187   C.3       1 RES1   0.0000
    11 C11    -20.2005 -16.5115  -2.9484   C.3       1 RES1   0.0000
    12 C12    -20.2321 -15.7193  -4.1108   C.3       1 RES1   0.0000
    13 C13    -19.0212 -16.0870  -4.9522   C.3       1 RES1   0.0000
    14 C14    -18.1632 -14.8824  -5.2194   C.2       1 RES1   0.0000
    15 O15    -18.4896 -14.0802  -6.0787   O.2       1 RES1   0.0000
    16 N16    -17.0648 -14.6844  -4.4681   N.am      1 RES1   0.0000
    17 C17    -16.2089 -13.5108  -4.6461   C.3       1 RES1   0.0000
    18 C18    -16.8309 -12.2708  -3.9352   C.3       1 RES1   0.0000
    19 C19    -16.0074 -10.9900  -4.0933   C.2       1 RES1   0.0000
    20 C20    -15.1958 -10.4589  -3.1583   C.2       1 RES1   0.0000
    21 N21    -14.6142  -9.3116  -3.6282   N.2       1 RES1   0.0000
    22 C22    -15.0351  -9.0546  -4.9083   C.2       1 RES1   0.0000
    23 C23    -14.7505  -8.0231  -5.8363   C.2       1 RES1   0.0000
    24 C24    -15.3508  -8.0356  -7.1003   C.2       1 RES1   0.0000
    25 C25    -16.2428  -9.0738  -7.4577   C.2       1 RES1   0.0000
    26 C26    -16.5347 -10.0944  -6.5573   C.2       1 RES1   0.0000
    27 C27    -15.9363 -10.1005  -5.2699   C.2       1 RES1   0.0000
    28 C28    -14.8154 -13.8281  -4.1162   C.2       1 RES1   0.0000
    29 O29    -14.6470 -14.8236  -3.2135   O.co2     1 RES1   0.0000
    30 O30    -13.8617 -13.1954  -4.5098   O.co2     1 RES1  -1.0000
    31 C31    -15.7370 -19.8670  -4.4800   C.2       1 RES1   0.0000
    32 O32    -15.2337 -20.5270  -3.4263   O.3       1 RES1   0.0000
@<TRIPOS>BOND
     1     2     1    1
     2     2     3    1
     3     2     4    1
     4     4     5    2
     5     5     6    1
     6     6     7    1
     7     7     8    2
     8     7     9   am
     9     9    10    1
    10    10    11    1
    11    11    12    1
    12    12    13    1
    13    13    14    1
    14    14    15    2
    15    14    16   am
    16    16    17    1
    17    17    18    1
    18    18    19    1
    19    19    20    2
    20    20    21    1
    21    21    22    1
    22    22    23    2
    23    23    24    1
    24    24    25    2
    25    25    26    1
    26    26    27    2
    27    17    28    1
    28    28    29    2
    29    28    30    1
    30     6    31    2
    31    31    32    1
    32    32     4    1
    33    13     9    1
    34    27    19    1
    35    27    22    1
@<TRIPOS>SUBSTRUCTURE
     1 RES1        1 GROUP             0 ****  ****    0  
@<TRIPOS>MOLECULE
ligand_90
    32    35     1     0     0
SMALL
USER_CHARGES
****
Generated from the CSD

@<TRIPOS>ATOM
     1 C1     -15.9557 -21.6325  -0.5829   C.3       1 RES1   0.0000
     2 C2     -15.3371 -20.2745  -0.8994   C.3       1 RES1   0.0000
     3 N3     -15.8185 -19.2326   0.0112   N.3       1 RES1   1.0000
     4 C4     -15.6472 -19.8981  -2.3170   C.2       1 RES1   0.0000
     5 N5     -16.3703 -18.8981  -2.6436   N.2       1 RES1   0.0000
     6 C6     -16.4613 -18.8283  -3.9813   C.2       1 RES1   0.0000
     7 C7     -17.2314 -17.7748  -4.6741   C.2       1 RES1   0.0000
     8 O8     -16.8671 -17.5037  -5.8055   O.2       1 RES1   0.0000
     9 N9     -18.3240 -17.1025  -4.1605   N.am      1 RES1   0.0000
    10 C10    -19.0436 -17.3868  -2.9185   C.3       1 RES1   0.0000
    11 C11    -20.2008 -16.5113  -2.9485   C.3       1 RES1   0.0000
    12 C12    -20.2323 -15.7192  -4.1110   C.3       1 RES1   0.0000
    13 C13    -19.0212 -16.0870  -4.9522   C.3       1 RES1   0.0000
    14 C14    -18.1632 -14.8824  -5.2194   C.2       1 RES1   0.0000
    15 O15    -18.4896 -14.0802  -6.0787   O.2       1 RES1   0.0000
    16 N16    -17.0648 -14.6844  -4.4681   N.am      1 RES1   0.0000
    17 C17    -16.2089 -13.5109  -4.6461   C.3       1 RES1   0.0000
    18 C18    -16.8309 -12.2708  -3.9352   C.3       1 RES1   0.0000
    19 C19    -16.0037 -10.9917  -4.0873   C.2       1 RES1   0.0000
    20 C20    -16.2584  -9.9912  -4.9530   C.2       1 RES1   0.0000
    21 N21    -15.3206  -9.0013  -4.8264   N.2       1 RES1   0.0000
    22 C22    -14.4091  -9.3306  -3.8556   C.2       1 RES1   0.0000
    23 C23    -13.2638  -8.6787  -3.3365   C.2       1 RES1   0.0000
    24 C24    -12.5167  -9.2836  -2.3195   C.2       1 RES1   0.0000
    25 C25    -12.8985 -10.5452  -1.8059   C.2       1 RES1   0.0000
    26 C26    -14.0205 -11.2003  -2.3056   C.2       1 RES1   0.0000
    27 C27    -14.7921 -10.6041  -3.3374   C.2       1 RES1   0.0000
    28 C28    -14.8154 -13.8281  -4.1162   C.2       1 RES1   0.0000
    29 O29    -14.6491 -14.8135  -3.2021   O.co2     1 RES1   0.0000
    30 O30    -13.8599 -13.2045  -4.5199   O.co2     1 RES1  -1.0000
    31 C31    -15.7365 -19.8665  -4.4786   C.2       1 RES1   0.0000
    32 O32    -15.2330 -20.5259  -3.4246   O.3       1 RES1   0.0000
@<TRIPOS>BOND
     1     2     1    1
     2     2     3    1
     3     2     4    1
     4     4     5    2
     5     5     6    1
     6     6     7    1
     7     7     8    2
     8     7     9   am
     9     9    10    1
    10    10    11    1
    11    11    12    1
    12    12    13    1
    13    13    14    1
    14    14    15    2
    15    14    16   am
    16    16    17    1
    17    17    18    1
    18    18    19    1
    19    19    20    2
    20    20    21    1
    21    21    22    1
    22    22    23    2
    23    23    24    1
    24    24    25    2
    25    25    26    1
    26    26    27    2
    27    17    28    1
    28    28    29    2
    29    28    30    1
    30     6    31    2
    31    31    32    1
    32    32     4    1
    33    13     9    1
    34    27    19    1
    35    27    22    1
@<TRIPOS>SUBSTRUCTURE
     1 RES1        1 GROUP             0 ****  ****    0  
@<TRIPOS>MOLECULE
ligand_91
    32    35     1     0     0
SMALL
USER_CHARGES
****
Generated from the CSD

@<TRIPOS>ATOM
     1 C1     -16.1116 -21.6212  -0.5735   C.3       1 RES1   0.0000
     2 C2     -15.4751 -20.2668  -0.8694   C.3       1 RES1   0.0000
     3 N3     -15.9719 -19.2243   0.0322   N.3       1 RES1   1.0000
     4 C4     -15.7458 -19.8835  -2.2932   C.2       1 RES1   0.0000
     5 N5     -14.8313 -19.6043  -3.1388   N.2       1 RES1   0.0000
     6 C6     -15.3911 -19.3005  -4.3207   C.2       1 RES1   0.0000
     7 C7     -14.5942 -18.9331  -5.5094   C.2       1 RES1   0.0000
     8 O8     -15.1127 -19.1568  -6.5899   O.2       1 RES1   0.0000
     9 N9     -13.3431 -18.3466  -5.4937   N.am      1 RES1   0.0000
    10 C10    -12.6174 -17.8233  -4.3358   C.3       1 RES1   0.0000
    11 C11    -11.4513 -17.1627  -4.8931   C.3       1 RES1   0.0000
    12 C12    -11.4167 -17.2504  -6.2969   C.3       1 RES1   0.0000
    13 C13    -12.6561 -18.0089  -6.7421   C.3       1 RES1   0.0000
    14 C14    -12.2860 -19.2286  -7.5384   C.2       1 RES1   0.0000
    15 O15    -11.9605 -19.1164  -8.7089   O.2       1 RES1   0.0000
    16 N16    -12.2760 -20.4276  -6.9283   N.am      1 RES1   0.0000
    17 C17    -11.8812 -21.6486  -7.6316   C.3       1 RES1   0.0000
    18 C18    -10.7542 -22.3876  -6.8482   C.3       1 RES1   0.0000
    19 C19    -10.2695 -23.6715  -7.5267   C.2       1 RES1   0.0000
    20 C20     -9.1457 -23.7951  -8.2596   C.2       1 RES1   0.0000
    21 N21     -9.0158 -25.0784  -8.7198   N.2       1 RES1   0.0000
    22 C22    -10.0693 -25.8461  -8.2927   C.2       1 RES1   0.0000
    23 C23    -10.4193 -27.2059  -8.4786   C.2       1 RES1   0.0000
    24 C24    -11.5891 -27.7114  -7.9004   C.2       1 RES1   0.0000
    25 C25    -12.4267 -26.8708  -7.1303   C.2       1 RES1   0.0000
    26 C26    -12.0985 -25.5317  -6.9387   C.2       1 RES1   0.0000
    27 C27    -10.9162 -24.9990  -7.5167   C.2       1 RES1   0.0000
    28 C28    -13.1098 -22.5300  -7.8235   C.2       1 RES1   0.0000
    29 O29    -14.1803 -22.3828  -7.0071   O.co2     1 RES1   0.0000
    30 O30    -13.1291 -23.3534  -8.7104   O.co2     1 RES1  -1.0000
    31 C31    -16.7371 -19.4093  -4.1570   C.2       1 RES1   0.0000
    32 O32    -16.9428 -19.7755  -2.8830   O.3       1 RES1   0.0000
@<TRIPOS>BOND
     1     2     1    1
     2     2     3    1
     3     2     4    1
     4     4     5    2
     5     5     6    1
     6     6     7    1
     7     7     8    2
     8     7     9   am
     9     9    10    1
    10    10    11    1
    11    11    12    1
    12    12    13    1
    13    13    14    1
    14    14    15    2
    15    14    16   am
    16    16    17    1
    17    17    18    1
    18    18    19    1
    19    19    20    2
    20    20    21    1
    21    21    22    1
    22    22    23    2
    23    23    24    1
    24    24    25    2
    25    25    26    1
    26    26    27    2
    27    17    28    1
    28    28    29    2
    29    28    30    1
    30     6    31    2
    31    31    32    1
    32    32     4    1
    33    13     9    1
    34    27    19    1
    35    27    22    1
@<TRIPOS>SUBSTRUCTURE
     1 RES1        1 GROUP             0 ****  ****    0  
@<TRIPOS>MOLECULE
ligand_92
    32    35     1     0     0
SMALL
USER_CHARGES
****
Generated from the CSD

@<TRIPOS>ATOM
     1 C1     -16.0940 -21.5301  -0.5205   C.3       1 RES1   0.0000
     2 C2     -15.4541 -20.1816  -0.8349   C.3       1 RES1   0.0000
     3 N3     -15.9455 -19.1263   0.0546   N.3       1 RES1   1.0000
     4 C4     -15.7272 -19.8153  -2.2628   C.2       1 RES1   0.0000
     5 N5     -14.8140 -19.5495  -3.1141   N.2       1 RES1   0.0000
     6 C6     -15.3759 -19.2588  -4.2984   C.2       1 RES1   0.0000
     7 C7     -14.5808 -18.9088  -5.4935   C.2       1 RES1   0.0000
     8 O8     -15.1417 -18.2135  -6.3231   O.2       1 RES1   0.0000
     9 N9     -13.2709 -19.2802  -5.7299   N.am      1 RES1   0.0000
    10 C10    -12.3516 -19.9455  -4.8061   C.3       1 RES1   0.0000
    11 C11    -11.0687 -19.9367  -5.4848   C.3       1 RES1   0.0000
    12 C12    -11.1448 -19.3204  -6.7473   C.3       1 RES1   0.0000
    13 C13    -12.5773 -18.8539  -6.9469   C.3       1 RES1   0.0000
    14 C14    -13.1745 -19.4586  -8.1865   C.2       1 RES1   0.0000
    15 O15    -12.8957 -19.0014  -9.2827   O.2       1 RES1   0.0000
    16 N16    -13.9770 -20.5318  -8.0670   N.am      1 RES1   0.0000
    17 C17    -14.5551 -21.1974  -9.2351   C.3       1 RES1   0.0000
    18 C18    -14.2263 -22.7210  -9.2111   C.3       1 RES1   0.0000
    19 C19    -14.7757 -23.4909 -10.4150   C.2       1 RES1   0.0000
    20 C20    -15.8778 -24.2659 -10.4138   C.2       1 RES1   0.0000
    21 N21    -16.0814 -24.8063 -11.6555   N.2       1 RES1   0.0000
    22 C22    -15.1014 -24.3922 -12.5214   C.2       1 RES1   0.0000
    23 C23    -14.8422 -24.6481 -13.8902   C.2       1 RES1   0.0000
    24 C24    -13.7332 -24.0637 -14.5121   C.2       1 RES1   0.0000
    25 C25    -12.8668 -23.2177 -13.7807   C.2       1 RES1   0.0000
    26 C26    -13.1061 -22.9568 -12.4344   C.2       1 RES1   0.0000
    27 C27    -14.2256 -23.5397 -11.7845   C.2       1 RES1   0.0000
    28 C28    -16.0575 -20.9422  -9.2587   C.2       1 RES1   0.0000
    29 O29    -16.7031 -20.6058  -8.1166   O.co2     1 RES1   0.0000
    30 O30    -16.6686 -21.0323 -10.2995   O.co2     1 RES1  -1.0000
    31 C31    -16.7217 -19.3615  -4.1299   C.2       1 RES1   0.0000
    32 O32    -16.9254 -19.7110  -2.8510   O.3       1 RES1   0.0000
@<TRIPOS>BOND
     1     2     1    1
     2     2     3    1
     3     2     4    1
     4     4     5    2
     5     5     6    1
     6     6     7    1
     7     7     8    2
     8     7     9   am
     9     9    10    1
    10    10    11    1
    11    11    12    1
    12    12    13    1
    13    13    14    1
    14    14    15    2
    15    14    16   am
    16    16    17    1
    17    17    18    1
    18    18    19    1
    19    19    20    2
    20    20    21    1
    21    21    22    1
    22    22    23    2
    23    23    24    1
    24    24    25    2
    25    25    26    1
    26    26    27    2
    27    17    28    1
    28    28    29    2
    29    28    30    1
    30     6    31    2
    31    31    32    1
    32    32     4    1
    33    13     9    1
    34    27    19    1
    35    27    22    1
@<TRIPOS>SUBSTRUCTURE
     1 RES1        1 GROUP             0 ****  ****    0  
@<TRIPOS>MOLECULE
ligand_93
    32    35     1     0     0
SMALL
USER_CHARGES
****
Generated from the CSD

@<TRIPOS>ATOM
     1 C1     -16.1688 -21.6152  -0.4754   C.3       1 RES1   0.0000
     2 C2     -15.4931 -20.2866  -0.7998   C.3       1 RES1   0.0000
     3 N3     -15.9475 -19.2145   0.0894   N.3       1 RES1   1.0000
     4 C4     -15.7664 -19.9178  -2.2269   C.2       1 RES1   0.0000
     5 N5     -16.4450 -18.8951  -2.5779   N.2       1 RES1   0.0000
     6 C6     -16.5126 -18.8401  -3.9177   C.2       1 RES1   0.0000
     7 C7     -17.2304 -17.7671  -4.6363   C.2       1 RES1   0.0000
     8 O8     -17.5692 -16.8082  -3.9640   O.2       1 RES1   0.0000
     9 N9     -17.5218 -17.7540  -5.9871   N.am      1 RES1   0.0000
    10 C10    -16.7443 -18.6172  -6.8906   C.3       1 RES1   0.0000
    11 C11    -17.0022 -18.0696  -8.2775   C.3       1 RES1   0.0000
    12 C12    -17.4182 -16.6390  -8.0391   C.3       1 RES1   0.0000
    13 C13    -18.2458 -16.7443  -6.7665   C.3       1 RES1   0.0000
    14 C14    -19.6735 -17.0971  -7.0767   C.2       1 RES1   0.0000
    15 O15    -19.9814 -18.2579  -7.2916   O.2       1 RES1   0.0000
    16 N16    -20.6027 -16.1243  -7.0665   N.am      1 RES1   0.0000
    17 C17    -22.0184 -16.4061  -7.3070   C.3       1 RES1   0.0000
    18 C18    -22.8910 -15.8379  -6.1470   C.3       1 RES1   0.0000
    19 C19    -22.6364 -16.5103  -4.7955   C.2       1 RES1   0.0000
    20 C20    -21.9022 -15.9960  -3.7896   C.2       1 RES1   0.0000
    21 N21    -21.8797 -16.8592  -2.7266   N.2       1 RES1   0.0000
    22 C22    -22.6128 -17.9833  -3.0108   C.2       1 RES1   0.0000
    23 C23    -22.9097 -19.1603  -2.2808   C.2       1 RES1   0.0000
    24 C24    -23.7079 -20.1558  -2.8554   C.2       1 RES1   0.0000
    25 C25    -24.2206 -19.9943  -4.1639   C.2       1 RES1   0.0000
    26 C26    -23.9373 -18.8445  -4.8958   C.2       1 RES1   0.0000
    27 C27    -23.1296 -17.8225  -4.3314   C.2       1 RES1   0.0000
    28 C28    -22.4186 -15.8211  -8.6563   C.2       1 RES1   0.0000
    29 O29    -21.6890 -14.8180  -9.2002   O.co2     1 RES1   0.0000
    30 O30    -23.3822 -16.2601  -9.2425   O.co2     1 RES1  -1.0000
    31 C31    -15.8212 -19.9122  -4.3899   C.2       1 RES1   0.0000
    32 O32    -15.3600 -20.5762  -3.3195   O.3       1 RES1   0.0000
@<TRIPOS>BOND
     1     2     1    1
     2     2     3    1
     3     2     4    1
     4     4     5    2
     5     5     6    1
     6     6     7    1
     7     7     8    2
     8     7     9   am
     9     9    10    1
    10    10    11    1
    11    11    12    1
    12    12    13    1
    13    13    14    1
    14    14    15    2
    15    14    16   am
    16    16    17    1
    17    17    18    1
    18    18    19    1
    19    19    20    2
    20    20    21    1
    21    21    22    1
    22    22    23    2
    23    23    24    1
    24    24    25    2
    25    25    26    1
    26    26    27    2
    27    17    28    1
    28    28    29    2
    29    28    30    1
    30     6    31    2
    31    31    32    1
    32    32     4    1
    33    13     9    1
    34    27    19    1
    35    27    22    1
@<TRIPOS>SUBSTRUCTURE
     1 RES1        1 GROUP             0 ****  ****    0  
@<TRIPOS>MOLECULE
ligand_94
    32    35     1     0     0
SMALL
USER_CHARGES
****
Generated from the CSD

@<TRIPOS>ATOM
     1 C1     -15.9148 -21.6163  -0.4867   C.3       1 RES1   0.0000
     2 C2     -15.2913 -20.2615  -0.8071   C.3       1 RES1   0.0000
     3 N3     -15.7690 -19.2152   0.1004   N.3       1 RES1   1.0000
     4 C4     -15.5997 -19.8882  -2.2259   C.2       1 RES1   0.0000
     5 N5     -14.7081 -19.6109  -3.0963   N.2       1 RES1   0.0000
     6 C6     -15.2990 -19.3165  -4.2654   C.2       1 RES1   0.0000
     7 C7     -14.5340 -18.9536  -5.4763   C.2       1 RES1   0.0000
     8 O8     -13.3812 -18.6013  -5.2940   O.2       1 RES1   0.0000
     9 N9     -15.0049 -19.0030  -6.7745   N.am      1 RES1   0.0000
    10 C10    -16.2726 -19.5638  -7.2431   C.3       1 RES1   0.0000
    11 C11    -16.1863 -19.5233  -8.6914   C.3       1 RES1   0.0000
    12 C12    -14.9660 -18.9785  -9.1314   C.3       1 RES1   0.0000
    13 C13    -14.1435 -18.6358  -7.9003   C.3       1 RES1   0.0000
    14 C14    -13.7744 -17.1790  -7.8857   C.2       1 RES1   0.0000
    15 O15    -12.8587 -16.7754  -8.5836   O.2       1 RES1   0.0000
    16 N16    -14.4964 -16.3307  -7.1313   N.am      1 RES1   0.0000
    17 C17    -14.2428 -14.8895  -7.1321   C.3       1 RES1   0.0000
    18 C18    -14.9718 -14.2094  -8.3305   C.3       1 RES1   0.0000
    19 C19    -14.4382 -14.6354  -9.7007   C.2       1 RES1   0.0000
    20 C20    -15.0241 -15.5211 -10.5299   C.2       1 RES1   0.0000
    21 N21    -14.2804 -15.6704 -11.6701   N.2       1 RES1   0.0000
    22 C22    -13.1666 -14.8712 -11.6199   C.2       1 RES1   0.0000
    23 C23    -12.0899 -14.6474 -12.5125   C.2       1 RES1   0.0000
    24 C24    -11.0754 -13.7460 -12.1711   C.2       1 RES1   0.0000
    25 C25    -11.1180 -13.0559 -10.9369   C.2       1 RES1   0.0000
    26 C26    -12.1681 -13.2651 -10.0474   C.2       1 RES1   0.0000
    27 C27    -13.2073 -14.1753 -10.3745   C.2       1 RES1   0.0000
    28 C28    -14.6855 -14.3070  -5.7950   C.2       1 RES1   0.0000
    29 O29    -15.5920 -14.9691  -5.0373   O.co2     1 RES1   0.0000
    30 O30    -14.2196 -13.2585  -5.4096   O.co2     1 RES1  -1.0000
    31 C31    -16.6399 -19.4293  -4.0667   C.2       1 RES1   0.0000
    32 O32    -16.8117 -19.7883  -2.7857   O.3       1 RES1   0.0000
@<TRIPOS>BOND
     1     2     1    1
     2     2     3    1
     3     2     4    1
     4     4     5    2
     5     5     6    1
     6     6     7    1
     7     7     8    2
     8     7     9   am
     9     9    10    1
    10    10    11    1
    11    11    12    1
    12    12    13    1
    13    13    14    1
    14    14    15    2
    15    14    16   am
    16    16    17    1
    17    17    18    1
    18    18    19    1
    19    19    20    2
    20    20    21    1
    21    21    22    1
    22    22    23    2
    23    23    24    1
    24    24    25    2
    25    25    26    1
    26    26    27    2
    27    17    28    1
    28    28    29    2
    29    28    30    1
    30     6    31    2
    31    31    32    1
    32    32     4    1
    33    13     9    1
    34    27    19    1
    35    27    22    1
@<TRIPOS>SUBSTRUCTURE
     1 RES1        1 GROUP             0 ****  ****    0  
@<TRIPOS>MOLECULE
ligand_95
    32    35     1     0     0
SMALL
USER_CHARGES
****
Generated from the CSD

@<TRIPOS>ATOM
     1 C1     -16.0359 -21.6093  -0.5062   C.3       1 RES1   0.0000
     2 C2     -15.4082 -20.2545  -0.8183   C.3       1 RES1   0.0000
     3 N3     -15.9023 -19.2071   0.0792   N.3       1 RES1   1.0000
     4 C4     -15.6928 -19.8838  -2.2427   C.2       1 RES1   0.0000
     5 N5     -16.4075 -18.8834  -2.5862   N.2       1 RES1   0.0000
     6 C6     -16.4753 -18.8195  -3.9256   C.2       1 RES1   0.0000
     7 C7     -17.2304 -17.7671  -4.6363   C.2       1 RES1   0.0000
     8 O8     -17.6031 -16.8260  -3.9569   O.2       1 RES1   0.0000
     9 N9     -17.5218 -17.7540  -5.9871   N.am      1 RES1   0.0000
    10 C10    -17.0237 -18.6673  -7.0162   C.3       1 RES1   0.0000
    11 C11    -17.4874 -18.1046  -8.2711   C.3       1 RES1   0.0000
    12 C12    -18.2290 -16.9247  -8.0774   C.3       1 RES1   0.0000
    13 C13    -18.2642 -16.6423  -6.5846   C.3       1 RES1   0.0000
    14 C14    -19.6787 -16.5648  -6.0827   C.2       1 RES1   0.0000
    15 O15    -20.2924 -17.5885  -5.8297   O.2       1 RES1   0.0000
    16 N16    -20.2322 -15.3561  -5.8760   N.am      1 RES1   0.0000
    17 C17    -21.5866 -15.2082  -5.3419   C.3       1 RES1   0.0000
    18 C18    -21.8149 -13.7525  -4.8332   C.3       1 RES1   0.0000
    19 C19    -23.2040 -13.5178  -4.2342   C.2       1 RES1   0.0000
    20 C20    -24.2304 -12.9008  -4.8516   C.2       1 RES1   0.0000
    21 N21    -25.3255 -12.8603  -4.0302   N.2       1 RES1   0.0000
    22 C22    -25.0428 -13.4616  -2.8301   C.2       1 RES1   0.0000
    23 C23    -25.7992 -13.6873  -1.6541   C.2       1 RES1   0.0000
    24 C24    -25.2180 -14.3478  -0.5659   C.2       1 RES1   0.0000
    25 C25    -23.8765 -14.7918  -0.6326   C.2       1 RES1   0.0000
    26 C26    -23.1185 -14.5769  -1.7802   C.2       1 RES1   0.0000
    27 C27    -23.6890 -13.9088  -2.8954   C.2       1 RES1   0.0000
    28 C28    -22.5907 -15.5954  -6.4212   C.2       1 RES1   0.0000
    29 O29    -22.2265 -15.5618  -7.7252   O.co2     1 RES1   0.0000
    30 O30    -23.7083 -15.9403  -6.1099   O.co2     1 RES1  -1.0000
    31 C31    -15.7449 -19.8618  -4.4056   C.2       1 RES1   0.0000
    32 O32    -15.2614 -20.5178  -3.3401   O.3       1 RES1   0.0000
@<TRIPOS>BOND
     1     2     1    1
     2     2     3    1
     3     2     4    1
     4     4     5    2
     5     5     6    1
     6     6     7    1
     7     7     8    2
     8     7     9   am
     9     9    10    1
    10    10    11    1
    11    11    12    1
    12    12    13    1
    13    13    14    1
    14    14    15    2
    15    14    16   am
    16    16    17    1
    17    17    18    1
    18    18    19    1
    19    19    20    2
    20    20    21    1
    21    21    22    1
    22    22    23    2
    23    23    24    1
    24    24    25    2
    25    25    26    1
    26    26    27    2
    27    17    28    1
    28    28    29    2
    29    28    30    1
    30     6    31    2
    31    31    32    1
    32    32     4    1
    33    13     9    1
    34    27    19    1
    35    27    22    1
@<TRIPOS>SUBSTRUCTURE
     1 RES1        1 GROUP             0 ****  ****    0  
@<TRIPOS>MOLECULE
ligand_96
    32    35     1     0     0
SMALL
USER_CHARGES
****
Generated from the CSD

@<TRIPOS>ATOM
     1 C1     -16.0382 -21.6100  -0.5061   C.3       1 RES1   0.0000
     2 C2     -15.4100 -20.2553  -0.8180   C.3       1 RES1   0.0000
     3 N3     -15.9039 -19.2078   0.0794   N.3       1 RES1   1.0000
     4 C4     -15.6941 -19.8845  -2.2425   C.2       1 RES1   0.0000
     5 N5     -16.4084 -18.8838  -2.5860   N.2       1 RES1   0.0000
     6 C6     -16.4758 -18.8198  -3.9254   C.2       1 RES1   0.0000
     7 C7     -17.2304 -17.7671  -4.6363   C.2       1 RES1   0.0000
     8 O8     -17.6026 -16.8257  -3.9570   O.2       1 RES1   0.0000
     9 N9     -17.5218 -17.7540  -5.9871   N.am      1 RES1   0.0000
    10 C10    -17.0237 -18.6673  -7.0162   C.3       1 RES1   0.0000
    11 C11    -17.4874 -18.1046  -8.2711   C.3       1 RES1   0.0000
    12 C12    -18.2290 -16.9247  -8.0774   C.3       1 RES1   0.0000
    13 C13    -18.2642 -16.6423  -6.5846   C.3       1 RES1   0.0000
    14 C14    -19.6787 -16.5648  -6.0827   C.2       1 RES1   0.0000
    15 O15    -20.2924 -17.5885  -5.8297   O.2       1 RES1   0.0000
    16 N16    -20.2322 -15.3561  -5.8760   N.am      1 RES1   0.0000
    17 C17    -21.5866 -15.2082  -5.3419   C.3       1 RES1   0.0000
    18 C18    -21.8149 -13.7525  -4.8332   C.3       1 RES1   0.0000
    19 C19    -23.2065 -13.5159  -4.2408   C.2       1 RES1   0.0000
    20 C20    -23.5046 -13.4834  -2.9273   C.2       1 RES1   0.0000
    21 N21    -24.8424 -13.2514  -2.7479   N.2       1 RES1   0.0000
    22 C22    -25.4697 -13.1218  -3.9609   C.2       1 RES1   0.0000
    23 C23    -26.8131 -12.8808  -4.3395   C.2       1 RES1   0.0000
    24 C24    -27.1529 -12.7983  -5.6945   C.2       1 RES1   0.0000
    25 C25    -26.1610 -12.9552  -6.6909   C.2       1 RES1   0.0000
    26 C26    -24.8363 -13.1941  -6.3364   C.2       1 RES1   0.0000
    27 C27    -24.4705 -13.2814  -4.9674   C.2       1 RES1   0.0000
    28 C28    -22.5907 -15.5954  -6.4212   C.2       1 RES1   0.0000
    29 O29    -22.2312 -15.5472  -7.7261   O.co2     1 RES1   0.0000
    30 O30    -23.7040 -15.9534  -6.1092   O.co2     1 RES1  -1.0000
    31 C31    -15.7457 -19.8624  -4.4054   C.2       1 RES1   0.0000
    32 O32    -15.2627 -20.5186  -3.3398   O.3       1 RES1   0.0000
@<TRIPOS>BOND
     1     2     1    1
     2     2     3    1
     3     2     4    1
     4     4     5    2
     5     5     6    1
     6     6     7    1
     7     7     8    2
     8     7     9   am
     9     9    10    1
    10    10    11    1
    11    11    12    1
    12    12    13    1
    13    13    14    1
    14    14    15    2
    15    14    16   am
    16    16    17    1
    17    17    18    1
    18    18    19    1
    19    19    20    2
    20    20    21    1
    21    21    22    1
    22    22    23    2
    23    23    24    1
    24    24    25    2
    25    25    26    1
    26    26    27    2
    27    17    28    1
    28    28    29    2
    29    28    30    1
    30     6    31    2
    31    31    32    1
    32    32     4    1
    33    13     9    1
    34    27    19    1
    35    27    22    1
@<TRIPOS>SUBSTRUCTURE
     1 RES1        1 GROUP             0 ****  ****    0  
@<TRIPOS>MOLECULE
ligand_97
    32    35     1     0     0
SMALL
USER_CHARGES
****
Generated from the CSD

@<TRIPOS>ATOM
     1 C1     -16.1057 -21.5655  -0.4736   C.3       1 RES1   0.0000
     2 C2     -15.4631 -20.2191  -0.7917   C.3       1 RES1   0.0000
     3 N3     -15.9619 -19.1578   0.0866   N.3       1 RES1   1.0000
     4 C4     -15.7243 -19.8624  -2.2242   C.2       1 RES1   0.0000
     5 N5     -16.5112 -20.5177  -2.9863   N.2       1 RES1   0.0000
     6 C6     -16.5300 -19.9524  -4.2040   C.2       1 RES1   0.0000
     7 C7     -17.3501 -20.4786  -5.3147   C.2       1 RES1   0.0000
     8 O8     -17.6911 -19.6667  -6.1578   O.2       1 RES1   0.0000
     9 N9     -17.7339 -21.7954  -5.4823   N.am      1 RES1   0.0000
    10 C10    -16.9999 -22.8473  -4.7609   C.3       1 RES1   0.0000
    11 C11    -17.3656 -24.1363  -5.4642   C.3       1 RES1   0.0000
    12 C12    -17.7985 -23.6966  -6.8411   C.3       1 RES1   0.0000
    13 C13    -18.5339 -22.3954  -6.5553   C.3       1 RES1   0.0000
    14 C14    -19.9706 -22.6528  -6.1970   C.2       1 RES1   0.0000
    15 O15    -20.2646 -22.9887  -5.0615   O.2       1 RES1   0.0000
    16 N16    -20.9200 -22.4620  -7.1309   N.am      1 RES1   0.0000
    17 C17    -22.3415 -22.6460  -6.8357   C.3       1 RES1   0.0000
    18 C18    -23.2171 -21.9682  -7.9329   C.3       1 RES1   0.0000
    19 C19    -23.0906 -20.4429  -7.9697   C.2       1 RES1   0.0000
    20 C20    -23.9450 -19.5711  -7.3996   C.2       1 RES1   0.0000
    21 N21    -23.5345 -18.2844  -7.6262   N.2       1 RES1   0.0000
    22 C22    -22.3778 -18.2767  -8.3636   C.2       1 RES1   0.0000
    23 C23    -21.5508 -17.2413  -8.8637   C.2       1 RES1   0.0000
    24 C24    -20.4049 -17.5577  -9.6018   C.2       1 RES1   0.0000
    25 C25    -20.0667 -18.9082  -9.8530   C.2       1 RES1   0.0000
    26 C26    -20.8691 -19.9381  -9.3702   C.2       1 RES1   0.0000
    27 C27    -22.0361 -19.6387  -8.6191   C.2       1 RES1   0.0000
    28 C28    -22.6348 -24.1369  -6.7174   C.2       1 RES1   0.0000
    29 O29    -21.8057 -25.0362  -7.2990   O.co2     1 RES1   0.0000
    30 O30    -23.6031 -24.5140  -6.0969   O.co2     1 RES1  -1.0000
    31 C31    -15.6901 -18.8836  -4.1535   C.2       1 RES1   0.0000
    32 O32    -15.1943 -18.8405  -2.9078   O.3       1 RES1   0.0000
@<TRIPOS>BOND
     1     2     1    1
     2     2     3    1
     3     2     4    1
     4     4     5    2
     5     5     6    1
     6     6     7    1
     7     7     8    2
     8     7     9   am
     9     9    10    1
    10    10    11    1
    11    11    12    1
    12    12    13    1
    13    13    14    1
    14    14    15    2
    15    14    16   am
    16    16    17    1
    17    17    18    1
    18    18    19    1
    19    19    20    2
    20    20    21    1
    21    21    22    1
    22    22    23    2
    23    23    24    1
    24    24    25    2
    25    25    26    1
    26    26    27    2
    27    17    28    1
    28    28    29    2
    29    28    30    1
    30     6    31    2
    31    31    32    1
    32    32     4    1
    33    13     9    1
    34    27    19    1
    35    27    22    1
@<TRIPOS>SUBSTRUCTURE
     1 RES1        1 GROUP             0 ****  ****    0  
@<TRIPOS>MOLECULE
ligand_98
    32    35     1     0     0
SMALL
USER_CHARGES
****
Generated from the CSD

@<TRIPOS>ATOM
     1 C1     -16.0988 -21.5682  -0.4760   C.3       1 RES1   0.0000
     2 C2     -15.4577 -20.2211  -0.7938   C.3       1 RES1   0.0000
     3 N3     -15.9563 -19.1609   0.0859   N.3       1 RES1   1.0000
     4 C4     -15.7209 -19.8635  -2.2257   C.2       1 RES1   0.0000
     5 N5     -16.5083 -20.5188  -2.9874   N.2       1 RES1   0.0000
     6 C6     -16.5291 -19.9526  -4.2046   C.2       1 RES1   0.0000
     7 C7     -17.3501 -20.4786  -5.3147   C.2       1 RES1   0.0000
     8 O8     -17.6919 -19.6665  -6.1573   O.2       1 RES1   0.0000
     9 N9     -17.7339 -21.7954  -5.4823   N.am      1 RES1   0.0000
    10 C10    -16.9999 -22.8473  -4.7609   C.3       1 RES1   0.0000
    11 C11    -17.3656 -24.1363  -5.4642   C.3       1 RES1   0.0000
    12 C12    -17.7985 -23.6966  -6.8411   C.3       1 RES1   0.0000
    13 C13    -18.5339 -22.3954  -6.5553   C.3       1 RES1   0.0000
    14 C14    -19.9706 -22.6528  -6.1970   C.2       1 RES1   0.0000
    15 O15    -20.2646 -22.9887  -5.0615   O.2       1 RES1   0.0000
    16 N16    -20.9200 -22.4620  -7.1309   N.am      1 RES1   0.0000
    17 C17    -22.3415 -22.6460  -6.8357   C.3       1 RES1   0.0000
    18 C18    -23.2171 -21.9832  -7.9421   C.3       1 RES1   0.0000
    19 C19    -23.0792 -20.4600  -8.0096   C.2       1 RES1   0.0000
    20 C20    -22.3524 -19.7777  -8.9159   C.2       1 RES1   0.0000
    21 N21    -22.4479 -18.4309  -8.6867   N.2       1 RES1   0.0000
    22 C22    -23.2558 -18.1883  -7.6050   C.2       1 RES1   0.0000
    23 C23    -23.6797 -17.0035  -6.9548   C.2       1 RES1   0.0000
    24 C24    -24.5288 -17.0813  -5.8452   C.2       1 RES1   0.0000
    25 C25    -24.9669 -18.3386  -5.3670   C.2       1 RES1   0.0000
    26 C26    -24.5587 -19.5129  -5.9933   C.2       1 RES1   0.0000
    27 C27    -23.6974 -19.4560  -7.1205   C.2       1 RES1   0.0000
    28 C28    -22.6314 -24.1362  -6.7004   C.2       1 RES1   0.0000
    29 O29    -21.7992 -25.0402  -7.2701   O.co2     1 RES1   0.0000
    30 O30    -23.5997 -24.5083  -6.0769   O.co2     1 RES1  -1.0000
    31 C31    -15.6900 -18.8831  -4.1543   C.2       1 RES1   0.0000
    32 O32    -15.1927 -18.8406  -2.9092   O.3       1 RES1   0.0000
@<TRIPOS>BOND
     1     2     1    1
     2     2     3    1
     3     2     4    1
     4     4     5    2
     5     5     6    1
     6     6     7    1
     7     7     8    2
     8     7     9   am
     9     9    10    1
    10    10    11    1
    11    11    12    1
    12    12    13    1
    13    13    14    1
    14    14    15    2
    15    14    16   am
    16    16    17    1
    17    17    18    1
    18    18    19    1
    19    19    20    2
    20    20    21    1
    21    21    22    1
    22    22    23    2
    23    23    24    1
    24    24    25    2
    25    25    26    1
    26    26    27    2
    27    17    28    1
    28    28    29    2
    29    28    30    1
    30     6    31    2
    31    31    32    1
    32    32     4    1
    33    13     9    1
    34    27    19    1
    35    27    22    1
@<TRIPOS>SUBSTRUCTURE
     1 RES1        1 GROUP             0 ****  ****    0  
@<TRIPOS>MOLECULE
ligand_99
    32    35     1     0     0
SMALL
USER_CHARGES
****
Generated from the CSD

@<TRIPOS>ATOM
     1 C1     -15.9568 -21.6348  -0.5851   C.3       1 RES1   0.0000
     2 C2     -15.3379 -20.2768  -0.9010   C.3       1 RES1   0.0000
     3 N3     -15.8191 -19.2352   0.0101   N.3       1 RES1   1.0000
     4 C4     -15.6478 -19.8997  -2.3184   C.2       1 RES1   0.0000
     5 N5     -16.3707 -18.8994  -2.6445   N.2       1 RES1   0.0000
     6 C6     -16.4616 -18.8289  -3.9822   C.2       1 RES1   0.0000
     7 C7     -17.2314 -17.7749  -4.6746   C.2       1 RES1   0.0000
     8 O8     -16.8670 -17.5033  -5.8058   O.2       1 RES1   0.0000
     9 N9     -18.3239 -17.1026  -4.1607   N.am      1 RES1   0.0000
    10 C10    -19.0433 -17.3870  -2.9187   C.3       1 RES1   0.0000
    11 C11    -20.2005 -16.5115  -2.9484   C.3       1 RES1   0.0000
    12 C12    -20.2321 -15.7193  -4.1108   C.3       1 RES1   0.0000
    13 C13    -19.0212 -16.0870  -4.9522   C.3       1 RES1   0.0000
    14 C14    -18.1632 -14.8824  -5.2194   C.2       1 RES1   0.0000
    15 O15    -18.4896 -14.0802  -6.0787   O.2       1 RES1   0.0000
    16 N16    -17.0648 -14.6844  -4.4681   N.am      1 RES1   0.0000
    17 C17    -16.2089 -13.5108  -4.6461   C.3       1 RES1   0.0000
    18 C18    -15.2720 -13.3288  -3.4136   C.3       1 RES1   0.0000
    19 C19    -16.0156 -13.0120  -2.1134   C.2       1 RES1   0.0000
    20 C20    -17.2739 -12.5386  -2.0249   C.2       1 RES1   0.0000
    21 N21    -17.6268 -12.3661  -0.7130   N.2       1 RES1   0.0000
    22 C22    -16.5913 -12.7294   0.1102   C.2       1 RES1   0.0000
    23 C23    -16.4281 -12.7467   1.5170   C.2       1 RES1   0.0000
    24 C24    -15.2214 -13.1835   2.0748   C.2       1 RES1   0.0000
    25 C25    -14.1606 -13.6081   1.2408   C.2       1 RES1   0.0000
    26 C26    -14.3036 -13.5962  -0.1438   C.2       1 RES1   0.0000
    27 C27    -15.5197 -13.1567  -0.7300   C.2       1 RES1   0.0000
    28 C28    -15.4191 -13.6645  -5.9406   C.2       1 RES1   0.0000
    29 O29    -15.2260 -14.8953  -6.4715   O.co2     1 RES1   0.0000
    30 O30    -14.9737 -12.6854  -6.4955   O.co2     1 RES1  -1.0000
    31 C31    -15.7370 -19.8670  -4.4800   C.2       1 RES1   0.0000
    32 O32    -15.2337 -20.5270  -3.4263   O.3       1 RES1   0.0000
@<TRIPOS>BOND
     1     2     1    1
     2     2     3    1
     3     2     4    1
     4     4     5    2
     5     5     6    1
     6     6     7    1
     7     7     8    2
     8     7     9   am
     9     9    10    1
    10    10    11    1
    11    11    12    1
    12    12    13    1
    13    13    14    1
    14    14    15    2
    15    14    16   am
    16    16    17    1
    17    17    18    1
    18    18    19    1
    19    19    20    2
    20    20    21    1
    21    21    22    1
    22    22    23    2
    23    23    24    1
    24    24    25    2
    25    25    26    1
    26    26    27    2
    27    17    28    1
    28    28    29    2
    29    28    30    1
    30     6    31    2
    31    31    32    1
    32    32     4    1
    33    13     9    1
    34    27    19    1
    35    27    22    1
@<TRIPOS>SUBSTRUCTURE
     1 RES1        1 GROUP             0 ****  ****    0  
