@<TRIPOS>MOLECULE
native
    32    35     1     0     0
SMALL
USER_CHARGES
****
Generated from the CSD

@<TRIPOS>ATOM
     1 C1      13.1240  56.5650  15.1150   C.3       1 RES1   0.0000
     2 S2      12.7010  57.9180  16.0130   S.o2      1 RES1   0.0000
     3 O3      13.7310  58.9330  15.8900   O.2       1 RES1   0.0000
     4 O4      11.4230  58.4190  15.5510   O.2       1 RES1   0.0000
     5 C5      12.5690  57.4790  17.5540   C.2       1 RES1   0.0000
     6 C6      11.4670  57.7700  18.3790   C.2       1 RES1   0.0000
     7 C7      11.4500  57.3370  19.7170   C.2       1 RES1   0.0000
     8 C8      12.5340  56.6130  20.2430   C.2       1 RES1   0.0000
     9 C9      13.6190  56.3440  19.4030   C.2       1 RES1   0.0000
    10 C10     14.8090  55.5780  19.7760   C.2       1 RES1   0.0000
    11 C11     15.2530  55.4690  21.0830   C.2       1 RES1   0.0000
    12 C12     16.4010  54.6950  21.2820   C.2       1 RES1   0.0000
    13 N13     16.9490  54.5150  22.5490   N.pl3     1 RES1   0.0000
    14 C14     18.1300  53.6560  22.5790   C.3       1 RES1   0.0000
    15 C15     17.9610  52.7550  23.7730   C.3       1 RES1   0.0000
    16 C16     17.7720  53.6660  24.9780   C.3       1 RES1   0.0000
    17 C17     18.0880  52.9420  26.2240   C.2       1 RES1   0.0000
    18 C18     17.7110  51.6120  26.3960   C.2       1 RES1   0.0000
    19 C19     18.0500  50.9510  27.5590   C.2       1 RES1   0.0000
    20 F20     17.6860  49.6740  27.7350   F         1 RES1   0.0000
    21 C21     18.7540  51.6110  28.5400   C.2       1 RES1   0.0000
    22 F22     19.0530  50.9540  29.6600   F         1 RES1   0.0000
    23 C23     19.1460  52.9380  28.3750   C.2       1 RES1   0.0000
    24 C24     18.8120  53.6040  27.1950   C.2       1 RES1   0.0000
    25 F25     19.1690  54.8820  26.9980   F         1 RES1   0.0000
    26 C26     16.3830  54.2760  24.9170   C.3       1 RES1   0.0000
    27 N27     16.0770  54.9990  26.1310   N.3       1 RES1   1.0000
    28 C28     16.3720  55.2100  23.7150   C.3       1 RES1   0.0000
    29 N29     17.0250  54.0970  20.2190   N.2       1 RES1   0.0000
    30 C30     16.5550  54.2230  18.9620   C.2       1 RES1   0.0000
    31 N31     15.4550  54.9600  18.7490   N.2       1 RES1   0.0000
    32 C32     13.6290  56.7660  18.0840   C.2       1 RES1   0.0000
@<TRIPOS>BOND
     1     1     2    1
     2     2     3    2
     3     2     4    2
     4     2     5    1
     5     5     6    2
     6     6     7    1
     7     7     8    2
     8     8     9    1
     9     9    10    1
    10    10    11    2
    11    11    12    1
    12    12    13    1
    13    13    14    1
    14    14    15    1
    15    16    15    1
    16    16    17    1
    17    17    18    2
    18    18    19    1
    19    19    20    1
    20    19    21    2
    21    21    22    1
    22    21    23    1
    23    23    24    2
    24    24    25    1
    25    16    26    1
    26    26    27    1
    27    26    28    1
    28    12    29    2
    29    29    30    1
    30    30    31    2
    31     9    32    2
    32    32     5    1
    33    31    10    1
    34    28    13    1
    35    24    17    1
@<TRIPOS>SUBSTRUCTURE
     1 RES1        1 GROUP             0 ****  ****    0  
@<TRIPOS>MOLECULE
ligand_0
    32    35     1     0     0
SMALL
USER_CHARGES
****
Generated from the CSD

@<TRIPOS>ATOM
     1 C1      15.2929  53.2175  13.3903   C.3       1 RES1   0.0000
     2 S2      14.1133  54.1066  14.1865   S.o2      1 RES1   0.0000
     3 O3      14.5280  55.4935  14.2911   O.2       1 RES1   0.0000
     4 O4      12.8613  53.9938  13.4671   O.2       1 RES1   0.0000
     5 C5      13.9304  53.4941  15.6617   C.2       1 RES1   0.0000
     6 C6      12.9219  52.5860  16.0334   C.2       1 RES1   0.0000
     7 C7      12.8509  52.1080  17.3542   C.2       1 RES1   0.0000
     8 C8      13.7839  52.5349  18.3151   C.2       1 RES1   0.0000
     9 C9      14.7710  53.4431  17.9201   C.2       1 RES1   0.0000
    10 C10     15.8358  53.9629  18.7791   C.2       1 RES1   0.0000
    11 C11     15.9853  53.5845  20.1026   C.2       1 RES1   0.0000
    12 C12     17.0568  54.1617  20.7920   C.2       1 RES1   0.0000
    13 N13     17.3081  53.8663  22.1290   N.3       1 RES1   0.0000
    14 C14     18.5903  54.3381  22.6862   C.3       1 RES1   0.0000
    15 C15     18.8994  53.5740  23.9539   C.3       1 RES1   0.0000
    16 C16     17.7720  53.6660  24.9780   C.3       1 RES1   0.0000
    17 C17     18.0880  52.9420  26.2240   C.2       1 RES1   0.0000
    18 C18     17.7284  51.6062  26.3882   C.2       1 RES1   0.0000
    19 C19     18.0672  50.9458  27.5516   C.2       1 RES1   0.0000
    20 F20     17.7198  49.6632  27.7201   F         1 RES1   0.0000
    21 C21     18.7538  51.6121  28.5407   C.2       1 RES1   0.0000
    22 F22     19.0529  50.9553  29.6608   F         1 RES1   0.0000
    23 C23     19.1284  52.9451  28.3836   C.2       1 RES1   0.0000
    24 C24     18.7946  53.6106  27.2032   C.2       1 RES1   0.0000
    25 F25     19.1352  54.8942  27.0137   F         1 RES1   0.0000
    26 C26     16.4521  53.2079  24.3339   C.3       1 RES1   0.0000
    27 N27     15.3086  53.2760  25.2159   N.3       1 RES1   1.0000
    28 C28     16.1887  54.0424  23.0780   C.3       1 RES1   0.0000
    29 N29     17.8878  55.0493  20.1608   N.2       1 RES1   0.0000
    30 C30     17.7109  55.3854  18.8675   C.2       1 RES1   0.0000
    31 N31     16.6901  54.8429  18.1877   N.2       1 RES1   0.0000
    32 C32     14.8419  53.9061  16.6168   C.2       1 RES1   0.0000
@<TRIPOS>BOND
     1     1     2    1
     2     2     3    2
     3     2     4    2
     4     2     5    1
     5     5     6    2
     6     6     7    1
     7     7     8    2
     8     8     9    1
     9     9    10    1
    10    10    11    2
    11    11    12    1
    12    12    13    1
    13    13    14    1
    14    14    15    1
    15    16    15    1
    16    16    17    1
    17    17    18    2
    18    18    19    1
    19    19    20    1
    20    19    21    2
    21    21    22    1
    22    21    23    1
    23    23    24    2
    24    24    25    1
    25    16    26    1
    26    26    27    1
    27    26    28    1
    28    12    29    2
    29    29    30    1
    30    30    31    2
    31     9    32    2
    32    32     5    1
    33    31    10    1
    34    28    13    1
    35    24    17    1
@<TRIPOS>SUBSTRUCTURE
     1 RES1        1 GROUP             0 ****  ****    0  
@<TRIPOS>MOLECULE
ligand_1
    32    35     1     0     0
SMALL
USER_CHARGES
****
Generated from the CSD

@<TRIPOS>ATOM
     1 C1      10.7375  52.1946  19.6562   C.3       1 RES1   0.0000
     2 S2      11.7927  51.1827  18.8326   S.o2      1 RES1   0.0000
     3 O3      12.5795  50.4147  19.7799   O.2       1 RES1   0.0000
     4 O4      11.0354  50.3088  17.9604   O.2       1 RES1   0.0000
     5 C5      12.7737  52.0941  17.9427   C.2       1 RES1   0.0000
     6 C6      12.5991  52.3578  16.5717   C.2       1 RES1   0.0000
     7 C7      13.5170  53.1722  15.8846   C.2       1 RES1   0.0000
     8 C8      14.6180  53.7273  16.5596   C.2       1 RES1   0.0000
     9 C9      14.7710  53.4431  17.9201   C.2       1 RES1   0.0000
    10 C10     15.8358  53.9629  18.7791   C.2       1 RES1   0.0000
    11 C11     15.9853  53.5845  20.1026   C.2       1 RES1   0.0000
    12 C12     17.0568  54.1617  20.7920   C.2       1 RES1   0.0000
    13 N13     17.3081  53.8663  22.1290   N.3       1 RES1   0.0000
    14 C14     18.5903  54.3381  22.6862   C.3       1 RES1   0.0000
    15 C15     18.8994  53.5740  23.9539   C.3       1 RES1   0.0000
    16 C16     17.7720  53.6660  24.9780   C.3       1 RES1   0.0000
    17 C17     18.0880  52.9420  26.2240   C.2       1 RES1   0.0000
    18 C18     17.7277  51.6064  26.3885   C.2       1 RES1   0.0000
    19 C19     18.0665  50.9460  27.5519   C.2       1 RES1   0.0000
    20 F20     17.7184  49.6636  27.7207   F         1 RES1   0.0000
    21 C21     18.7538  51.6121  28.5407   C.2       1 RES1   0.0000
    22 F22     19.0529  50.9553  29.6608   F         1 RES1   0.0000
    23 C23     19.1291  52.9448  28.3832   C.2       1 RES1   0.0000
    24 C24     18.7953  53.6103  27.2029   C.2       1 RES1   0.0000
    25 F25     19.1366  54.8937  27.0130   F         1 RES1   0.0000
    26 C26     16.4521  53.2079  24.3339   C.3       1 RES1   0.0000
    27 N27     15.3086  53.2760  25.2159   N.3       1 RES1   1.0000
    28 C28     16.1887  54.0424  23.0780   C.3       1 RES1   0.0000
    29 N29     17.8878  55.0493  20.1608   N.2       1 RES1   0.0000
    30 C30     17.7109  55.3854  18.8675   C.2       1 RES1   0.0000
    31 N31     16.6901  54.8429  18.1877   N.2       1 RES1   0.0000
    32 C32     13.8612  52.6463  18.5949   C.2       1 RES1   0.0000
@<TRIPOS>BOND
     1     1     2    1
     2     2     3    2
     3     2     4    2
     4     2     5    1
     5     5     6    2
     6     6     7    1
     7     7     8    2
     8     8     9    1
     9     9    10    1
    10    10    11    2
    11    11    12    1
    12    12    13    1
    13    13    14    1
    14    14    15    1
    15    16    15    1
    16    16    17    1
    17    17    18    2
    18    18    19    1
    19    19    20    1
    20    19    21    2
    21    21    22    1
    22    21    23    1
    23    23    24    2
    24    24    25    1
    25    16    26    1
    26    26    27    1
    27    26    28    1
    28    12    29    2
    29    29    30    1
    30    30    31    2
    31     9    32    2
    32    32     5    1
    33    31    10    1
    34    28    13    1
    35    24    17    1
@<TRIPOS>SUBSTRUCTURE
     1 RES1        1 GROUP             0 ****  ****    0  
@<TRIPOS>MOLECULE
ligand_2
    32    35     1     0     0
SMALL
USER_CHARGES
****
Generated from the CSD

@<TRIPOS>ATOM
     1 C1      13.0746  55.4138  14.0268   C.3       1 RES1   0.0000
     2 S2      14.1138  54.1059  14.1863   S.o2      1 RES1   0.0000
     3 O3      13.7845  53.0917  13.2019   O.2       1 RES1   0.0000
     4 O4      15.4805  54.5580  14.0263   O.2       1 RES1   0.0000
     5 C5      13.9306  53.4937  15.6616   C.2       1 RES1   0.0000
     6 C6      12.9219  52.5860  16.0334   C.2       1 RES1   0.0000
     7 C7      12.8508  52.1082  17.3543   C.2       1 RES1   0.0000
     8 C8      13.7837  52.5352  18.3152   C.2       1 RES1   0.0000
     9 C9      14.7710  53.4431  17.9201   C.2       1 RES1   0.0000
    10 C10     15.8358  53.9629  18.7791   C.2       1 RES1   0.0000
    11 C11     15.9853  53.5845  20.1026   C.2       1 RES1   0.0000
    12 C12     17.0568  54.1617  20.7920   C.2       1 RES1   0.0000
    13 N13     17.3081  53.8663  22.1290   N.3       1 RES1   0.0000
    14 C14     18.5903  54.3381  22.6862   C.3       1 RES1   0.0000
    15 C15     18.8994  53.5740  23.9539   C.3       1 RES1   0.0000
    16 C16     17.7720  53.6660  24.9780   C.3       1 RES1   0.0000
    17 C17     18.0880  52.9420  26.2240   C.2       1 RES1   0.0000
    18 C18     17.7288  51.6061  26.3880   C.2       1 RES1   0.0000
    19 C19     18.0676  50.9457  27.5515   C.2       1 RES1   0.0000
    20 F20     17.7206  49.6630  27.7198   F         1 RES1   0.0000
    21 C21     18.7538  51.6121  28.5407   C.2       1 RES1   0.0000
    22 F22     19.0529  50.9553  29.6608   F         1 RES1   0.0000
    23 C23     19.1279  52.9452  28.3838   C.2       1 RES1   0.0000
    24 C24     18.7942  53.6107  27.2034   C.2       1 RES1   0.0000
    25 F25     19.1344  54.8945  27.0140   F         1 RES1   0.0000
    26 C26     16.4521  53.2079  24.3339   C.3       1 RES1   0.0000
    27 N27     15.3086  53.2760  25.2159   N.3       1 RES1   1.0000
    28 C28     16.1887  54.0424  23.0780   C.3       1 RES1   0.0000
    29 N29     17.8878  55.0493  20.1608   N.2       1 RES1   0.0000
    30 C30     17.7109  55.3854  18.8675   C.2       1 RES1   0.0000
    31 N31     16.6901  54.8429  18.1877   N.2       1 RES1   0.0000
    32 C32     14.8421  53.9058  16.6167   C.2       1 RES1   0.0000
@<TRIPOS>BOND
     1     1     2    1
     2     2     3    2
     3     2     4    2
     4     2     5    1
     5     5     6    2
     6     6     7    1
     7     7     8    2
     8     8     9    1
     9     9    10    1
    10    10    11    2
    11    11    12    1
    12    12    13    1
    13    13    14    1
    14    14    15    1
    15    16    15    1
    16    16    17    1
    17    17    18    2
    18    18    19    1
    19    19    20    1
    20    19    21    2
    21    21    22    1
    22    21    23    1
    23    23    24    2
    24    24    25    1
    25    16    26    1
    26    26    27    1
    27    26    28    1
    28    12    29    2
    29    29    30    1
    30    30    31    2
    31     9    32    2
    32    32     5    1
    33    31    10    1
    34    28    13    1
    35    24    17    1
@<TRIPOS>SUBSTRUCTURE
     1 RES1        1 GROUP             0 ****  ****    0  
@<TRIPOS>MOLECULE
ligand_3
    32    35     1     0     0
SMALL
USER_CHARGES
****
Generated from the CSD

@<TRIPOS>ATOM
     1 C1      17.1064  57.8612  14.0767   C.3       1 RES1   0.0000
     2 S2      17.9421  56.4096  13.9757   S.o2      1 RES1   0.0000
     3 O3      17.0081  55.3153  13.7850   O.2       1 RES1   0.0000
     4 O4      18.8896  56.4776  12.8824   O.2       1 RES1   0.0000
     5 C5      18.7419  56.1915  15.3532   C.2       1 RES1   0.0000
     6 C6      20.1023  56.4941  15.5471   C.2       1 RES1   0.0000
     7 C7      20.7075  56.2663  16.7960   C.2       1 RES1   0.0000
     8 C8      19.9607  55.7319  17.8602   C.2       1 RES1   0.0000
     9 C9      18.6128  55.4339  17.6377   C.2       1 RES1   0.0000
    10 C10     17.6858  54.9061  18.6397   C.2       1 RES1   0.0000
    11 C11     18.0577  54.6576  19.9501   C.2       1 RES1   0.0000
    12 C12     17.0568  54.1617  20.7920   C.2       1 RES1   0.0000
    13 N13     17.3081  53.8663  22.1290   N.3       1 RES1   0.0000
    14 C14     18.6180  54.2793  22.6680   C.3       1 RES1   0.0000
    15 C15     18.9032  53.5124  23.9396   C.3       1 RES1   0.0000
    16 C16     17.7932  53.6690  24.9747   C.3       1 RES1   0.0000
    17 C17     18.0870  52.9415  26.2241   C.2       1 RES1   0.0000
    18 C18     17.6640  51.6266  26.4049   C.2       1 RES1   0.0000
    19 C19     17.9828  50.9608  27.5708   C.2       1 RES1   0.0000
    20 F20     17.5746  49.6985  27.7553   F         1 RES1   0.0000
    21 C21     18.7123  51.6013  28.5461   C.2       1 RES1   0.0000
    22 F22     18.9912  50.9407  29.6692   F         1 RES1   0.0000
    23 C23     19.1502  52.9127  28.3723   C.2       1 RES1   0.0000
    24 C24     18.8366  53.5832  27.1893   C.2       1 RES1   0.0000
    25 F25     19.2377  54.8467  26.9839   F         1 RES1   0.0000
    26 C26     16.4453  53.2706  24.3491   C.3       1 RES1   0.0000
    27 N27     15.3163  53.4029  25.2425   N.3       1 RES1   1.0000
    28 C28     16.2093  54.1058  23.0881   C.3       1 RES1   0.0000
    29 N29     15.7929  53.9438  20.3104   N.2       1 RES1   0.0000
    30 C30     15.4708  54.2061  19.0281   C.2       1 RES1   0.0000
    31 N31     16.4152  54.6830  18.2040   N.2       1 RES1   0.0000
    32 C32     18.0186  55.6661  16.4085   C.2       1 RES1   0.0000
@<TRIPOS>BOND
     1     1     2    1
     2     2     3    2
     3     2     4    2
     4     2     5    1
     5     5     6    2
     6     6     7    1
     7     7     8    2
     8     8     9    1
     9     9    10    1
    10    10    11    2
    11    11    12    1
    12    12    13    1
    13    13    14    1
    14    14    15    1
    15    16    15    1
    16    16    17    1
    17    17    18    2
    18    18    19    1
    19    19    20    1
    20    19    21    2
    21    21    22    1
    22    21    23    1
    23    23    24    2
    24    24    25    1
    25    16    26    1
    26    26    27    1
    27    26    28    1
    28    12    29    2
    29    29    30    1
    30    30    31    2
    31     9    32    2
    32    32     5    1
    33    31    10    1
    34    28    13    1
    35    24    17    1
@<TRIPOS>SUBSTRUCTURE
     1 RES1        1 GROUP             0 ****  ****    0  
@<TRIPOS>MOLECULE
ligand_4
    32    35     1     0     0
SMALL
USER_CHARGES
****
Generated from the CSD

@<TRIPOS>ATOM
     1 C1      12.2330  49.5711  18.6110   C.3       1 RES1   0.0000
     2 S2      11.7969  51.1765  18.8311   S.o2      1 RES1   0.0000
     3 O3      10.4266  51.3789  18.3979   O.2       1 RES1   0.0000
     4 O4      11.9558  51.5288  20.2269   O.2       1 RES1   0.0000
     5 C5      12.7757  52.0911  17.9420   C.2       1 RES1   0.0000
     6 C6      12.5995  52.3570  16.5717   C.2       1 RES1   0.0000
     7 C7      13.5155  53.1741  15.8852   C.2       1 RES1   0.0000
     8 C8      14.6163  53.7296  16.5602   C.2       1 RES1   0.0000
     9 C9      14.7710  53.4431  17.9201   C.2       1 RES1   0.0000
    10 C10     15.8358  53.9629  18.7791   C.2       1 RES1   0.0000
    11 C11     15.9853  53.5845  20.1026   C.2       1 RES1   0.0000
    12 C12     17.0568  54.1617  20.7920   C.2       1 RES1   0.0000
    13 N13     17.3081  53.8663  22.1290   N.3       1 RES1   0.0000
    14 C14     18.5903  54.3381  22.6862   C.3       1 RES1   0.0000
    15 C15     18.8994  53.5740  23.9539   C.3       1 RES1   0.0000
    16 C16     17.7720  53.6660  24.9780   C.3       1 RES1   0.0000
    17 C17     18.0880  52.9420  26.2240   C.2       1 RES1   0.0000
    18 C18     17.7270  51.6067  26.3889   C.2       1 RES1   0.0000
    19 C19     18.0658  50.9462  27.5522   C.2       1 RES1   0.0000
    20 F20     17.7170  49.6641  27.7214   F         1 RES1   0.0000
    21 C21     18.7538  51.6120  28.5406   C.2       1 RES1   0.0000
    22 F22     19.0529  50.9552  29.6607   F         1 RES1   0.0000
    23 C23     19.1298  52.9445  28.3829   C.2       1 RES1   0.0000
    24 C24     18.7961  53.6101  27.2026   C.2       1 RES1   0.0000
    25 F25     19.1380  54.8932  27.0124   F         1 RES1   0.0000
    26 C26     16.4521  53.2079  24.3339   C.3       1 RES1   0.0000
    27 N27     15.3086  53.2760  25.2159   N.3       1 RES1   1.0000
    28 C28     16.1887  54.0424  23.0780   C.3       1 RES1   0.0000
    29 N29     17.8878  55.0493  20.1608   N.2       1 RES1   0.0000
    30 C30     17.7109  55.3854  18.8675   C.2       1 RES1   0.0000
    31 N31     16.6901  54.8429  18.1877   N.2       1 RES1   0.0000
    32 C32     13.8630  52.6437  18.5942   C.2       1 RES1   0.0000
@<TRIPOS>BOND
     1     1     2    1
     2     2     3    2
     3     2     4    2
     4     2     5    1
     5     5     6    2
     6     6     7    1
     7     7     8    2
     8     8     9    1
     9     9    10    1
    10    10    11    2
    11    11    12    1
    12    12    13    1
    13    13    14    1
    14    14    15    1
    15    16    15    1
    16    16    17    1
    17    17    18    2
    18    18    19    1
    19    19    20    1
    20    19    21    2
    21    21    22    1
    22    21    23    1
    23    23    24    2
    24    24    25    1
    25    16    26    1
    26    26    27    1
    27    26    28    1
    28    12    29    2
    29    29    30    1
    30    30    31    2
    31     9    32    2
    32    32     5    1
    33    31    10    1
    34    28    13    1
    35    24    17    1
@<TRIPOS>SUBSTRUCTURE
     1 RES1        1 GROUP             0 ****  ****    0  
@<TRIPOS>MOLECULE
ligand_5
    32    35     1     0     0
SMALL
USER_CHARGES
****
Generated from the CSD

@<TRIPOS>ATOM
     1 C1      23.0822  54.5274  17.8496   C.3       1 RES1   0.0000
     2 S2      22.4002  56.0592  17.9157   S.o2      1 RES1   0.0000
     3 O3      22.2951  56.4929  19.2967   O.2       1 RES1   0.0000
     4 O4      23.2118  56.9785  17.1450   O.2       1 RES1   0.0000
     5 C5      20.9302  55.9847  17.2689   C.2       1 RES1   0.0000
     6 C6      20.6174  56.3453  15.9453   C.2       1 RES1   0.0000
     7 C7      19.2956  56.2407  15.4762   C.2       1 RES1   0.0000
     8 C8      18.2752  55.7785  16.3253   C.2       1 RES1   0.0000
     9 C9      18.6128  55.4339  17.6377   C.2       1 RES1   0.0000
    10 C10     17.6858  54.9061  18.6397   C.2       1 RES1   0.0000
    11 C11     18.0577  54.6576  19.9501   C.2       1 RES1   0.0000
    12 C12     17.0568  54.1617  20.7920   C.2       1 RES1   0.0000
    13 N13     17.3081  53.8663  22.1290   N.3       1 RES1   0.0000
    14 C14     18.6174  54.2807  22.6684   C.3       1 RES1   0.0000
    15 C15     18.9032  53.5139  23.9399   C.3       1 RES1   0.0000
    16 C16     17.7927  53.6689  24.9748   C.3       1 RES1   0.0000
    17 C17     18.0870  52.9415  26.2241   C.2       1 RES1   0.0000
    18 C18     17.6647  51.6264  26.4048   C.2       1 RES1   0.0000
    19 C19     17.9840  50.9607  27.5707   C.2       1 RES1   0.0000
    20 F20     17.5765  49.6981  27.7551   F         1 RES1   0.0000
    21 C21     18.7133  51.6015  28.5459   C.2       1 RES1   0.0000
    22 F22     18.9926  50.9409  29.6689   F         1 RES1   0.0000
    23 C23     19.1505  52.9131  28.3722   C.2       1 RES1   0.0000
    24 C24     18.8364  53.5836  27.1892   C.2       1 RES1   0.0000
    25 F25     19.2368  54.8473  26.9839   F         1 RES1   0.0000
    26 C26     16.4454  53.2692  24.3487   C.3       1 RES1   0.0000
    27 N27     15.3161  53.3999  25.2419   N.3       1 RES1   1.0000
    28 C28     16.2088  54.1043  23.0879   C.3       1 RES1   0.0000
    29 N29     15.7929  53.9438  20.3104   N.2       1 RES1   0.0000
    30 C30     15.4708  54.2061  19.0281   C.2       1 RES1   0.0000
    31 N31     16.4152  54.6830  18.2040   N.2       1 RES1   0.0000
    32 C32     19.9168  55.5316  18.0939   C.2       1 RES1   0.0000
@<TRIPOS>BOND
     1     1     2    1
     2     2     3    2
     3     2     4    2
     4     2     5    1
     5     5     6    2
     6     6     7    1
     7     7     8    2
     8     8     9    1
     9     9    10    1
    10    10    11    2
    11    11    12    1
    12    12    13    1
    13    13    14    1
    14    14    15    1
    15    16    15    1
    16    16    17    1
    17    17    18    2
    18    18    19    1
    19    19    20    1
    20    19    21    2
    21    21    22    1
    22    21    23    1
    23    23    24    2
    24    24    25    1
    25    16    26    1
    26    26    27    1
    27    26    28    1
    28    12    29    2
    29    29    30    1
    30    30    31    2
    31     9    32    2
    32    32     5    1
    33    31    10    1
    34    28    13    1
    35    24    17    1
@<TRIPOS>SUBSTRUCTURE
     1 RES1        1 GROUP             0 ****  ****    0  
@<TRIPOS>MOLECULE
ligand_6
    32    35     1     0     0
SMALL
USER_CHARGES
****
Generated from the CSD

@<TRIPOS>ATOM
     1 C1      18.2279  55.0845  12.9863   C.3       1 RES1   0.0000
     2 S2      17.9422  56.4095  13.9756   S.o2      1 RES1   0.0000
     3 O3      18.4193  57.6186  13.3302   O.2       1 RES1   0.0000
     4 O4      16.5246  56.4989  14.2588   O.2       1 RES1   0.0000
     5 C5      18.7419  56.1915  15.3532   C.2       1 RES1   0.0000
     6 C6      20.1023  56.4941  15.5471   C.2       1 RES1   0.0000
     7 C7      20.7075  56.2664  16.7960   C.2       1 RES1   0.0000
     8 C8      19.9607  55.7319  17.8603   C.2       1 RES1   0.0000
     9 C9      18.6128  55.4339  17.6377   C.2       1 RES1   0.0000
    10 C10     17.6858  54.9061  18.6397   C.2       1 RES1   0.0000
    11 C11     18.0577  54.6576  19.9501   C.2       1 RES1   0.0000
    12 C12     17.0568  54.1617  20.7920   C.2       1 RES1   0.0000
    13 N13     17.3081  53.8663  22.1290   N.3       1 RES1   0.0000
    14 C14     18.6178  54.2799  22.6682   C.3       1 RES1   0.0000
    15 C15     18.9032  53.5130  23.9397   C.3       1 RES1   0.0000
    16 C16     17.7930  53.6690  24.9747   C.3       1 RES1   0.0000
    17 C17     18.0870  52.9415  26.2241   C.2       1 RES1   0.0000
    18 C18     17.6638  51.6267  26.4050   C.2       1 RES1   0.0000
    19 C19     17.9828  50.9609  27.5710   C.2       1 RES1   0.0000
    20 F20     17.5745  49.6986  27.7556   F         1 RES1   0.0000
    21 C21     18.7127  51.6013  28.5460   C.2       1 RES1   0.0000
    22 F22     18.9917  50.9407  29.6690   F         1 RES1   0.0000
    23 C23     19.1508  52.9127  28.3720   C.2       1 RES1   0.0000
    24 C24     18.8369  53.5832  27.1891   C.2       1 RES1   0.0000
    25 F25     19.2382  54.8466  26.9835   F         1 RES1   0.0000
    26 C26     16.4453  53.2701  24.3489   C.3       1 RES1   0.0000
    27 N27     15.3162  53.4017  25.2423   N.3       1 RES1   1.0000
    28 C28     16.2091  54.1053  23.0880   C.3       1 RES1   0.0000
    29 N29     15.7929  53.9438  20.3104   N.2       1 RES1   0.0000
    30 C30     15.4708  54.2061  19.0281   C.2       1 RES1   0.0000
    31 N31     16.4152  54.6830  18.2040   N.2       1 RES1   0.0000
    32 C32     18.0186  55.6661  16.4085   C.2       1 RES1   0.0000
@<TRIPOS>BOND
     1     1     2    1
     2     2     3    2
     3     2     4    2
     4     2     5    1
     5     5     6    2
     6     6     7    1
     7     7     8    2
     8     8     9    1
     9     9    10    1
    10    10    11    2
    11    11    12    1
    12    12    13    1
    13    13    14    1
    14    14    15    1
    15    16    15    1
    16    16    17    1
    17    17    18    2
    18    18    19    1
    19    19    20    1
    20    19    21    2
    21    21    22    1
    22    21    23    1
    23    23    24    2
    24    24    25    1
    25    16    26    1
    26    26    27    1
    27    26    28    1
    28    12    29    2
    29    29    30    1
    30    30    31    2
    31     9    32    2
    32    32     5    1
    33    31    10    1
    34    28    13    1
    35    24    17    1
@<TRIPOS>SUBSTRUCTURE
     1 RES1        1 GROUP             0 ****  ****    0  
@<TRIPOS>MOLECULE
ligand_7
    32    35     1     0     0
SMALL
USER_CHARGES
****
Generated from the CSD

@<TRIPOS>ATOM
     1 C1      22.6695  57.6285  18.4345   C.3       1 RES1   0.0000
     2 S2      22.4008  56.0559  17.9145   S.o2      1 RES1   0.0000
     3 O3      23.3844  55.6938  16.9106   O.2       1 RES1   0.0000
     4 O4      22.4654  55.1585  19.0496   O.2       1 RES1   0.0000
     5 C5      20.9305  55.9831  17.2683   C.2       1 RES1   0.0000
     6 C6      20.6174  56.3449  15.9451   C.2       1 RES1   0.0000
     7 C7      19.2953  56.2418  15.4765   C.2       1 RES1   0.0000
     8 C8      18.2749  55.7798  16.3257   C.2       1 RES1   0.0000
     9 C9      18.6128  55.4339  17.6377   C.2       1 RES1   0.0000
    10 C10     17.6858  54.9061  18.6397   C.2       1 RES1   0.0000
    11 C11     18.0577  54.6576  19.9501   C.2       1 RES1   0.0000
    12 C12     17.0568  54.1617  20.7920   C.2       1 RES1   0.0000
    13 N13     17.3081  53.8663  22.1290   N.3       1 RES1   0.0000
    14 C14     18.6168  54.2820  22.6688   C.3       1 RES1   0.0000
    15 C15     18.9031  53.5152  23.9402   C.3       1 RES1   0.0000
    16 C16     17.7922  53.6689  24.9748   C.3       1 RES1   0.0000
    17 C17     18.0871  52.9415  26.2241   C.2       1 RES1   0.0000
    18 C18     17.6658  51.6260  26.4046   C.2       1 RES1   0.0000
    19 C19     17.9855  50.9604  27.5704   C.2       1 RES1   0.0000
    20 F20     17.5790  49.6975  27.7546   F         1 RES1   0.0000
    21 C21     18.7142  51.6017  28.5458   C.2       1 RES1   0.0000
    22 F22     18.9940  50.9412  29.6687   F         1 RES1   0.0000
    23 C23     19.1504  52.9137  28.3723   C.2       1 RES1   0.0000
    24 C24     18.8358  53.5841  27.1894   C.2       1 RES1   0.0000
    25 F25     19.2353  54.8481  26.9842   F         1 RES1   0.0000
    26 C26     16.4455  53.2678  24.3484   C.3       1 RES1   0.0000
    27 N27     15.3158  53.3972  25.2413   N.3       1 RES1   1.0000
    28 C28     16.2083  54.1030  23.0877   C.3       1 RES1   0.0000
    29 N29     15.7929  53.9438  20.3104   N.2       1 RES1   0.0000
    30 C30     15.4708  54.2061  19.0281   C.2       1 RES1   0.0000
    31 N31     16.4152  54.6830  18.2040   N.2       1 RES1   0.0000
    32 C32     19.9171  55.5301  18.0934   C.2       1 RES1   0.0000
@<TRIPOS>BOND
     1     1     2    1
     2     2     3    2
     3     2     4    2
     4     2     5    1
     5     5     6    2
     6     6     7    1
     7     7     8    2
     8     8     9    1
     9     9    10    1
    10    10    11    2
    11    11    12    1
    12    12    13    1
    13    13    14    1
    14    14    15    1
    15    16    15    1
    16    16    17    1
    17    17    18    2
    18    18    19    1
    19    19    20    1
    20    19    21    2
    21    21    22    1
    22    21    23    1
    23    23    24    2
    24    24    25    1
    25    16    26    1
    26    26    27    1
    27    26    28    1
    28    12    29    2
    29    29    30    1
    30    30    31    2
    31     9    32    2
    32    32     5    1
    33    31    10    1
    34    28    13    1
    35    24    17    1
@<TRIPOS>SUBSTRUCTURE
     1 RES1        1 GROUP             0 ****  ****    0  
@<TRIPOS>MOLECULE
ligand_8
    32    35     1     0     0
SMALL
USER_CHARGES
****
Generated from the CSD

@<TRIPOS>ATOM
     1 C1       9.9790  55.9868  16.3462   C.3       1 RES1   0.0000
     2 S2      10.5130  57.4245  17.0272   S.o2      1 RES1   0.0000
     3 O3      11.7341  57.8563  16.3725   O.2       1 RES1   0.0000
     4 O4       9.4760  58.4279  16.9019   O.2       1 RES1   0.0000
     5 C5      10.8091  57.1645  18.5858   C.2       1 RES1   0.0000
     6 C6       9.9203  57.4705  19.6328   C.2       1 RES1   0.0000
     7 C7      10.2767  57.2005  20.9662   C.2       1 RES1   0.0000
     8 C8      11.5243  56.6261  21.2655   C.2       1 RES1   0.0000
     9 C9      12.3908  56.3389  20.2064   C.2       1 RES1   0.0000
    10 C10     13.7072  55.7123  20.3355   C.2       1 RES1   0.0000
    11 C11     14.2345  55.3166  21.5531   C.2       1 RES1   0.0000
    12 C12     15.5011  54.7244  21.5135   C.2       1 RES1   0.0000
    13 N13     16.1402  54.2904  22.6717   N.3       1 RES1   0.0000
    14 C14     17.3544  53.4710  22.4958   C.3       1 RES1   0.0000
    15 C15     17.6510  52.7292  23.7796   C.3       1 RES1   0.0000
    16 C16     17.7720  53.6660  24.9780   C.3       1 RES1   0.0000
    17 C17     18.0880  52.9420  26.2240   C.2       1 RES1   0.0000
    18 C18     17.6922  51.6186  26.4046   C.2       1 RES1   0.0000
    19 C19     18.0314  50.9570  27.5672   C.2       1 RES1   0.0000
    20 F20     17.6494  49.6864  27.7515   F         1 RES1   0.0000
    21 C21     18.7542  51.6098  28.5392   C.2       1 RES1   0.0000
    22 F22     19.0531  50.9526  29.6591   F         1 RES1   0.0000
    23 C23     19.1651  52.9300  28.3655   C.2       1 RES1   0.0000
    24 C24     18.8308  53.5965  27.1859   C.2       1 RES1   0.0000
    25 F25     19.2056  54.8681  26.9806   F         1 RES1   0.0000
    26 C26     16.5026  54.5282  25.0883   C.3       1 RES1   0.0000
    27 N27     16.5215  55.4713  26.1839   N.3       1 RES1   1.0000
    28 C28     16.2827  55.2712  23.7681   C.3       1 RES1   0.0000
    29 N29     16.1533  54.5649  20.3193   N.2       1 RES1   0.0000
    30 C30     15.6003  54.9583  19.1546   C.2       1 RES1   0.0000
    31 N31     14.3862  55.5276  19.1698   N.2       1 RES1   0.0000
    32 C32     12.0334  56.5997  18.8941   C.2       1 RES1   0.0000
@<TRIPOS>BOND
     1     1     2    1
     2     2     3    2
     3     2     4    2
     4     2     5    1
     5     5     6    2
     6     6     7    1
     7     7     8    2
     8     8     9    1
     9     9    10    1
    10    10    11    2
    11    11    12    1
    12    12    13    1
    13    13    14    1
    14    14    15    1
    15    16    15    1
    16    16    17    1
    17    17    18    2
    18    18    19    1
    19    19    20    1
    20    19    21    2
    21    21    22    1
    22    21    23    1
    23    23    24    2
    24    24    25    1
    25    16    26    1
    26    26    27    1
    27    26    28    1
    28    12    29    2
    29    29    30    1
    30    30    31    2
    31     9    32    2
    32    32     5    1
    33    31    10    1
    34    28    13    1
    35    24    17    1
@<TRIPOS>SUBSTRUCTURE
     1 RES1        1 GROUP             0 ****  ****    0  
@<TRIPOS>MOLECULE
ligand_9
    32    35     1     0     0
SMALL
USER_CHARGES
****
Generated from the CSD

@<TRIPOS>ATOM
     1 C1      10.6511  58.8877  23.5707   C.3       1 RES1   0.0000
     2 S2       9.9599  57.4854  22.9611   S.o2      1 RES1   0.0000
     3 O3      10.2920  56.3604  23.8157   O.2       1 RES1   0.0000
     4 O4       8.5250  57.6595  22.8692   O.2       1 RES1   0.0000
     5 C5      10.5548  57.2287  21.4897   C.2       1 RES1   0.0000
     6 C6       9.9098  57.5842  20.2908   C.2       1 RES1   0.0000
     7 C7      10.5193  57.3157  19.0521   C.2       1 RES1   0.0000
     8 C8      11.7758  56.6876  19.0000   C.2       1 RES1   0.0000
     9 C9      12.3908  56.3389  20.2064   C.2       1 RES1   0.0000
    10 C10     13.7072  55.7123  20.3355   C.2       1 RES1   0.0000
    11 C11     14.2345  55.3166  21.5531   C.2       1 RES1   0.0000
    12 C12     15.5011  54.7244  21.5135   C.2       1 RES1   0.0000
    13 N13     16.1402  54.2904  22.6717   N.3       1 RES1   0.0000
    14 C14     17.3544  53.4710  22.4958   C.3       1 RES1   0.0000
    15 C15     17.6510  52.7292  23.7796   C.3       1 RES1   0.0000
    16 C16     17.7720  53.6660  24.9780   C.3       1 RES1   0.0000
    17 C17     18.0880  52.9420  26.2240   C.2       1 RES1   0.0000
    18 C18     17.6922  51.6186  26.4046   C.2       1 RES1   0.0000
    19 C19     18.0314  50.9569  27.5672   C.2       1 RES1   0.0000
    20 F20     17.6495  49.6864  27.7514   F         1 RES1   0.0000
    21 C21     18.7542  51.6098  28.5392   C.2       1 RES1   0.0000
    22 F22     19.0531  50.9526  29.6591   F         1 RES1   0.0000
    23 C23     19.1650  52.9300  28.3655   C.2       1 RES1   0.0000
    24 C24     18.8307  53.5965  27.1859   C.2       1 RES1   0.0000
    25 F25     19.2055  54.8681  26.9807   F         1 RES1   0.0000
    26 C26     16.5026  54.5282  25.0883   C.3       1 RES1   0.0000
    27 N27     16.5215  55.4713  26.1839   N.3       1 RES1   1.0000
    28 C28     16.2827  55.2712  23.7681   C.3       1 RES1   0.0000
    29 N29     16.1533  54.5649  20.3193   N.2       1 RES1   0.0000
    30 C30     15.6003  54.9583  19.1546   C.2       1 RES1   0.0000
    31 N31     14.3862  55.5276  19.1698   N.2       1 RES1   0.0000
    32 C32     11.7907  56.6112  21.4244   C.2       1 RES1   0.0000
@<TRIPOS>BOND
     1     1     2    1
     2     2     3    2
     3     2     4    2
     4     2     5    1
     5     5     6    2
     6     6     7    1
     7     7     8    2
     8     8     9    1
     9     9    10    1
    10    10    11    2
    11    11    12    1
    12    12    13    1
    13    13    14    1
    14    14    15    1
    15    16    15    1
    16    16    17    1
    17    17    18    2
    18    18    19    1
    19    19    20    1
    20    19    21    2
    21    21    22    1
    22    21    23    1
    23    23    24    2
    24    24    25    1
    25    16    26    1
    26    26    27    1
    27    26    28    1
    28    12    29    2
    29    29    30    1
    30    30    31    2
    31     9    32    2
    32    32     5    1
    33    31    10    1
    34    28    13    1
    35    24    17    1
@<TRIPOS>SUBSTRUCTURE
     1 RES1        1 GROUP             0 ****  ****    0  
@<TRIPOS>MOLECULE
ligand_10
    32    35     1     0     0
SMALL
USER_CHARGES
****
Generated from the CSD

@<TRIPOS>ATOM
     1 C1      10.8765  59.0264  16.6829   C.3       1 RES1   0.0000
     2 S2      10.5131  57.4247  17.0272   S.o2      1 RES1   0.0000
     3 O3       9.1106  57.1683  16.7561   O.2       1 RES1   0.0000
     4 O4      11.3604  56.5599  16.2322   O.2       1 RES1   0.0000
     5 C5      10.8092  57.1646  18.5858   C.2       1 RES1   0.0000
     6 C6       9.9203  57.4705  19.6328   C.2       1 RES1   0.0000
     7 C7      10.2767  57.2005  20.9662   C.2       1 RES1   0.0000
     8 C8      11.5242  56.6260  21.2655   C.2       1 RES1   0.0000
     9 C9      12.3908  56.3389  20.2064   C.2       1 RES1   0.0000
    10 C10     13.7072  55.7123  20.3355   C.2       1 RES1   0.0000
    11 C11     14.2345  55.3166  21.5531   C.2       1 RES1   0.0000
    12 C12     15.5011  54.7244  21.5135   C.2       1 RES1   0.0000
    13 N13     16.1402  54.2904  22.6717   N.3       1 RES1   0.0000
    14 C14     17.3544  53.4710  22.4958   C.3       1 RES1   0.0000
    15 C15     17.6510  52.7292  23.7796   C.3       1 RES1   0.0000
    16 C16     17.7720  53.6660  24.9780   C.3       1 RES1   0.0000
    17 C17     18.0880  52.9420  26.2240   C.2       1 RES1   0.0000
    18 C18     17.6927  51.6184  26.4044   C.2       1 RES1   0.0000
    19 C19     18.0320  50.9568  27.5669   C.2       1 RES1   0.0000
    20 F20     17.6505  49.6860  27.7510   F         1 RES1   0.0000
    21 C21     18.7542  51.6098  28.5393   C.2       1 RES1   0.0000
    22 F22     19.0531  50.9526  29.6592   F         1 RES1   0.0000
    23 C23     19.1645  52.9302  28.3658   C.2       1 RES1   0.0000
    24 C24     18.8302  53.5967  27.1862   C.2       1 RES1   0.0000
    25 F25     19.2045  54.8685  26.9812   F         1 RES1   0.0000
    26 C26     16.5026  54.5282  25.0883   C.3       1 RES1   0.0000
    27 N27     16.5215  55.4713  26.1839   N.3       1 RES1   1.0000
    28 C28     16.2827  55.2712  23.7681   C.3       1 RES1   0.0000
    29 N29     16.1533  54.5649  20.3193   N.2       1 RES1   0.0000
    30 C30     15.6003  54.9583  19.1546   C.2       1 RES1   0.0000
    31 N31     14.3862  55.5276  19.1698   N.2       1 RES1   0.0000
    32 C32     12.0334  56.5998  18.8941   C.2       1 RES1   0.0000
@<TRIPOS>BOND
     1     1     2    1
     2     2     3    2
     3     2     4    2
     4     2     5    1
     5     5     6    2
     6     6     7    1
     7     7     8    2
     8     8     9    1
     9     9    10    1
    10    10    11    2
    11    11    12    1
    12    12    13    1
    13    13    14    1
    14    14    15    1
    15    16    15    1
    16    16    17    1
    17    17    18    2
    18    18    19    1
    19    19    20    1
    20    19    21    2
    21    21    22    1
    22    21    23    1
    23    23    24    2
    24    24    25    1
    25    16    26    1
    26    26    27    1
    27    26    28    1
    28    12    29    2
    29    29    30    1
    30    30    31    2
    31     9    32    2
    32    32     5    1
    33    31    10    1
    34    28    13    1
    35    24    17    1
@<TRIPOS>SUBSTRUCTURE
     1 RES1        1 GROUP             0 ****  ****    0  
@<TRIPOS>MOLECULE
ligand_11
    32    35     1     0     0
SMALL
USER_CHARGES
****
Generated from the CSD

@<TRIPOS>ATOM
     1 C1      14.4423  57.0646  14.2895   C.3       1 RES1   0.0000
     2 S2      13.7392  55.5634  14.5500   S.o2      1 RES1   0.0000
     3 O3      12.4438  55.7289  15.1830   O.2       1 RES1   0.0000
     4 O4      13.6122  54.8682  13.2857   O.2       1 RES1   0.0000
     5 C5      14.7014  54.7181  15.5218   C.2       1 RES1   0.0000
     6 C6      15.6320  53.7554  15.0895   C.2       1 RES1   0.0000
     7 C7      16.4293  53.0711  16.0244   C.2       1 RES1   0.0000
     8 C8      16.3018  53.3398  17.3982   C.2       1 RES1   0.0000
     9 C9      15.3642  54.2960  17.8004   C.2       1 RES1   0.0000
    10 C10     15.1262  54.7201  19.1808   C.2       1 RES1   0.0000
    11 C11     15.8378  54.2141  20.2554   C.2       1 RES1   0.0000
    12 C12     15.5011  54.7244  21.5135   C.2       1 RES1   0.0000
    13 N13     16.1402  54.2904  22.6717   N.3       1 RES1   0.0000
    14 C14     17.3147  53.4149  22.4967   C.3       1 RES1   0.0000
    15 C15     17.6005  52.6914  23.7933   C.3       1 RES1   0.0000
    16 C16     17.7820  53.6500  24.9665   C.3       1 RES1   0.0000
    17 C17     18.0873  52.9426  26.2246   C.2       1 RES1   0.0000
    18 C18     17.6385  51.6420  26.4432   C.2       1 RES1   0.0000
    19 C19     17.9682  50.9938  27.6160   C.2       1 RES1   0.0000
    20 F20     17.5356  49.7455  27.8368   F         1 RES1   0.0000
    21 C21     18.7340  51.6376  28.5608   C.2       1 RES1   0.0000
    22 F22     19.0230  50.9946  29.6915   F         1 RES1   0.0000
    23 C23     19.1978  52.9345  28.3490   C.2       1 RES1   0.0000
    24 C24     18.8729  53.5869  27.1589   C.2       1 RES1   0.0000
    25 F25     19.2981  54.8361  26.9173   F         1 RES1   0.0000
    26 C26     16.5531  54.5692  25.0758   C.3       1 RES1   0.0000
    27 N27     16.6311  55.5361  26.1478   N.3       1 RES1   1.0000
    28 C28     16.3433  55.2897  23.7416   C.3       1 RES1   0.0000
    29 N29     14.5154  55.6679  21.6362   N.2       1 RES1   0.0000
    30 C30     13.8514  56.1393  20.5621   C.2       1 RES1   0.0000
    31 N31     14.1590  55.6642  19.3463   N.2       1 RES1   0.0000
    32 C32     14.5858  54.9728  16.8763   C.2       1 RES1   0.0000
@<TRIPOS>BOND
     1     1     2    1
     2     2     3    2
     3     2     4    2
     4     2     5    1
     5     5     6    2
     6     6     7    1
     7     7     8    2
     8     8     9    1
     9     9    10    1
    10    10    11    2
    11    11    12    1
    12    12    13    1
    13    13    14    1
    14    14    15    1
    15    16    15    1
    16    16    17    1
    17    17    18    2
    18    18    19    1
    19    19    20    1
    20    19    21    2
    21    21    22    1
    22    21    23    1
    23    23    24    2
    24    24    25    1
    25    16    26    1
    26    26    27    1
    27    26    28    1
    28    12    29    2
    29    29    30    1
    30    30    31    2
    31     9    32    2
    32    32     5    1
    33    31    10    1
    34    28    13    1
    35    24    17    1
@<TRIPOS>SUBSTRUCTURE
     1 RES1        1 GROUP             0 ****  ****    0  
@<TRIPOS>MOLECULE
ligand_12
    32    35     1     0     0
SMALL
USER_CHARGES
****
Generated from the CSD

@<TRIPOS>ATOM
     1 C1       8.9042  56.2357  23.3279   C.3       1 RES1   0.0000
     2 S2       9.9606  57.4868  22.9611   S.o2      1 RES1   0.0000
     3 O3       9.2502  58.7523  22.9767   O.2       1 RES1   0.0000
     4 O4      11.0476  57.4918  23.9182   O.2       1 RES1   0.0000
     5 C5      10.5552  57.2294  21.4897   C.2       1 RES1   0.0000
     6 C6       9.9099  57.5843  20.2908   C.2       1 RES1   0.0000
     7 C7      10.5191  57.3153  19.0520   C.2       1 RES1   0.0000
     8 C8      11.7755  56.6870  19.0000   C.2       1 RES1   0.0000
     9 C9      12.3908  56.3389  20.2064   C.2       1 RES1   0.0000
    10 C10     13.7072  55.7123  20.3355   C.2       1 RES1   0.0000
    11 C11     14.2345  55.3166  21.5531   C.2       1 RES1   0.0000
    12 C12     15.5011  54.7244  21.5135   C.2       1 RES1   0.0000
    13 N13     16.1402  54.2904  22.6717   N.3       1 RES1   0.0000
    14 C14     17.3544  53.4710  22.4958   C.3       1 RES1   0.0000
    15 C15     17.6510  52.7292  23.7796   C.3       1 RES1   0.0000
    16 C16     17.7720  53.6660  24.9780   C.3       1 RES1   0.0000
    17 C17     18.0880  52.9420  26.2240   C.2       1 RES1   0.0000
    18 C18     17.6934  51.6182  26.4040   C.2       1 RES1   0.0000
    19 C19     18.0326  50.9565  27.5666   C.2       1 RES1   0.0000
    20 F20     17.6518  49.6855  27.7504   F         1 RES1   0.0000
    21 C21     18.7542  51.6099  28.5393   C.2       1 RES1   0.0000
    22 F22     19.0531  50.9527  29.6592   F         1 RES1   0.0000
    23 C23     19.1638  52.9305  28.3661   C.2       1 RES1   0.0000
    24 C24     18.8295  53.5970  27.1865   C.2       1 RES1   0.0000
    25 F25     19.2031  54.8690  26.9818   F         1 RES1   0.0000
    26 C26     16.5026  54.5282  25.0883   C.3       1 RES1   0.0000
    27 N27     16.5215  55.4713  26.1839   N.3       1 RES1   1.0000
    28 C28     16.2827  55.2712  23.7681   C.3       1 RES1   0.0000
    29 N29     16.1533  54.5649  20.3193   N.2       1 RES1   0.0000
    30 C30     15.6003  54.9583  19.1546   C.2       1 RES1   0.0000
    31 N31     14.3862  55.5276  19.1698   N.2       1 RES1   0.0000
    32 C32     11.7910  56.6118  21.4244   C.2       1 RES1   0.0000
@<TRIPOS>BOND
     1     1     2    1
     2     2     3    2
     3     2     4    2
     4     2     5    1
     5     5     6    2
     6     6     7    1
     7     7     8    2
     8     8     9    1
     9     9    10    1
    10    10    11    2
    11    11    12    1
    12    12    13    1
    13    13    14    1
    14    14    15    1
    15    16    15    1
    16    16    17    1
    17    17    18    2
    18    18    19    1
    19    19    20    1
    20    19    21    2
    21    21    22    1
    22    21    23    1
    23    23    24    2
    24    24    25    1
    25    16    26    1
    26    26    27    1
    27    26    28    1
    28    12    29    2
    29    29    30    1
    30    30    31    2
    31     9    32    2
    32    32     5    1
    33    31    10    1
    34    28    13    1
    35    24    17    1
@<TRIPOS>SUBSTRUCTURE
     1 RES1        1 GROUP             0 ****  ****    0  
@<TRIPOS>MOLECULE
ligand_13
    32    35     1     0     0
SMALL
USER_CHARGES
****
Generated from the CSD

@<TRIPOS>ATOM
     1 C1      16.8651  50.0905  16.8502   C.3       1 RES1   0.0000
     2 S2      17.6683  51.5144  16.4715   S.o2      1 RES1   0.0000
     3 O3      18.6853  51.7873  17.4702   O.2       1 RES1   0.0000
     4 O4      18.2562  51.3965  15.1531   O.2       1 RES1   0.0000
     5 C5      16.5954  52.7117  16.4648   C.2       1 RES1   0.0000
     6 C6      15.9785  53.2291  15.3109   C.2       1 RES1   0.0000
     7 C7      15.0493  54.2797  15.4151   C.2       1 RES1   0.0000
     8 C8      14.7310  54.8244  16.6713   C.2       1 RES1   0.0000
     9 C9      15.3642  54.2960  17.8004   C.2       1 RES1   0.0000
    10 C10     15.1262  54.7201  19.1808   C.2       1 RES1   0.0000
    11 C11     15.8378  54.2141  20.2554   C.2       1 RES1   0.0000
    12 C12     15.5011  54.7244  21.5135   C.2       1 RES1   0.0000
    13 N13     16.1402  54.2904  22.6717   N.3       1 RES1   0.0000
    14 C14     17.3151  53.4154  22.4967   C.3       1 RES1   0.0000
    15 C15     17.6010  52.6917  23.7932   C.3       1 RES1   0.0000
    16 C16     17.7819  53.6502  24.9666   C.3       1 RES1   0.0000
    17 C17     18.0873  52.9425  26.2246   C.2       1 RES1   0.0000
    18 C18     17.6363  51.6429  26.4441   C.2       1 RES1   0.0000
    19 C19     17.9661  50.9945  27.6168   C.2       1 RES1   0.0000
    20 F20     17.5314  49.7471  27.8385   F         1 RES1   0.0000
    21 C21     18.7342  51.6372  28.5605   C.2       1 RES1   0.0000
    22 F22     19.0232  50.9940  29.6911   F         1 RES1   0.0000
    23 C23     19.2002  52.9331  28.3477   C.2       1 RES1   0.0000
    24 C24     18.8751  53.5858  27.1578   C.2       1 RES1   0.0000
    25 F25     19.3024  54.8340  26.9152   F         1 RES1   0.0000
    26 C26     16.5527  54.5688  25.0759   C.3       1 RES1   0.0000
    27 N27     16.6302  55.5356  26.1481   N.3       1 RES1   1.0000
    28 C28     16.3428  55.2896  23.7418   C.3       1 RES1   0.0000
    29 N29     14.5154  55.6679  21.6362   N.2       1 RES1   0.0000
    30 C30     13.8514  56.1393  20.5621   C.2       1 RES1   0.0000
    31 N31     14.1590  55.6642  19.3463   N.2       1 RES1   0.0000
    32 C32     16.2733  53.2567  17.6946   C.2       1 RES1   0.0000
@<TRIPOS>BOND
     1     1     2    1
     2     2     3    2
     3     2     4    2
     4     2     5    1
     5     5     6    2
     6     6     7    1
     7     7     8    2
     8     8     9    1
     9     9    10    1
    10    10    11    2
    11    11    12    1
    12    12    13    1
    13    13    14    1
    14    14    15    1
    15    16    15    1
    16    16    17    1
    17    17    18    2
    18    18    19    1
    19    19    20    1
    20    19    21    2
    21    21    22    1
    22    21    23    1
    23    23    24    2
    24    24    25    1
    25    16    26    1
    26    26    27    1
    27    26    28    1
    28    12    29    2
    29    29    30    1
    30    30    31    2
    31     9    32    2
    32    32     5    1
    33    31    10    1
    34    28    13    1
    35    24    17    1
@<TRIPOS>SUBSTRUCTURE
     1 RES1        1 GROUP             0 ****  ****    0  
@<TRIPOS>MOLECULE
ligand_14
    32    35     1     0     0
SMALL
USER_CHARGES
****
Generated from the CSD

@<TRIPOS>ATOM
     1 C1      12.3916  54.6268  14.1994   C.3       1 RES1   0.0000
     2 S2      13.7391  55.5633  14.5500   S.o2      1 RES1   0.0000
     3 O3      14.4518  55.8794  13.3259   O.2       1 RES1   0.0000
     4 O4      13.3191  56.7708  15.2307   O.2       1 RES1   0.0000
     5 C5      14.7013  54.7180  15.5218   C.2       1 RES1   0.0000
     6 C6      15.6320  53.7554  15.0895   C.2       1 RES1   0.0000
     7 C7      16.4294  53.0711  16.0244   C.2       1 RES1   0.0000
     8 C8      16.3018  53.3398  17.3982   C.2       1 RES1   0.0000
     9 C9      15.3642  54.2960  17.8004   C.2       1 RES1   0.0000
    10 C10     15.1262  54.7201  19.1808   C.2       1 RES1   0.0000
    11 C11     15.8378  54.2141  20.2554   C.2       1 RES1   0.0000
    12 C12     15.5011  54.7244  21.5135   C.2       1 RES1   0.0000
    13 N13     16.1402  54.2904  22.6717   N.3       1 RES1   0.0000
    14 C14     17.3153  53.4157  22.4967   C.3       1 RES1   0.0000
    15 C15     17.6012  52.6919  23.7931   C.3       1 RES1   0.0000
    16 C16     17.7818  53.6502  24.9667   C.3       1 RES1   0.0000
    17 C17     18.0873  52.9425  26.2246   C.2       1 RES1   0.0000
    18 C18     17.6389  51.6418  26.4428   C.2       1 RES1   0.0000
    19 C19     17.9688  50.9934  27.6155   C.2       1 RES1   0.0000
    20 F20     17.5365  49.7449  27.8359   F         1 RES1   0.0000
    21 C21     18.7343  51.6372  28.5605   C.2       1 RES1   0.0000
    22 F22     19.0234  50.9940  29.6911   F         1 RES1   0.0000
    23 C23     19.1977  52.9343  28.3490   C.2       1 RES1   0.0000
    24 C24     18.8726  53.5869  27.1591   C.2       1 RES1   0.0000
    25 F25     19.2974  54.8363  26.9178   F         1 RES1   0.0000
    26 C26     16.5524  54.5686  25.0760   C.3       1 RES1   0.0000
    27 N27     16.6296  55.5353  26.1482   N.3       1 RES1   1.0000
    28 C28     16.3425  55.2895  23.7420   C.3       1 RES1   0.0000
    29 N29     14.5154  55.6679  21.6362   N.2       1 RES1   0.0000
    30 C30     13.8514  56.1393  20.5621   C.2       1 RES1   0.0000
    31 N31     14.1590  55.6642  19.3463   N.2       1 RES1   0.0000
    32 C32     14.5858  54.9728  16.8763   C.2       1 RES1   0.0000
@<TRIPOS>BOND
     1     1     2    1
     2     2     3    2
     3     2     4    2
     4     2     5    1
     5     5     6    2
     6     6     7    1
     7     7     8    2
     8     8     9    1
     9     9    10    1
    10    10    11    2
    11    11    12    1
    12    12    13    1
    13    13    14    1
    14    14    15    1
    15    16    15    1
    16    16    17    1
    17    17    18    2
    18    18    19    1
    19    19    20    1
    20    19    21    2
    21    21    22    1
    22    21    23    1
    23    23    24    2
    24    24    25    1
    25    16    26    1
    26    26    27    1
    27    26    28    1
    28    12    29    2
    29    29    30    1
    30    30    31    2
    31     9    32    2
    32    32     5    1
    33    31    10    1
    34    28    13    1
    35    24    17    1
@<TRIPOS>SUBSTRUCTURE
     1 RES1        1 GROUP             0 ****  ****    0  
@<TRIPOS>MOLECULE
ligand_15
    32    35     1     0     0
SMALL
USER_CHARGES
****
Generated from the CSD

@<TRIPOS>ATOM
     1 C1      19.1791  52.1606  16.1267   C.3       1 RES1   0.0000
     2 S2      17.6690  51.5150  16.4714   S.o2      1 RES1   0.0000
     3 O3      17.3068  50.5405  15.4589   O.2       1 RES1   0.0000
     4 O4      17.6962  50.9091  17.7867   O.2       1 RES1   0.0000
     5 C5      16.5957  52.7120  16.4648   C.2       1 RES1   0.0000
     6 C6      15.9786  53.2291  15.3109   C.2       1 RES1   0.0000
     7 C7      15.0491  54.2795  15.4151   C.2       1 RES1   0.0000
     8 C8      14.7307  54.8241  16.6713   C.2       1 RES1   0.0000
     9 C9      15.3642  54.2960  17.8004   C.2       1 RES1   0.0000
    10 C10     15.1262  54.7201  19.1808   C.2       1 RES1   0.0000
    11 C11     15.8378  54.2141  20.2554   C.2       1 RES1   0.0000
    12 C12     15.5011  54.7244  21.5135   C.2       1 RES1   0.0000
    13 N13     16.1402  54.2904  22.6717   N.3       1 RES1   0.0000
    14 C14     17.3150  53.4153  22.4967   C.3       1 RES1   0.0000
    15 C15     17.6009  52.6917  23.7932   C.3       1 RES1   0.0000
    16 C16     17.7819  53.6501  24.9666   C.3       1 RES1   0.0000
    17 C17     18.0873  52.9425  26.2246   C.2       1 RES1   0.0000
    18 C18     17.6361  51.6430  26.4442   C.2       1 RES1   0.0000
    19 C19     17.9660  50.9946  27.6169   C.2       1 RES1   0.0000
    20 F20     17.5311  49.7472  27.8387   F         1 RES1   0.0000
    21 C21     18.7342  51.6373  28.5606   C.2       1 RES1   0.0000
    22 F22     19.0232  50.9941  29.6912   F         1 RES1   0.0000
    23 C23     19.2003  52.9331  28.3477   C.2       1 RES1   0.0000
    24 C24     18.8752  53.5857  27.1577   C.2       1 RES1   0.0000
    25 F25     19.3026  54.8339  26.9151   F         1 RES1   0.0000
    26 C26     16.5528  54.5689  25.0759   C.3       1 RES1   0.0000
    27 N27     16.6304  55.5357  26.1480   N.3       1 RES1   1.0000
    28 C28     16.3430  55.2896  23.7418   C.3       1 RES1   0.0000
    29 N29     14.5154  55.6679  21.6362   N.2       1 RES1   0.0000
    30 C30     13.8514  56.1393  20.5621   C.2       1 RES1   0.0000
    31 N31     14.1590  55.6642  19.3463   N.2       1 RES1   0.0000
    32 C32     16.2736  53.2570  17.6945   C.2       1 RES1   0.0000
@<TRIPOS>BOND
     1     1     2    1
     2     2     3    2
     3     2     4    2
     4     2     5    1
     5     5     6    2
     6     6     7    1
     7     7     8    2
     8     8     9    1
     9     9    10    1
    10    10    11    2
    11    11    12    1
    12    12    13    1
    13    13    14    1
    14    14    15    1
    15    16    15    1
    16    16    17    1
    17    17    18    2
    18    18    19    1
    19    19    20    1
    20    19    21    2
    21    21    22    1
    22    21    23    1
    23    23    24    2
    24    24    25    1
    25    16    26    1
    26    26    27    1
    27    26    28    1
    28    12    29    2
    29    29    30    1
    30    30    31    2
    31     9    32    2
    32    32     5    1
    33    31    10    1
    34    28    13    1
    35    24    17    1
@<TRIPOS>SUBSTRUCTURE
     1 RES1        1 GROUP             0 ****  ****    0  
@<TRIPOS>MOLECULE
ligand_16
    32    35     1     0     0
SMALL
USER_CHARGES
****
Generated from the CSD

@<TRIPOS>ATOM
     1 C1      18.7350  63.5731  18.5317   C.3       1 RES1   0.0000
     2 S2      19.2350  62.2551  17.6213   S.o2      1 RES1   0.0000
     3 O3      18.0924  61.6487  16.9632   O.2       1 RES1   0.0000
     4 O4      20.2203  62.6886  16.6523   O.2       1 RES1   0.0000
     5 C5      19.9073  61.1834  18.6132   C.2       1 RES1   0.0000
     6 C6      21.2913  61.0464  18.8266   C.2       1 RES1   0.0000
     7 C7      21.7776  60.0750  19.7199   C.2       1 RES1   0.0000
     8 C8      20.8866  59.2305  20.4047   C.2       1 RES1   0.0000
     9 C9      19.5170  59.3837  20.1683   C.2       1 RES1   0.0000
    10 C10     18.4545  58.6151  20.8182   C.2       1 RES1   0.0000
    11 C11     18.7063  57.6413  21.7698   C.2       1 RES1   0.0000
    12 C12     17.5856  56.9988  22.3065   C.2       1 RES1   0.0000
    13 N13     17.7084  55.9977  23.2660   N.3       1 RES1   0.0000
    14 C14     16.4681  55.5589  23.9338   C.3       1 RES1   0.0000
    15 C15     16.8158  54.8316  25.2130   C.3       1 RES1   0.0000
    16 C16     17.7720  53.6660  24.9780   C.3       1 RES1   0.0000
    17 C17     18.0880  52.9420  26.2240   C.2       1 RES1   0.0000
    18 C18     17.7413  51.6021  26.3826   C.2       1 RES1   0.0000
    19 C19     18.0799  50.9422  27.5463   C.2       1 RES1   0.0000
    20 F20     17.7448  49.6556  27.7094   F         1 RES1   0.0000
    21 C21     18.7536  51.6129  28.5412   C.2       1 RES1   0.0000
    22 F22     19.0528  50.9563  29.6614   F         1 RES1   0.0000
    23 C23     19.1153  52.9501  28.3898   C.2       1 RES1   0.0000
    24 C24     18.7818  53.6153  27.2092   C.2       1 RES1   0.0000
    25 F25     19.1101  54.9028  27.0250   F         1 RES1   0.0000
    26 C26     19.0247  54.1680  24.2394   C.3       1 RES1   0.0000
    27 N27     19.9923  53.1347  23.9460   N.3       1 RES1   1.0000
    28 C28     18.6000  54.8638  22.9437   C.3       1 RES1   0.0000
    29 N29     16.3264  57.3387  21.8871   N.2       1 RES1   0.0000
    30 C30     16.1251  58.2986  20.9625   C.2       1 RES1   0.0000
    31 N31     17.1857  58.9278  20.4355   N.2       1 RES1   0.0000
    32 C32     19.0416  60.3461  19.2933   C.2       1 RES1   0.0000
@<TRIPOS>BOND
     1     1     2    1
     2     2     3    2
     3     2     4    2
     4     2     5    1
     5     5     6    2
     6     6     7    1
     7     7     8    2
     8     8     9    1
     9     9    10    1
    10    10    11    2
    11    11    12    1
    12    12    13    1
    13    13    14    1
    14    14    15    1
    15    16    15    1
    16    16    17    1
    17    17    18    2
    18    18    19    1
    19    19    20    1
    20    19    21    2
    21    21    22    1
    22    21    23    1
    23    23    24    2
    24    24    25    1
    25    16    26    1
    26    26    27    1
    27    26    28    1
    28    12    29    2
    29    29    30    1
    30    30    31    2
    31     9    32    2
    32    32     5    1
    33    31    10    1
    34    28    13    1
    35    24    17    1
@<TRIPOS>SUBSTRUCTURE
     1 RES1        1 GROUP             0 ****  ****    0  
@<TRIPOS>MOLECULE
ligand_17
    32    35     1     0     0
SMALL
USER_CHARGES
****
Generated from the CSD

@<TRIPOS>ATOM
     1 C1      23.6652  57.5915  19.5182   C.3       1 RES1   0.0000
     2 S2      23.3337  58.9621  20.4279   S.o2      1 RES1   0.0000
     3 O3      23.2670  58.6152  21.8355   O.2       1 RES1   0.0000
     4 O4      24.3597  59.9558  20.1879   O.2       1 RES1   0.0000
     5 C5      21.9124  59.5479  19.9571   C.2       1 RES1   0.0000
     6 C6      21.7436  60.6066  19.0459   C.2       1 RES1   0.0000
     7 C7      20.4525  61.0432  18.6986   C.2       1 RES1   0.0000
     8 C8      19.3200  60.4286  19.2603   C.2       1 RES1   0.0000
     9 C9      19.5170  59.3837  20.1683   C.2       1 RES1   0.0000
    10 C10     18.4545  58.6151  20.8182   C.2       1 RES1   0.0000
    11 C11     18.7063  57.6413  21.7698   C.2       1 RES1   0.0000
    12 C12     17.5856  56.9988  22.3065   C.2       1 RES1   0.0000
    13 N13     17.7084  55.9977  23.2660   N.3       1 RES1   0.0000
    14 C14     16.4681  55.5589  23.9338   C.3       1 RES1   0.0000
    15 C15     16.8158  54.8316  25.2130   C.3       1 RES1   0.0000
    16 C16     17.7720  53.6660  24.9780   C.3       1 RES1   0.0000
    17 C17     18.0880  52.9420  26.2240   C.2       1 RES1   0.0000
    18 C18     17.7411  51.6022  26.3826   C.2       1 RES1   0.0000
    19 C19     18.0798  50.9422  27.5464   C.2       1 RES1   0.0000
    20 F20     17.7446  49.6557  27.7095   F         1 RES1   0.0000
    21 C21     18.7536  51.6129  28.5412   C.2       1 RES1   0.0000
    22 F22     19.0528  50.9563  29.6614   F         1 RES1   0.0000
    23 C23     19.1154  52.9501  28.3898   C.2       1 RES1   0.0000
    24 C24     18.7819  53.6152  27.2091   C.2       1 RES1   0.0000
    25 F25     19.1104  54.9027  27.0249   F         1 RES1   0.0000
    26 C26     19.0247  54.1680  24.2394   C.3       1 RES1   0.0000
    27 N27     19.9923  53.1347  23.9460   N.3       1 RES1   1.0000
    28 C28     18.6000  54.8638  22.9437   C.3       1 RES1   0.0000
    29 N29     16.3264  57.3387  21.8871   N.2       1 RES1   0.0000
    30 C30     16.1251  58.2986  20.9625   C.2       1 RES1   0.0000
    31 N31     17.1857  58.9278  20.4355   N.2       1 RES1   0.0000
    32 C32     20.7897  58.9520  20.5025   C.2       1 RES1   0.0000
@<TRIPOS>BOND
     1     1     2    1
     2     2     3    2
     3     2     4    2
     4     2     5    1
     5     5     6    2
     6     6     7    1
     7     7     8    2
     8     8     9    1
     9     9    10    1
    10    10    11    2
    11    11    12    1
    12    12    13    1
    13    13    14    1
    14    14    15    1
    15    16    15    1
    16    16    17    1
    17    17    18    2
    18    18    19    1
    19    19    20    1
    20    19    21    2
    21    21    22    1
    22    21    23    1
    23    23    24    2
    24    24    25    1
    25    16    26    1
    26    26    27    1
    27    26    28    1
    28    12    29    2
    29    29    30    1
    30    30    31    2
    31     9    32    2
    32    32     5    1
    33    31    10    1
    34    28    13    1
    35    24    17    1
@<TRIPOS>SUBSTRUCTURE
     1 RES1        1 GROUP             0 ****  ****    0  
@<TRIPOS>MOLECULE
ligand_18
    32    35     1     0     0
SMALL
USER_CHARGES
****
Generated from the CSD

@<TRIPOS>ATOM
     1 C1      19.2659  61.6309  16.0692   C.3       1 RES1   0.0000
     2 S2      19.2348  62.2586  17.6252   S.o2      1 RES1   0.0000
     3 O3      19.9925  63.4955  17.6729   O.2       1 RES1   0.0000
     4 O4      17.8604  62.4779  18.0257   O.2       1 RES1   0.0000
     5 C5      19.9073  61.1850  18.6152   C.2       1 RES1   0.0000
     6 C6      21.2914  61.0468  18.8271   C.2       1 RES1   0.0000
     7 C7      21.7777  60.0738  19.7187   C.2       1 RES1   0.0000
     8 C8      20.8867  59.2291  20.4032   C.2       1 RES1   0.0000
     9 C9      19.5170  59.3837  20.1683   C.2       1 RES1   0.0000
    10 C10     18.4545  58.6151  20.8182   C.2       1 RES1   0.0000
    11 C11     18.7063  57.6413  21.7698   C.2       1 RES1   0.0000
    12 C12     17.5856  56.9988  22.3065   C.2       1 RES1   0.0000
    13 N13     17.7084  55.9977  23.2660   N.3       1 RES1   0.0000
    14 C14     16.4681  55.5589  23.9338   C.3       1 RES1   0.0000
    15 C15     16.8158  54.8316  25.2130   C.3       1 RES1   0.0000
    16 C16     17.7720  53.6660  24.9780   C.3       1 RES1   0.0000
    17 C17     18.0880  52.9420  26.2240   C.2       1 RES1   0.0000
    18 C18     17.7412  51.6022  26.3826   C.2       1 RES1   0.0000
    19 C19     18.0798  50.9422  27.5463   C.2       1 RES1   0.0000
    20 F20     17.7447  49.6557  27.7095   F         1 RES1   0.0000
    21 C21     18.7536  51.6129  28.5412   C.2       1 RES1   0.0000
    22 F22     19.0528  50.9563  29.6614   F         1 RES1   0.0000
    23 C23     19.1154  52.9501  28.3898   C.2       1 RES1   0.0000
    24 C24     18.7819  53.6152  27.2092   C.2       1 RES1   0.0000
    25 F25     19.1103  54.9028  27.0250   F         1 RES1   0.0000
    26 C26     19.0247  54.1680  24.2394   C.3       1 RES1   0.0000
    27 N27     19.9923  53.1347  23.9460   N.3       1 RES1   1.0000
    28 C28     18.6000  54.8638  22.9437   C.3       1 RES1   0.0000
    29 N29     16.3264  57.3387  21.8871   N.2       1 RES1   0.0000
    30 C30     16.1251  58.2986  20.9625   C.2       1 RES1   0.0000
    31 N31     17.1857  58.9278  20.4355   N.2       1 RES1   0.0000
    32 C32     19.0416  60.3476  19.2949   C.2       1 RES1   0.0000
@<TRIPOS>BOND
     1     1     2    1
     2     2     3    2
     3     2     4    2
     4     2     5    1
     5     5     6    2
     6     6     7    1
     7     7     8    2
     8     8     9    1
     9     9    10    1
    10    10    11    2
    11    11    12    1
    12    12    13    1
    13    13    14    1
    14    14    15    1
    15    16    15    1
    16    16    17    1
    17    17    18    2
    18    18    19    1
    19    19    20    1
    20    19    21    2
    21    21    22    1
    22    21    23    1
    23    23    24    2
    24    24    25    1
    25    16    26    1
    26    26    27    1
    27    26    28    1
    28    12    29    2
    29    29    30    1
    30    30    31    2
    31     9    32    2
    32    32     5    1
    33    31    10    1
    34    28    13    1
    35    24    17    1
@<TRIPOS>SUBSTRUCTURE
     1 RES1        1 GROUP             0 ****  ****    0  
@<TRIPOS>MOLECULE
ligand_19
    32    35     1     0     0
SMALL
USER_CHARGES
****
Generated from the CSD

@<TRIPOS>ATOM
     1 C1      14.6072  61.3364  16.7298   C.3       1 RES1   0.0000
     2 S2      14.7930  62.2146  18.1476   S.o2      1 RES1   0.0000
     3 O3      16.1664  62.6671  18.2707   O.2       1 RES1   0.0000
     4 O4      13.8772  63.3367  18.1394   O.2       1 RES1   0.0000
     5 C5      14.4373  61.2533  19.3862   C.2       1 RES1   0.0000
     6 C6      13.1951  61.2225  20.0463   C.2       1 RES1   0.0000
     7 C7      12.9860  60.3401  21.1213   C.2       1 RES1   0.0000
     8 C8      14.0158  59.4838  21.5479   C.2       1 RES1   0.0000
     9 C9      15.2422  59.5403  20.8786   C.2       1 RES1   0.0000
    10 C10     16.4048  58.7001  21.1691   C.2       1 RES1   0.0000
    11 C11     16.4007  57.7263  22.1534   C.2       1 RES1   0.0000
    12 C12     17.5856  56.9988  22.3065   C.2       1 RES1   0.0000
    13 N13     17.7084  55.9977  23.2660   N.3       1 RES1   0.0000
    14 C14     16.4786  55.6044  23.9799   C.3       1 RES1   0.0000
    15 C15     16.8468  54.8704  25.2495   C.3       1 RES1   0.0000
    16 C16     17.7535  53.6717  24.9863   C.3       1 RES1   0.0000
    17 C17     18.0890  52.9419  26.2238   C.2       1 RES1   0.0000
    18 C18     17.7021  51.6156  26.4016   C.2       1 RES1   0.0000
    19 C19     18.0594  50.9488  27.5558   C.2       1 RES1   0.0000
    20 F20     17.6861  49.6753  27.7374   F         1 RES1   0.0000
    21 C21     18.7915  51.5995  28.5223   C.2       1 RES1   0.0000
    22 F22     19.1080  50.9371  29.6344   F         1 RES1   0.0000
    23 C23     19.1936  52.9226  28.3512   C.2       1 RES1   0.0000
    24 C24     18.8409  53.5944  27.1799   C.2       1 RES1   0.0000
    25 F25     19.2068  54.8691  26.9775   F         1 RES1   0.0000
    26 C26     18.9953  54.1275  24.2008   C.3       1 RES1   0.0000
    27 N27     19.9158  53.0603  23.8782   N.3       1 RES1   1.0000
    28 C28     18.5484  54.8326  22.9177   C.3       1 RES1   0.0000
    29 N29     18.6688  57.2657  21.5113   N.2       1 RES1   0.0000
    30 C30     18.6282  58.2188  20.5590   C.2       1 RES1   0.0000
    31 N31     17.5015  58.9275  20.3948   N.2       1 RES1   0.0000
    32 C32     15.4421  60.4056  19.8160   C.2       1 RES1   0.0000
@<TRIPOS>BOND
     1     1     2    1
     2     2     3    2
     3     2     4    2
     4     2     5    1
     5     5     6    2
     6     6     7    1
     7     7     8    2
     8     8     9    1
     9     9    10    1
    10    10    11    2
    11    11    12    1
    12    12    13    1
    13    13    14    1
    14    14    15    1
    15    16    15    1
    16    16    17    1
    17    17    18    2
    18    18    19    1
    19    19    20    1
    20    19    21    2
    21    21    22    1
    22    21    23    1
    23    23    24    2
    24    24    25    1
    25    16    26    1
    26    26    27    1
    27    26    28    1
    28    12    29    2
    29    29    30    1
    30    30    31    2
    31     9    32    2
    32    32     5    1
    33    31    10    1
    34    28    13    1
    35    24    17    1
@<TRIPOS>SUBSTRUCTURE
     1 RES1        1 GROUP             0 ****  ****    0  
@<TRIPOS>MOLECULE
ligand_20
    32    35     1     0     0
SMALL
USER_CHARGES
****
Generated from the CSD

@<TRIPOS>ATOM
     1 C1      23.9205  59.9304  21.6624   C.3       1 RES1   0.0000
     2 S2      23.3336  58.9601  20.4255   S.o2      1 RES1   0.0000
     3 O3      24.2548  58.9799  19.3042   O.2       1 RES1   0.0000
     4 O4      23.1502  57.6115  20.9207   O.2       1 RES1   0.0000
     5 C5      21.9123  59.5469  19.9559   C.2       1 RES1   0.0000
     6 C6      21.7436  60.6064  19.0456   C.2       1 RES1   0.0000
     7 C7      20.4525  61.0438  18.6993   C.2       1 RES1   0.0000
     8 C8      19.3200  60.4294  19.2612   C.2       1 RES1   0.0000
     9 C9      19.5170  59.3837  20.1683   C.2       1 RES1   0.0000
    10 C10     18.4545  58.6151  20.8182   C.2       1 RES1   0.0000
    11 C11     18.7063  57.6413  21.7698   C.2       1 RES1   0.0000
    12 C12     17.5856  56.9988  22.3065   C.2       1 RES1   0.0000
    13 N13     17.7084  55.9977  23.2660   N.3       1 RES1   0.0000
    14 C14     16.4681  55.5589  23.9338   C.3       1 RES1   0.0000
    15 C15     16.8158  54.8316  25.2130   C.3       1 RES1   0.0000
    16 C16     17.7720  53.6660  24.9780   C.3       1 RES1   0.0000
    17 C17     18.0880  52.9420  26.2240   C.2       1 RES1   0.0000
    18 C18     17.7400  51.6025  26.3832   C.2       1 RES1   0.0000
    19 C19     18.0786  50.9426  27.5468   C.2       1 RES1   0.0000
    20 F20     17.7423  49.6564  27.7105   F         1 RES1   0.0000
    21 C21     18.7536  51.6128  28.5412   C.2       1 RES1   0.0000
    22 F22     19.0528  50.9562  29.6613   F         1 RES1   0.0000
    23 C23     19.1166  52.9496  28.3892   C.2       1 RES1   0.0000
    24 C24     18.7831  53.6148  27.2086   C.2       1 RES1   0.0000
    25 F25     19.1127  54.9020  27.0239   F         1 RES1   0.0000
    26 C26     19.0247  54.1680  24.2394   C.3       1 RES1   0.0000
    27 N27     19.9923  53.1347  23.9460   N.3       1 RES1   1.0000
    28 C28     18.6000  54.8638  22.9437   C.3       1 RES1   0.0000
    29 N29     16.3264  57.3387  21.8871   N.2       1 RES1   0.0000
    30 C30     16.1251  58.2986  20.9625   C.2       1 RES1   0.0000
    31 N31     17.1857  58.9278  20.4355   N.2       1 RES1   0.0000
    32 C32     20.7897  58.9511  20.5015   C.2       1 RES1   0.0000
@<TRIPOS>BOND
     1     1     2    1
     2     2     3    2
     3     2     4    2
     4     2     5    1
     5     5     6    2
     6     6     7    1
     7     7     8    2
     8     8     9    1
     9     9    10    1
    10    10    11    2
    11    11    12    1
    12    12    13    1
    13    13    14    1
    14    14    15    1
    15    16    15    1
    16    16    17    1
    17    17    18    2
    18    18    19    1
    19    19    20    1
    20    19    21    2
    21    21    22    1
    22    21    23    1
    23    23    24    2
    24    24    25    1
    25    16    26    1
    26    26    27    1
    27    26    28    1
    28    12    29    2
    29    29    30    1
    30    30    31    2
    31     9    32    2
    32    32     5    1
    33    31    10    1
    34    28    13    1
    35    24    17    1
@<TRIPOS>SUBSTRUCTURE
     1 RES1        1 GROUP             0 ****  ****    0  
@<TRIPOS>MOLECULE
ligand_21
    32    35     1     0     0
SMALL
USER_CHARGES
****
Generated from the CSD

@<TRIPOS>ATOM
     1 C1      12.2375  60.6202  24.1417   C.3       1 RES1   0.0000
     2 S2      11.8807  59.7720  22.7384   S.o2      1 RES1   0.0000
     3 O3      11.8593  58.3475  23.0153   O.2       1 RES1   0.0000
     4 O4      10.6034  60.2178  22.2210   O.2       1 RES1   0.0000
     5 C5      13.0264  60.0854  21.6549   C.2       1 RES1   0.0000
     6 C6      12.9167  61.0371  20.6244   C.2       1 RES1   0.0000
     7 C7      13.9815  61.2358  19.7274   C.2       1 RES1   0.0000
     8 C8      15.1630  60.4840  19.8499   C.2       1 RES1   0.0000
     9 C9      15.2422  59.5403  20.8786   C.2       1 RES1   0.0000
    10 C10     16.4048  58.7001  21.1691   C.2       1 RES1   0.0000
    11 C11     16.4007  57.7263  22.1534   C.2       1 RES1   0.0000
    12 C12     17.5856  56.9988  22.3065   C.2       1 RES1   0.0000
    13 N13     17.7084  55.9977  23.2660   N.3       1 RES1   0.0000
    14 C14     16.4789  55.6057  23.9812   C.3       1 RES1   0.0000
    15 C15     16.8477  54.8715  25.2505   C.3       1 RES1   0.0000
    16 C16     17.7530  53.6718  24.9865   C.3       1 RES1   0.0000
    17 C17     18.0891  52.9419  26.2238   C.2       1 RES1   0.0000
    18 C18     17.7009  51.6160  26.4022   C.2       1 RES1   0.0000
    19 C19     18.0588  50.9490  27.5561   C.2       1 RES1   0.0000
    20 F20     17.6844  49.6759  27.7383   F         1 RES1   0.0000
    21 C21     18.7926  51.5991  28.5218   C.2       1 RES1   0.0000
    22 F22     19.1095  50.9366  29.6336   F         1 RES1   0.0000
    23 C23     19.1958  52.9218  28.3500   C.2       1 RES1   0.0000
    24 C24     18.8426  53.5938  27.1791   C.2       1 RES1   0.0000
    25 F25     19.2096  54.8680  26.9760   F         1 RES1   0.0000
    26 C26     18.9945  54.1264  24.1998   C.3       1 RES1   0.0000
    27 N27     19.9136  53.0583  23.8763   N.3       1 RES1   1.0000
    28 C28     18.5470  54.8317  22.9170   C.3       1 RES1   0.0000
    29 N29     18.6688  57.2657  21.5113   N.2       1 RES1   0.0000
    30 C30     18.6282  58.2188  20.5590   C.2       1 RES1   0.0000
    31 N31     17.5015  58.9275  20.3948   N.2       1 RES1   0.0000
    32 C32     14.1942  59.3525  21.7642   C.2       1 RES1   0.0000
@<TRIPOS>BOND
     1     1     2    1
     2     2     3    2
     3     2     4    2
     4     2     5    1
     5     5     6    2
     6     6     7    1
     7     7     8    2
     8     8     9    1
     9     9    10    1
    10    10    11    2
    11    11    12    1
    12    12    13    1
    13    13    14    1
    14    14    15    1
    15    16    15    1
    16    16    17    1
    17    17    18    2
    18    18    19    1
    19    19    20    1
    20    19    21    2
    21    21    22    1
    22    21    23    1
    23    23    24    2
    24    24    25    1
    25    16    26    1
    26    26    27    1
    27    26    28    1
    28    12    29    2
    29    29    30    1
    30    30    31    2
    31     9    32    2
    32    32     5    1
    33    31    10    1
    34    28    13    1
    35    24    17    1
@<TRIPOS>SUBSTRUCTURE
     1 RES1        1 GROUP             0 ****  ****    0  
@<TRIPOS>MOLECULE
ligand_22
    32    35     1     0     0
SMALL
USER_CHARGES
****
Generated from the CSD

@<TRIPOS>ATOM
     1 C1      15.2413  63.7128  18.7564   C.3       1 RES1   0.0000
     2 S2      14.7930  62.2147  18.1476   S.o2      1 RES1   0.0000
     3 O3      13.6238  62.3570  17.2997   O.2       1 RES1   0.0000
     4 O4      15.9018  61.6466  17.4090   O.2       1 RES1   0.0000
     5 C5      14.4373  61.2533  19.3862   C.2       1 RES1   0.0000
     6 C6      13.1951  61.2226  20.0464   C.2       1 RES1   0.0000
     7 C7      12.9860  60.3401  21.1213   C.2       1 RES1   0.0000
     8 C8      14.0158  59.4838  21.5479   C.2       1 RES1   0.0000
     9 C9      15.2422  59.5403  20.8786   C.2       1 RES1   0.0000
    10 C10     16.4048  58.7001  21.1691   C.2       1 RES1   0.0000
    11 C11     16.4007  57.7263  22.1534   C.2       1 RES1   0.0000
    12 C12     17.5856  56.9988  22.3065   C.2       1 RES1   0.0000
    13 N13     17.7084  55.9977  23.2660   N.3       1 RES1   0.0000
    14 C14     16.4785  55.6042  23.9797   C.3       1 RES1   0.0000
    15 C15     16.8467  54.8702  25.2494   C.3       1 RES1   0.0000
    16 C16     17.7536  53.6717  24.9863   C.3       1 RES1   0.0000
    17 C17     18.0890  52.9419  26.2238   C.2       1 RES1   0.0000
    18 C18     17.7023  51.6155  26.4015   C.2       1 RES1   0.0000
    19 C19     18.0596  50.9487  27.5557   C.2       1 RES1   0.0000
    20 F20     17.6866  49.6751  27.7372   F         1 RES1   0.0000
    21 C21     18.7914  51.5995  28.5224   C.2       1 RES1   0.0000
    22 F22     19.1078  50.9372  29.6345   F         1 RES1   0.0000
    23 C23     19.1932  52.9228  28.3514   C.2       1 RES1   0.0000
    24 C24     18.8406  53.5946  27.1801   C.2       1 RES1   0.0000
    25 F25     19.2062  54.8693  26.9778   F         1 RES1   0.0000
    26 C26     18.9955  54.1277  24.2010   C.3       1 RES1   0.0000
    27 N27     19.9161  53.0606  23.8784   N.3       1 RES1   1.0000
    28 C28     18.5486  54.8327  22.9178   C.3       1 RES1   0.0000
    29 N29     18.6688  57.2657  21.5113   N.2       1 RES1   0.0000
    30 C30     18.6282  58.2188  20.5590   C.2       1 RES1   0.0000
    31 N31     17.5015  58.9275  20.3948   N.2       1 RES1   0.0000
    32 C32     15.4421  60.4056  19.8160   C.2       1 RES1   0.0000
@<TRIPOS>BOND
     1     1     2    1
     2     2     3    2
     3     2     4    2
     4     2     5    1
     5     5     6    2
     6     6     7    1
     7     7     8    2
     8     8     9    1
     9     9    10    1
    10    10    11    2
    11    11    12    1
    12    12    13    1
    13    13    14    1
    14    14    15    1
    15    16    15    1
    16    16    17    1
    17    17    18    2
    18    18    19    1
    19    19    20    1
    20    19    21    2
    21    21    22    1
    22    21    23    1
    23    23    24    2
    24    24    25    1
    25    16    26    1
    26    26    27    1
    27    26    28    1
    28    12    29    2
    29    29    30    1
    30    30    31    2
    31     9    32    2
    32    32     5    1
    33    31    10    1
    34    28    13    1
    35    24    17    1
@<TRIPOS>SUBSTRUCTURE
     1 RES1        1 GROUP             0 ****  ****    0  
@<TRIPOS>MOLECULE
ligand_23
    32    35     1     0     0
SMALL
USER_CHARGES
****
Generated from the CSD

@<TRIPOS>ATOM
     1 C1      10.7909  58.6965  22.0571   C.3       1 RES1   0.0000
     2 S2      11.8816  59.7737  22.7398   S.o2      1 RES1   0.0000
     3 O3      11.2024  61.0077  23.0893   O.2       1 RES1   0.0000
     4 O4      12.4863  59.1671  23.9077   O.2       1 RES1   0.0000
     5 C5      13.0269  60.0863  21.6556   C.2       1 RES1   0.0000
     6 C6      12.9168  61.0373  20.6245   C.2       1 RES1   0.0000
     7 C7      13.9813  61.2352  19.7269   C.2       1 RES1   0.0000
     8 C8      15.1627  60.4834  19.8493   C.2       1 RES1   0.0000
     9 C9      15.2422  59.5403  20.8786   C.2       1 RES1   0.0000
    10 C10     16.4048  58.7001  21.1691   C.2       1 RES1   0.0000
    11 C11     16.4007  57.7263  22.1534   C.2       1 RES1   0.0000
    12 C12     17.5856  56.9988  22.3065   C.2       1 RES1   0.0000
    13 N13     17.7084  55.9977  23.2660   N.3       1 RES1   0.0000
    14 C14     16.4787  55.6050  23.9806   C.3       1 RES1   0.0000
    15 C15     16.8473  54.8709  25.2501   C.3       1 RES1   0.0000
    16 C16     17.7532  53.6718  24.9864   C.3       1 RES1   0.0000
    17 C17     18.0891  52.9419  26.2238   C.2       1 RES1   0.0000
    18 C18     17.7015  51.6158  26.4019   C.2       1 RES1   0.0000
    19 C19     18.0591  50.9489  27.5559   C.2       1 RES1   0.0000
    20 F20     17.6852  49.6756  27.7378   F         1 RES1   0.0000
    21 C21     18.7921  51.5993  28.5221   C.2       1 RES1   0.0000
    22 F22     19.1088  50.9369  29.6340   F         1 RES1   0.0000
    23 C23     19.1948  52.9222  28.3506   C.2       1 RES1   0.0000
    24 C24     18.8418  53.5941  27.1795   C.2       1 RES1   0.0000
    25 F25     19.2083  54.8685  26.9767   F         1 RES1   0.0000
    26 C26     18.9949  54.1269  24.2003   C.3       1 RES1   0.0000
    27 N27     19.9147  53.0593  23.8772   N.3       1 RES1   1.0000
    28 C28     18.5477  54.8321  22.9174   C.3       1 RES1   0.0000
    29 N29     18.6688  57.2657  21.5113   N.2       1 RES1   0.0000
    30 C30     18.6282  58.2188  20.5590   C.2       1 RES1   0.0000
    31 N31     17.5015  58.9275  20.3948   N.2       1 RES1   0.0000
    32 C32     14.1946  59.3532  21.7649   C.2       1 RES1   0.0000
@<TRIPOS>BOND
     1     1     2    1
     2     2     3    2
     3     2     4    2
     4     2     5    1
     5     5     6    2
     6     6     7    1
     7     7     8    2
     8     8     9    1
     9     9    10    1
    10    10    11    2
    11    11    12    1
    12    12    13    1
    13    13    14    1
    14    14    15    1
    15    16    15    1
    16    16    17    1
    17    17    18    2
    18    18    19    1
    19    19    20    1
    20    19    21    2
    21    21    22    1
    22    21    23    1
    23    23    24    2
    24    24    25    1
    25    16    26    1
    26    26    27    1
    27    26    28    1
    28    12    29    2
    29    29    30    1
    30    30    31    2
    31     9    32    2
    32    32     5    1
    33    31    10    1
    34    28    13    1
    35    24    17    1
@<TRIPOS>SUBSTRUCTURE
     1 RES1        1 GROUP             0 ****  ****    0  
@<TRIPOS>MOLECULE
ligand_24
    32    35     1     0     0
SMALL
USER_CHARGES
****
Generated from the CSD

@<TRIPOS>ATOM
     1 C1      15.2292  58.0296  14.4464   C.3       1 RES1   0.0000
     2 S2      16.2253  56.7014  14.2026   S.o2      1 RES1   0.0000
     3 O3      15.4214  55.5012  14.0631   O.2       1 RES1   0.0000
     4 O4      17.0361  56.9211  13.0227   O.2       1 RES1   0.0000
     5 C5      17.1870  56.5511  15.4822   C.2       1 RES1   0.0000
     6 C6      18.5113  57.0214  15.5496   C.2       1 RES1   0.0000
     7 C7      19.2687  56.8398  16.7207   C.2       1 RES1   0.0000
     8 C8      18.7115  56.1845  17.8324   C.2       1 RES1   0.0000
     9 C9      17.3958  55.7210  17.7354   C.2       1 RES1   0.0000
    10 C10     16.6533  55.0508  18.8038   C.2       1 RES1   0.0000
    11 C11     17.1899  54.8161  20.0585   C.2       1 RES1   0.0000
    12 C12     16.3537  54.1723  20.9766   C.2       1 RES1   0.0000
    13 N13     16.7800  53.8749  22.2680   N.3       1 RES1   0.0000
    14 C14     18.2366  53.8584  22.5018   C.3       1 RES1   0.0000
    15 C15     18.5329  53.1021  23.7771   C.3       1 RES1   0.0000
    16 C16     17.7760  53.6650  24.9765   C.3       1 RES1   0.0000
    17 C17     18.0878  52.9420  26.2241   C.2       1 RES1   0.0000
    18 C18     17.6885  51.6198  26.4057   C.2       1 RES1   0.0000
    19 C19     18.0239  50.9589  27.5698   C.2       1 RES1   0.0000
    20 F20     17.6385  49.6895  27.7550   F         1 RES1   0.0000
    21 C21     18.7463  51.6113  28.5424   C.2       1 RES1   0.0000
    22 F22     19.0414  50.9549  29.6638   F         1 RES1   0.0000
    23 C23     19.1605  52.9303  28.3677   C.2       1 RES1   0.0000
    24 C24     18.8302  53.5960  27.1866   C.2       1 RES1   0.0000
    25 F25     19.2084  54.8665  26.9804   F         1 RES1   0.0000
    26 C26     16.2702  53.7038  24.6636   C.3       1 RES1   0.0000
    27 N27     15.4579  54.2433  25.7309   N.3       1 RES1   1.0000
    28 C28     16.0431  54.5088  23.3815   C.3       1 RES1   0.0000
    29 N29     15.0832  53.8070  20.6171   N.2       1 RES1   0.0000
    30 C30     14.5969  54.0610  19.3858   C.2       1 RES1   0.0000
    31 N31     15.3818  54.6781  18.4904   N.2       1 RES1   0.0000
    32 C32     16.6508  55.9080  16.5831   C.2       1 RES1   0.0000
@<TRIPOS>BOND
     1     1     2    1
     2     2     3    2
     3     2     4    2
     4     2     5    1
     5     5     6    2
     6     6     7    1
     7     7     8    2
     8     8     9    1
     9     9    10    1
    10    10    11    2
    11    11    12    1
    12    12    13    1
    13    13    14    1
    14    14    15    1
    15    16    15    1
    16    16    17    1
    17    17    18    2
    18    18    19    1
    19    19    20    1
    20    19    21    2
    21    21    22    1
    22    21    23    1
    23    23    24    2
    24    24    25    1
    25    16    26    1
    26    26    27    1
    27    26    28    1
    28    12    29    2
    29    29    30    1
    30    30    31    2
    31     9    32    2
    32    32     5    1
    33    31    10    1
    34    28    13    1
    35    24    17    1
@<TRIPOS>SUBSTRUCTURE
     1 RES1        1 GROUP             0 ****  ****    0  
@<TRIPOS>MOLECULE
ligand_25
    32    35     1     0     0
SMALL
USER_CHARGES
****
Generated from the CSD

@<TRIPOS>ATOM
     1 C1      21.9412  55.3973  17.4596   C.3       1 RES1   0.0000
     2 S2      21.0818  56.8252  17.6552   S.o2      1 RES1   0.0000
     3 O3      21.0684  57.2045  19.0560   O.2       1 RES1   0.0000
     4 O4      21.6853  57.8623  16.8441   O.2       1 RES1   0.0000
     5 C5      19.5733  56.5778  17.1573   C.2       1 RES1   0.0000
     6 C6      19.0801  56.9298  15.8875   C.2       1 RES1   0.0000
     7 C7      17.7403  56.6671  15.5501   C.2       1 RES1   0.0000
     8 C8      16.8813  56.0538  16.4786   C.2       1 RES1   0.0000
     9 C9      17.3958  55.7210  17.7354   C.2       1 RES1   0.0000
    10 C10     16.6533  55.0508  18.8038   C.2       1 RES1   0.0000
    11 C11     17.1899  54.8161  20.0585   C.2       1 RES1   0.0000
    12 C12     16.3537  54.1723  20.9766   C.2       1 RES1   0.0000
    13 N13     16.7800  53.8749  22.2680   N.3       1 RES1   0.0000
    14 C14     18.2366  53.8596  22.5021   C.3       1 RES1   0.0000
    15 C15     18.5333  53.1031  23.7773   C.3       1 RES1   0.0000
    16 C16     17.7756  53.6651  24.9766   C.3       1 RES1   0.0000
    17 C17     18.0878  52.9420  26.2241   C.2       1 RES1   0.0000
    18 C18     17.6878  51.6201  26.4061   C.2       1 RES1   0.0000
    19 C19     18.0234  50.9591  27.5700   C.2       1 RES1   0.0000
    20 F20     17.6374  49.6899  27.7557   F         1 RES1   0.0000
    21 C21     18.7470  51.6111  28.5421   C.2       1 RES1   0.0000
    22 F22     19.0424  50.9546  29.6633   F         1 RES1   0.0000
    23 C23     19.1620  52.9298  28.3670   C.2       1 RES1   0.0000
    24 C24     18.8313  53.5956  27.1860   C.2       1 RES1   0.0000
    25 F25     19.2102  54.8658  26.9794   F         1 RES1   0.0000
    26 C26     16.2698  53.7027  24.6634   C.3       1 RES1   0.0000
    27 N27     15.4569  54.2412  25.7308   N.3       1 RES1   1.0000
    28 C28     16.0424  54.5078  23.3815   C.3       1 RES1   0.0000
    29 N29     15.0832  53.8070  20.6171   N.2       1 RES1   0.0000
    30 C30     14.5969  54.0610  19.3858   C.2       1 RES1   0.0000
    31 N31     15.3818  54.6781  18.4904   N.2       1 RES1   0.0000
    32 C32     18.7176  55.9750  18.0615   C.2       1 RES1   0.0000
@<TRIPOS>BOND
     1     1     2    1
     2     2     3    2
     3     2     4    2
     4     2     5    1
     5     5     6    2
     6     6     7    1
     7     7     8    2
     8     8     9    1
     9     9    10    1
    10    10    11    2
    11    11    12    1
    12    12    13    1
    13    13    14    1
    14    14    15    1
    15    16    15    1
    16    16    17    1
    17    17    18    2
    18    18    19    1
    19    19    20    1
    20    19    21    2
    21    21    22    1
    22    21    23    1
    23    23    24    2
    24    24    25    1
    25    16    26    1
    26    26    27    1
    27    26    28    1
    28    12    29    2
    29    29    30    1
    30    30    31    2
    31     9    32    2
    32    32     5    1
    33    31    10    1
    34    28    13    1
    35    24    17    1
@<TRIPOS>SUBSTRUCTURE
     1 RES1        1 GROUP             0 ****  ****    0  
@<TRIPOS>MOLECULE
ligand_26
    32    35     1     0     0
SMALL
USER_CHARGES
****
Generated from the CSD

@<TRIPOS>ATOM
     1 C1      16.5749  55.4542  13.1334   C.3       1 RES1   0.0000
     2 S2      16.2258  56.7001  14.2020   S.o2      1 RES1   0.0000
     3 O3      16.4723  57.9801  13.5642   O.2       1 RES1   0.0000
     4 O4      14.8462  56.5920  14.6294   O.2       1 RES1   0.0000
     5 C5      17.1872  56.5504  15.4820   C.2       1 RES1   0.0000
     6 C6      18.5114  57.0212  15.5495   C.2       1 RES1   0.0000
     7 C7      19.2686  56.8402  16.7208   C.2       1 RES1   0.0000
     8 C8      18.7113  56.1850  17.8326   C.2       1 RES1   0.0000
     9 C9      17.3958  55.7210  17.7354   C.2       1 RES1   0.0000
    10 C10     16.6533  55.0508  18.8038   C.2       1 RES1   0.0000
    11 C11     17.1899  54.8161  20.0585   C.2       1 RES1   0.0000
    12 C12     16.3537  54.1723  20.9766   C.2       1 RES1   0.0000
    13 N13     16.7800  53.8749  22.2680   N.3       1 RES1   0.0000
    14 C14     18.2366  53.8605  22.5023   C.3       1 RES1   0.0000
    15 C15     18.5335  53.1039  23.7774   C.3       1 RES1   0.0000
    16 C16     17.7754  53.6652  24.9767   C.3       1 RES1   0.0000
    17 C17     18.0878  52.9420  26.2241   C.2       1 RES1   0.0000
    18 C18     17.6919  51.6186  26.4042   C.2       1 RES1   0.0000
    19 C19     18.0278  50.9576  27.5681   C.2       1 RES1   0.0000
    20 F20     17.6457  49.6870  27.7520   F         1 RES1   0.0000
    21 C21     18.7474  51.6113  28.5420   C.2       1 RES1   0.0000
    22 F22     19.0432  50.9548  29.6632   F         1 RES1   0.0000
    23 C23     19.1583  52.9315  28.3688   C.2       1 RES1   0.0000
    24 C24     18.8274  53.5973  27.1878   C.2       1 RES1   0.0000
    25 F25     19.2024  54.8689  26.9831   F         1 RES1   0.0000
    26 C26     16.2696  53.7019  24.6633   C.3       1 RES1   0.0000
    27 N27     15.4562  54.2396  25.7307   N.3       1 RES1   1.0000
    28 C28     16.0418  54.5071  23.3815   C.3       1 RES1   0.0000
    29 N29     15.0832  53.8070  20.6171   N.2       1 RES1   0.0000
    30 C30     14.5969  54.0610  19.3858   C.2       1 RES1   0.0000
    31 N31     15.3818  54.6781  18.4904   N.2       1 RES1   0.0000
    32 C32     16.6510  55.9074  16.5828   C.2       1 RES1   0.0000
@<TRIPOS>BOND
     1     1     2    1
     2     2     3    2
     3     2     4    2
     4     2     5    1
     5     5     6    2
     6     6     7    1
     7     7     8    2
     8     8     9    1
     9     9    10    1
    10    10    11    2
    11    11    12    1
    12    12    13    1
    13    13    14    1
    14    14    15    1
    15    16    15    1
    16    16    17    1
    17    17    18    2
    18    18    19    1
    19    19    20    1
    20    19    21    2
    21    21    22    1
    22    21    23    1
    23    23    24    2
    24    24    25    1
    25    16    26    1
    26    26    27    1
    27    26    28    1
    28    12    29    2
    29    29    30    1
    30    30    31    2
    31     9    32    2
    32    32     5    1
    33    31    10    1
    34    28    13    1
    35    24    17    1
@<TRIPOS>SUBSTRUCTURE
     1 RES1        1 GROUP             0 ****  ****    0  
@<TRIPOS>MOLECULE
ligand_27
    32    35     1     0     0
SMALL
USER_CHARGES
****
Generated from the CSD

@<TRIPOS>ATOM
     1 C1      11.9385  54.4807  14.7158   C.3       1 RES1   0.0000
     2 S2      12.1429  56.0039  15.3896   S.o2      1 RES1   0.0000
     3 O3      13.4151  56.5620  14.9695   O.2       1 RES1   0.0000
     4 O4      11.0448  56.8575  14.9857   O.2       1 RES1   0.0000
     5 C5      12.1317  55.8527  16.9901   C.2       1 RES1   0.0000
     6 C6      11.0120  56.0857  17.8096   C.2       1 RES1   0.0000
     7 C7      11.1080  55.9228  19.2033   C.2       1 RES1   0.0000
     8 C8      12.3231  55.5291  19.7902   C.2       1 RES1   0.0000
     9 C9      13.4216  55.3112  18.9529   C.2       1 RES1   0.0000
    10 C10     14.7455  54.8674  19.3914   C.2       1 RES1   0.0000
    11 C11     15.0464  54.5958  20.7154   C.2       1 RES1   0.0000
    12 C12     16.3537  54.1723  20.9766   C.2       1 RES1   0.0000
    13 N13     16.7800  53.8749  22.2680   N.3       1 RES1   0.0000
    14 C14     18.2369  53.7998  22.4882   C.3       1 RES1   0.0000
    15 C15     18.5137  53.0492  23.7713   C.3       1 RES1   0.0000
    16 C16     17.7934  53.6603  24.9696   C.3       1 RES1   0.0000
    17 C17     18.0869  52.9419  26.2244   C.2       1 RES1   0.0000
    18 C18     17.6337  51.6406  26.4286   C.2       1 RES1   0.0000
    19 C19     17.9525  50.9821  27.5987   C.2       1 RES1   0.0000
    20 F20     17.5155  49.7329  27.8056   F         1 RES1   0.0000
    21 C21     18.7117  51.6166  28.5550   C.2       1 RES1   0.0000
    22 F22     18.9900  50.9637  29.6828   F         1 RES1   0.0000
    23 C23     19.1798  52.9142  28.3577   C.2       1 RES1   0.0000
    24 C24     18.8660  53.5770  27.1703   C.2       1 RES1   0.0000
    25 F25     19.2957  54.8272  26.9425   F         1 RES1   0.0000
    26 C26     16.2875  53.7586  24.6705   C.3       1 RES1   0.0000
    27 N27     15.5095  54.3468  25.7377   N.3       1 RES1   1.0000
    28 C28     16.0819  54.5548  23.3793   C.3       1 RES1   0.0000
    29 N29     17.2579  54.0486  19.9548   N.2       1 RES1   0.0000
    30 C30     16.9213  54.3167  18.6775   C.2       1 RES1   0.0000
    31 N31     15.6728  54.7233  18.4048   N.2       1 RES1   0.0000
    32 C32     13.3212  55.4659  17.5804   C.2       1 RES1   0.0000
@<TRIPOS>BOND
     1     1     2    1
     2     2     3    2
     3     2     4    2
     4     2     5    1
     5     5     6    2
     6     6     7    1
     7     7     8    2
     8     8     9    1
     9     9    10    1
    10    10    11    2
    11    11    12    1
    12    12    13    1
    13    13    14    1
    14    14    15    1
    15    16    15    1
    16    16    17    1
    17    17    18    2
    18    18    19    1
    19    19    20    1
    20    19    21    2
    21    21    22    1
    22    21    23    1
    23    23    24    2
    24    24    25    1
    25    16    26    1
    26    26    27    1
    27    26    28    1
    28    12    29    2
    29    29    30    1
    30    30    31    2
    31     9    32    2
    32    32     5    1
    33    31    10    1
    34    28    13    1
    35    24    17    1
@<TRIPOS>SUBSTRUCTURE
     1 RES1        1 GROUP             0 ****  ****    0  
@<TRIPOS>MOLECULE
ligand_28
    32    35     1     0     0
SMALL
USER_CHARGES
****
Generated from the CSD

@<TRIPOS>ATOM
     1 C1      21.2010  58.4070  18.2051   C.3       1 RES1   0.0000
     2 S2      21.0816  56.8259  17.6555   S.o2      1 RES1   0.0000
     3 O3      21.9932  56.6198  16.5453   O.2       1 RES1   0.0000
     4 O4      21.3776  55.9171  18.7437   O.2       1 RES1   0.0000
     5 C5      19.5732  56.5781  17.1575   C.2       1 RES1   0.0000
     6 C6      19.0801  56.9299  15.8875   C.2       1 RES1   0.0000
     7 C7      17.7404  56.6668  15.5500   C.2       1 RES1   0.0000
     8 C8      16.8814  56.0535  16.4784   C.2       1 RES1   0.0000
     9 C9      17.3958  55.7210  17.7354   C.2       1 RES1   0.0000
    10 C10     16.6533  55.0508  18.8038   C.2       1 RES1   0.0000
    11 C11     17.1899  54.8161  20.0585   C.2       1 RES1   0.0000
    12 C12     16.3537  54.1723  20.9766   C.2       1 RES1   0.0000
    13 N13     16.7800  53.8749  22.2680   N.3       1 RES1   0.0000
    14 C14     18.2366  53.8594  22.5020   C.3       1 RES1   0.0000
    15 C15     18.5332  53.1029  23.7772   C.3       1 RES1   0.0000
    16 C16     17.7757  53.6651  24.9766   C.3       1 RES1   0.0000
    17 C17     18.0878  52.9420  26.2241   C.2       1 RES1   0.0000
    18 C18     17.6905  51.6191  26.4048   C.2       1 RES1   0.0000
    19 C19     18.0261  50.9582  27.5689   C.2       1 RES1   0.0000
    20 F20     17.6426  49.6881  27.7533   F         1 RES1   0.0000
    21 C21     18.7468  51.6113  28.5423   C.2       1 RES1   0.0000
    22 F22     19.0422  50.9549  29.6635   F         1 RES1   0.0000
    23 C23     19.1591  52.9310  28.3684   C.2       1 RES1   0.0000
    24 C24     18.8285  53.5968  27.1873   C.2       1 RES1   0.0000
    25 F25     19.2048  54.8679  26.9820   F         1 RES1   0.0000
    26 C26     16.2699  53.7029  24.6635   C.3       1 RES1   0.0000
    27 N27     15.4571  54.2416  25.7308   N.3       1 RES1   1.0000
    28 C28     16.0426  54.5080  23.3815   C.3       1 RES1   0.0000
    29 N29     15.0832  53.8070  20.6171   N.2       1 RES1   0.0000
    30 C30     14.5969  54.0610  19.3858   C.2       1 RES1   0.0000
    31 N31     15.3818  54.6781  18.4904   N.2       1 RES1   0.0000
    32 C32     18.7175  55.9753  18.0616   C.2       1 RES1   0.0000
@<TRIPOS>BOND
     1     1     2    1
     2     2     3    2
     3     2     4    2
     4     2     5    1
     5     5     6    2
     6     6     7    1
     7     7     8    2
     8     8     9    1
     9     9    10    1
    10    10    11    2
    11    11    12    1
    12    12    13    1
    13    13    14    1
    14    14    15    1
    15    16    15    1
    16    16    17    1
    17    17    18    2
    18    18    19    1
    19    19    20    1
    20    19    21    2
    21    21    22    1
    22    21    23    1
    23    23    24    2
    24    24    25    1
    25    16    26    1
    26    26    27    1
    27    26    28    1
    28    12    29    2
    29    29    30    1
    30    30    31    2
    31     9    32    2
    32    32     5    1
    33    31    10    1
    34    28    13    1
    35    24    17    1
@<TRIPOS>SUBSTRUCTURE
     1 RES1        1 GROUP             0 ****  ****    0  
@<TRIPOS>MOLECULE
ligand_29
    32    35     1     0     0
SMALL
USER_CHARGES
****
Generated from the CSD

@<TRIPOS>ATOM
     1 C1      10.7181  57.7483  21.7085   C.3       1 RES1   0.0000
     2 S2      10.3434  56.2439  21.0665   S.o2      1 RES1   0.0000
     3 O3      10.6180  55.2080  22.0452   O.2       1 RES1   0.0000
     4 O4       8.9503  56.2256  20.6707   O.2       1 RES1   0.0000
     5 C5      11.2629  56.0064  19.7692   C.2       1 RES1   0.0000
     6 C6      10.8491  56.2249  18.4423   C.2       1 RES1   0.0000
     7 C7      11.7348  55.9873  17.3759   C.2       1 RES1   0.0000
     8 C8      13.0392  55.5266  17.6253   C.2       1 RES1   0.0000
     9 C9      13.4216  55.3112  18.9529   C.2       1 RES1   0.0000
    10 C10     14.7455  54.8674  19.3914   C.2       1 RES1   0.0000
    11 C11     15.0464  54.5958  20.7154   C.2       1 RES1   0.0000
    12 C12     16.3537  54.1723  20.9766   C.2       1 RES1   0.0000
    13 N13     16.7800  53.8749  22.2680   N.3       1 RES1   0.0000
    14 C14     18.2369  53.8008  22.4884   C.3       1 RES1   0.0000
    15 C15     18.5140  53.0501  23.7714   C.3       1 RES1   0.0000
    16 C16     17.7931  53.6604  24.9697   C.3       1 RES1   0.0000
    17 C17     18.0869  52.9419  26.2244   C.2       1 RES1   0.0000
    18 C18     17.6331  51.6408  26.4289   C.2       1 RES1   0.0000
    19 C19     17.9522  50.9823  27.5989   C.2       1 RES1   0.0000
    20 F20     17.5147  49.7333  27.8061   F         1 RES1   0.0000
    21 C21     18.7123  51.6164  28.5548   C.2       1 RES1   0.0000
    22 F22     18.9909  50.9635  29.6824   F         1 RES1   0.0000
    23 C23     19.1809  52.9137  28.3571   C.2       1 RES1   0.0000
    24 C24     18.8669  53.5766  27.1699   C.2       1 RES1   0.0000
    25 F25     19.2971  54.8266  26.9417   F         1 RES1   0.0000
    26 C26     16.2872  53.7577  24.6704   C.3       1 RES1   0.0000
    27 N27     15.5087  54.3451  25.7376   N.3       1 RES1   1.0000
    28 C28     16.0812  54.5540  23.3793   C.3       1 RES1   0.0000
    29 N29     17.2579  54.0486  19.9548   N.2       1 RES1   0.0000
    30 C30     16.9213  54.3167  18.6775   C.2       1 RES1   0.0000
    31 N31     15.6728  54.7233  18.4048   N.2       1 RES1   0.0000
    32 C32     12.5489  55.5530  20.0007   C.2       1 RES1   0.0000
@<TRIPOS>BOND
     1     1     2    1
     2     2     3    2
     3     2     4    2
     4     2     5    1
     5     5     6    2
     6     6     7    1
     7     7     8    2
     8     8     9    1
     9     9    10    1
    10    10    11    2
    11    11    12    1
    12    12    13    1
    13    13    14    1
    14    14    15    1
    15    16    15    1
    16    16    17    1
    17    17    18    2
    18    18    19    1
    19    19    20    1
    20    19    21    2
    21    21    22    1
    22    21    23    1
    23    23    24    2
    24    24    25    1
    25    16    26    1
    26    26    27    1
    27    26    28    1
    28    12    29    2
    29    29    30    1
    30    30    31    2
    31     9    32    2
    32    32     5    1
    33    31    10    1
    34    28    13    1
    35    24    17    1
@<TRIPOS>SUBSTRUCTURE
     1 RES1        1 GROUP             0 ****  ****    0  
@<TRIPOS>MOLECULE
ligand_30
    32    35     1     0     0
SMALL
USER_CHARGES
****
Generated from the CSD

@<TRIPOS>ATOM
     1 C1      12.3830  57.6217  15.0155   C.3       1 RES1   0.0000
     2 S2      12.1428  56.0035  15.3895   S.o2      1 RES1   0.0000
     3 O3      10.8683  55.5584  14.8569   O.2       1 RES1   0.0000
     4 O4      13.2329  55.2196  14.8464   O.2       1 RES1   0.0000
     5 C5      12.1316  55.8525  16.9901   C.2       1 RES1   0.0000
     6 C6      11.0120  56.0857  17.8097   C.2       1 RES1   0.0000
     7 C7      11.1081  55.9229  19.2033   C.2       1 RES1   0.0000
     8 C8      12.3231  55.5292  19.7902   C.2       1 RES1   0.0000
     9 C9      13.4216  55.3112  18.9529   C.2       1 RES1   0.0000
    10 C10     14.7455  54.8674  19.3914   C.2       1 RES1   0.0000
    11 C11     15.0464  54.5958  20.7154   C.2       1 RES1   0.0000
    12 C12     16.3537  54.1723  20.9766   C.2       1 RES1   0.0000
    13 N13     16.7800  53.8749  22.2680   N.3       1 RES1   0.0000
    14 C14     18.2369  53.7991  22.4880   C.3       1 RES1   0.0000
    15 C15     18.5135  53.0486  23.7712   C.3       1 RES1   0.0000
    16 C16     17.7936  53.6602  24.9695   C.3       1 RES1   0.0000
    17 C17     18.0868  52.9419  26.2244   C.2       1 RES1   0.0000
    18 C18     17.6325  51.6411  26.4291   C.2       1 RES1   0.0000
    19 C19     17.9510  50.9826  27.5993   C.2       1 RES1   0.0000
    20 F20     17.5130  49.7339  27.8068   F         1 RES1   0.0000
    21 C21     18.7113  51.6166  28.5552   C.2       1 RES1   0.0000
    22 F22     18.9894  50.9638  29.6830   F         1 RES1   0.0000
    23 C23     19.1806  52.9137  28.3572   C.2       1 RES1   0.0000
    24 C24     18.8670  53.5765  27.1699   C.2       1 RES1   0.0000
    25 F25     19.2978  54.8262  26.9415   F         1 RES1   0.0000
    26 C26     16.2877  53.7593  24.6706   C.3       1 RES1   0.0000
    27 N27     15.5102  54.3480  25.7378   N.3       1 RES1   1.0000
    28 C28     16.0824  54.5553  23.3793   C.3       1 RES1   0.0000
    29 N29     17.2579  54.0486  19.9548   N.2       1 RES1   0.0000
    30 C30     16.9213  54.3167  18.6775   C.2       1 RES1   0.0000
    31 N31     15.6728  54.7233  18.4048   N.2       1 RES1   0.0000
    32 C32     13.3211  55.4657  17.5803   C.2       1 RES1   0.0000
@<TRIPOS>BOND
     1     1     2    1
     2     2     3    2
     3     2     4    2
     4     2     5    1
     5     5     6    2
     6     6     7    1
     7     7     8    2
     8     8     9    1
     9     9    10    1
    10    10    11    2
    11    11    12    1
    12    12    13    1
    13    13    14    1
    14    14    15    1
    15    16    15    1
    16    16    17    1
    17    17    18    2
    18    18    19    1
    19    19    20    1
    20    19    21    2
    21    21    22    1
    22    21    23    1
    23    23    24    2
    24    24    25    1
    25    16    26    1
    26    26    27    1
    27    26    28    1
    28    12    29    2
    29    29    30    1
    30    30    31    2
    31     9    32    2
    32    32     5    1
    33    31    10    1
    34    28    13    1
    35    24    17    1
@<TRIPOS>SUBSTRUCTURE
     1 RES1        1 GROUP             0 ****  ****    0  
@<TRIPOS>MOLECULE
ligand_31
    32    35     1     0     0
SMALL
USER_CHARGES
****
Generated from the CSD

@<TRIPOS>ATOM
     1 C1       9.3900  54.8798  21.2915   C.3       1 RES1   0.0000
     2 S2      10.3430  56.2426  21.0664   S.o2      1 RES1   0.0000
     3 O3       9.4995  57.4038  20.8508   O.2       1 RES1   0.0000
     4 O4      11.1936  56.4286  22.2238   O.2       1 RES1   0.0000
     5 C5      11.2627  56.0057  19.7692   C.2       1 RES1   0.0000
     6 C6      10.8491  56.2248  18.4423   C.2       1 RES1   0.0000
     7 C7      11.7349  55.9877  17.3760   C.2       1 RES1   0.0000
     8 C8      13.0394  55.5271  17.6253   C.2       1 RES1   0.0000
     9 C9      13.4216  55.3112  18.9529   C.2       1 RES1   0.0000
    10 C10     14.7455  54.8674  19.3914   C.2       1 RES1   0.0000
    11 C11     15.0464  54.5958  20.7154   C.2       1 RES1   0.0000
    12 C12     16.3537  54.1723  20.9766   C.2       1 RES1   0.0000
    13 N13     16.7800  53.8749  22.2680   N.3       1 RES1   0.0000
    14 C14     18.2369  53.8003  22.4883   C.3       1 RES1   0.0000
    15 C15     18.5139  53.0497  23.7714   C.3       1 RES1   0.0000
    16 C16     17.7933  53.6603  24.9697   C.3       1 RES1   0.0000
    17 C17     18.0869  52.9419  26.2244   C.2       1 RES1   0.0000
    18 C18     17.6333  51.6407  26.4287   C.2       1 RES1   0.0000
    19 C19     17.9523  50.9822  27.5988   C.2       1 RES1   0.0000
    20 F20     17.5150  49.7332  27.8060   F         1 RES1   0.0000
    21 C21     18.7120  51.6165  28.5549   C.2       1 RES1   0.0000
    22 F22     18.9905  50.9636  29.6826   F         1 RES1   0.0000
    23 C23     19.1804  52.9139  28.3573   C.2       1 RES1   0.0000
    24 C24     18.8665  53.5768  27.1701   C.2       1 RES1   0.0000
    25 F25     19.2965  54.8268  26.9420   F         1 RES1   0.0000
    26 C26     16.2873  53.7582  24.6704   C.3       1 RES1   0.0000
    27 N27     15.5091  54.3459  25.7377   N.3       1 RES1   1.0000
    28 C28     16.0815  54.5544  23.3793   C.3       1 RES1   0.0000
    29 N29     17.2579  54.0486  19.9548   N.2       1 RES1   0.0000
    30 C30     16.9213  54.3167  18.6775   C.2       1 RES1   0.0000
    31 N31     15.6728  54.7233  18.4048   N.2       1 RES1   0.0000
    32 C32     12.5487  55.5524  20.0007   C.2       1 RES1   0.0000
@<TRIPOS>BOND
     1     1     2    1
     2     2     3    2
     3     2     4    2
     4     2     5    1
     5     5     6    2
     6     6     7    1
     7     7     8    2
     8     8     9    1
     9     9    10    1
    10    10    11    2
    11    11    12    1
    12    12    13    1
    13    13    14    1
    14    14    15    1
    15    16    15    1
    16    16    17    1
    17    17    18    2
    18    18    19    1
    19    19    20    1
    20    19    21    2
    21    21    22    1
    22    21    23    1
    23    23    24    2
    24    24    25    1
    25    16    26    1
    26    26    27    1
    27    26    28    1
    28    12    29    2
    29    29    30    1
    30    30    31    2
    31     9    32    2
    32    32     5    1
    33    31    10    1
    34    28    13    1
    35    24    17    1
@<TRIPOS>SUBSTRUCTURE
     1 RES1        1 GROUP             0 ****  ****    0  
@<TRIPOS>MOLECULE
ligand_32
    32    35     1     0     0
SMALL
USER_CHARGES
****
Generated from the CSD

@<TRIPOS>ATOM
     1 C1      21.0519  59.3472  19.7020   C.3       1 RES1   0.0000
     2 S2      19.5986  59.7566  18.9697   S.o2      1 RES1   0.0000
     3 O3      18.5854  59.9908  19.9819   O.2       1 RES1   0.0000
     4 O4      19.7912  60.9338  18.1482   O.2       1 RES1   0.0000
     5 C5      19.1424  58.5306  18.0349   C.2       1 RES1   0.0000
     6 C6      19.3554  58.4589  16.6460   C.2       1 RES1   0.0000
     7 C7      18.9170  57.3375  15.9192   C.2       1 RES1   0.0000
     8 C8      18.2598  56.2804  16.5723   C.2       1 RES1   0.0000
     9 C9      18.0550  56.3812  17.9518   C.2       1 RES1   0.0000
    10 C10     17.4213  55.3627  18.7903   C.2       1 RES1   0.0000
    11 C11     17.7570  55.1686  20.1195   C.2       1 RES1   0.0000
    12 C12     17.0568  54.1617  20.7920   C.2       1 RES1   0.0000
    13 N13     17.3081  53.8663  22.1290   N.3       1 RES1   0.0000
    14 C14     18.5958  54.3270  22.6827   C.3       1 RES1   0.0000
    15 C15     18.9004  53.5623  23.9511   C.3       1 RES1   0.0000
    16 C16     17.7760  53.6667  24.9774   C.3       1 RES1   0.0000
    17 C17     18.0878  52.9419  26.2240   C.2       1 RES1   0.0000
    18 C18     17.7158  51.6099  26.3914   C.2       1 RES1   0.0000
    19 C19     18.0508  50.9484  27.5553   C.2       1 RES1   0.0000
    20 F20     17.6916  49.6695  27.7269   F         1 RES1   0.0000
    21 C21     18.7459  51.6099  28.5417   C.2       1 RES1   0.0000
    22 F22     19.0411  50.9523  29.6623   F         1 RES1   0.0000
    23 C23     19.1328  52.9389  28.3814   C.2       1 RES1   0.0000
    24 C24     18.8029  53.6055  27.2005   C.2       1 RES1   0.0000
    25 F25     19.1553  54.8854  27.0079   F         1 RES1   0.0000
    26 C26     16.4505  53.2198  24.3369   C.3       1 RES1   0.0000
    27 N27     15.3095  53.3002  25.2211   N.3       1 RES1   1.0000
    28 C28     16.1924  54.0546  23.0800   C.3       1 RES1   0.0000
    29 N29     16.1023  53.4278  20.1383   N.2       1 RES1   0.0000
    30 C30     15.8009  53.6543  18.8442   C.2       1 RES1   0.0000
    31 N31     16.4597  54.6157  18.1808   N.2       1 RES1   0.0000
    32 C32     18.4944  57.4839  18.6652   C.2       1 RES1   0.0000
@<TRIPOS>BOND
     1     1     2    1
     2     2     3    2
     3     2     4    2
     4     2     5    1
     5     5     6    2
     6     6     7    1
     7     7     8    2
     8     8     9    1
     9     9    10    1
    10    10    11    2
    11    11    12    1
    12    12    13    1
    13    13    14    1
    14    14    15    1
    15    16    15    1
    16    16    17    1
    17    17    18    2
    18    18    19    1
    19    19    20    1
    20    19    21    2
    21    21    22    1
    22    21    23    1
    23    23    24    2
    24    24    25    1
    25    16    26    1
    26    26    27    1
    27    26    28    1
    28    12    29    2
    29    29    30    1
    30    30    31    2
    31     9    32    2
    32    32     5    1
    33    31    10    1
    34    28    13    1
    35    24    17    1
@<TRIPOS>SUBSTRUCTURE
     1 RES1        1 GROUP             0 ****  ****    0  
@<TRIPOS>MOLECULE
ligand_33
    32    35     1     0     0
SMALL
USER_CHARGES
****
Generated from the CSD

@<TRIPOS>ATOM
     1 C1      15.5818  59.6331  15.9147   C.3       1 RES1   0.0000
     2 S2      16.5306  58.4983  15.1223   S.o2      1 RES1   0.0000
     3 O3      15.7019  57.4014  14.6572   O.2       1 RES1   0.0000
     4 O4      17.2150  59.1349  14.0160   O.2       1 RES1   0.0000
     5 C5      17.6198  57.9370  16.1631   C.2       1 RES1   0.0000
     6 C6      18.9495  58.3881  16.2533   C.2       1 RES1   0.0000
     7 C7      19.8239  57.8301  17.2030   C.2       1 RES1   0.0000
     8 C8      19.3791  56.8153  18.0680   C.2       1 RES1   0.0000
     9 C9      18.0550  56.3812  17.9518   C.2       1 RES1   0.0000
    10 C10     17.4213  55.3627  18.7903   C.2       1 RES1   0.0000
    11 C11     17.7570  55.1686  20.1195   C.2       1 RES1   0.0000
    12 C12     17.0568  54.1617  20.7920   C.2       1 RES1   0.0000
    13 N13     17.3081  53.8663  22.1290   N.3       1 RES1   0.0000
    14 C14     18.5957  54.3271  22.6827   C.3       1 RES1   0.0000
    15 C15     18.9003  53.5625  23.9512   C.3       1 RES1   0.0000
    16 C16     17.7760  53.6666  24.9774   C.3       1 RES1   0.0000
    17 C17     18.0878  52.9419  26.2240   C.2       1 RES1   0.0000
    18 C18     17.7161  51.6098  26.3913   C.2       1 RES1   0.0000
    19 C19     18.0512  50.9483  27.5552   C.2       1 RES1   0.0000
    20 F20     17.6922  49.6693  27.7267   F         1 RES1   0.0000
    21 C21     18.7460  51.6099  28.5417   C.2       1 RES1   0.0000
    22 F22     19.0413  50.9523  29.6623   F         1 RES1   0.0000
    23 C23     19.1327  52.9391  28.3814   C.2       1 RES1   0.0000
    24 C24     18.8027  53.6056  27.2006   C.2       1 RES1   0.0000
    25 F25     19.1548  54.8856  27.0080   F         1 RES1   0.0000
    26 C26     16.4505  53.2197  24.3368   C.3       1 RES1   0.0000
    27 N27     15.3095  53.2999  25.2210   N.3       1 RES1   1.0000
    28 C28     16.1924  54.0544  23.0799   C.3       1 RES1   0.0000
    29 N29     16.1023  53.4278  20.1383   N.2       1 RES1   0.0000
    30 C30     15.8009  53.6543  18.8442   C.2       1 RES1   0.0000
    31 N31     16.4597  54.6157  18.1808   N.2       1 RES1   0.0000
    32 C32     17.1950  56.9380  17.0200   C.2       1 RES1   0.0000
@<TRIPOS>BOND
     1     1     2    1
     2     2     3    2
     3     2     4    2
     4     2     5    1
     5     5     6    2
     6     6     7    1
     7     7     8    2
     8     8     9    1
     9     9    10    1
    10    10    11    2
    11    11    12    1
    12    12    13    1
    13    13    14    1
    14    14    15    1
    15    16    15    1
    16    16    17    1
    17    17    18    2
    18    18    19    1
    19    19    20    1
    20    19    21    2
    21    21    22    1
    22    21    23    1
    23    23    24    2
    24    24    25    1
    25    16    26    1
    26    26    27    1
    27    26    28    1
    28    12    29    2
    29    29    30    1
    30    30    31    2
    31     9    32    2
    32    32     5    1
    33    31    10    1
    34    28    13    1
    35    24    17    1
@<TRIPOS>SUBSTRUCTURE
     1 RES1        1 GROUP             0 ****  ****    0  
@<TRIPOS>MOLECULE
ligand_34
    32    35     1     0     0
SMALL
USER_CHARGES
****
Generated from the CSD

@<TRIPOS>ATOM
     1 C1      17.1167  56.6854  13.4944   C.3       1 RES1   0.0000
     2 S2      18.6335  56.3866  14.1469   S.o2      1 RES1   0.0000
     3 O3      18.9101  54.9621  14.1193   O.2       1 RES1   0.0000
     4 O4      19.6308  57.1219  13.3969   O.2       1 RES1   0.0000
     5 C5      18.6365  56.8990  15.6708   C.2       1 RES1   0.0000
     6 C6      19.1439  58.1397  16.0985   C.2       1 RES1   0.0000
     7 C7      19.0966  58.4933  17.4589   C.2       1 RES1   0.0000
     8 C8      18.5455  57.6102  18.4035   C.2       1 RES1   0.0000
     9 C9      18.0550  56.3812  17.9518   C.2       1 RES1   0.0000
    10 C10     17.4213  55.3627  18.7903   C.2       1 RES1   0.0000
    11 C11     17.7570  55.1686  20.1195   C.2       1 RES1   0.0000
    12 C12     17.0568  54.1617  20.7920   C.2       1 RES1   0.0000
    13 N13     17.3081  53.8663  22.1290   N.3       1 RES1   0.0000
    14 C14     18.5958  54.3269  22.6827   C.3       1 RES1   0.0000
    15 C15     18.9004  53.5623  23.9511   C.3       1 RES1   0.0000
    16 C16     17.7760  53.6667  24.9774   C.3       1 RES1   0.0000
    17 C17     18.0878  52.9419  26.2240   C.2       1 RES1   0.0000
    18 C18     17.7157  51.6099  26.3915   C.2       1 RES1   0.0000
    19 C19     18.0507  50.9484  27.5554   C.2       1 RES1   0.0000
    20 F20     17.6913  49.6695  27.7270   F         1 RES1   0.0000
    21 C21     18.7459  51.6099  28.5417   C.2       1 RES1   0.0000
    22 F22     19.0411  50.9523  29.6623   F         1 RES1   0.0000
    23 C23     19.1330  52.9389  28.3813   C.2       1 RES1   0.0000
    24 C24     18.8031  53.6054  27.2005   C.2       1 RES1   0.0000
    25 F25     19.1555  54.8853  27.0078   F         1 RES1   0.0000
    26 C26     16.4505  53.2199  24.3369   C.3       1 RES1   0.0000
    27 N27     15.3095  53.3003  25.2211   N.3       1 RES1   1.0000
    28 C28     16.1924  54.0546  23.0800   C.3       1 RES1   0.0000
    29 N29     16.1023  53.4278  20.1383   N.2       1 RES1   0.0000
    30 C30     15.8009  53.6543  18.8442   C.2       1 RES1   0.0000
    31 N31     16.4597  54.6157  18.1808   N.2       1 RES1   0.0000
    32 C32     18.0970  56.0394  16.6104   C.2       1 RES1   0.0000
@<TRIPOS>BOND
     1     1     2    1
     2     2     3    2
     3     2     4    2
     4     2     5    1
     5     5     6    2
     6     6     7    1
     7     7     8    2
     8     8     9    1
     9     9    10    1
    10    10    11    2
    11    11    12    1
    12    12    13    1
    13    13    14    1
    14    14    15    1
    15    16    15    1
    16    16    17    1
    17    17    18    2
    18    18    19    1
    19    19    20    1
    20    19    21    2
    21    21    22    1
    22    21    23    1
    23    23    24    2
    24    24    25    1
    25    16    26    1
    26    26    27    1
    27    26    28    1
    28    12    29    2
    29    29    30    1
    30    30    31    2
    31     9    32    2
    32    32     5    1
    33    31    10    1
    34    28    13    1
    35    24    17    1
@<TRIPOS>SUBSTRUCTURE
     1 RES1        1 GROUP             0 ****  ****    0  
@<TRIPOS>MOLECULE
ligand_35
    32    35     1     0     0
SMALL
USER_CHARGES
****
Generated from the CSD

@<TRIPOS>ATOM
     1 C1      18.4286  60.9560  18.8722   C.3       1 RES1   0.0000
     2 S2      19.5984  59.7567  18.9696   S.o2      1 RES1   0.0000
     3 O3      20.8715  60.2706  18.4993   O.2       1 RES1   0.0000
     4 O4      19.7000  59.2971  20.3394   O.2       1 RES1   0.0000
     5 C5      19.1422  58.5307  18.0349   C.2       1 RES1   0.0000
     6 C6      19.3554  58.4589  16.6460   C.2       1 RES1   0.0000
     7 C7      18.9171  57.3374  15.9192   C.2       1 RES1   0.0000
     8 C8      18.2599  56.2804  16.5723   C.2       1 RES1   0.0000
     9 C9      18.0550  56.3812  17.9518   C.2       1 RES1   0.0000
    10 C10     17.4213  55.3627  18.7903   C.2       1 RES1   0.0000
    11 C11     17.7570  55.1686  20.1195   C.2       1 RES1   0.0000
    12 C12     17.0568  54.1617  20.7920   C.2       1 RES1   0.0000
    13 N13     17.3081  53.8663  22.1290   N.3       1 RES1   0.0000
    14 C14     18.5959  54.3269  22.6827   C.3       1 RES1   0.0000
    15 C15     18.9004  53.5622  23.9511   C.3       1 RES1   0.0000
    16 C16     17.7761  53.6667  24.9774   C.3       1 RES1   0.0000
    17 C17     18.0878  52.9419  26.2240   C.2       1 RES1   0.0000
    18 C18     17.7157  51.6100  26.3915   C.2       1 RES1   0.0000
    19 C19     18.0506  50.9484  27.5554   C.2       1 RES1   0.0000
    20 F20     17.6913  49.6695  27.7270   F         1 RES1   0.0000
    21 C21     18.7458  51.6098  28.5417   C.2       1 RES1   0.0000
    22 F22     19.0410  50.9522  29.6623   F         1 RES1   0.0000
    23 C23     19.1329  52.9389  28.3813   C.2       1 RES1   0.0000
    24 C24     18.8030  53.6054  27.2005   C.2       1 RES1   0.0000
    25 F25     19.1555  54.8853  27.0078   F         1 RES1   0.0000
    26 C26     16.4505  53.2199  24.3369   C.3       1 RES1   0.0000
    27 N27     15.3096  53.3005  25.2212   N.3       1 RES1   1.0000
    28 C28     16.1925  54.0547  23.0800   C.3       1 RES1   0.0000
    29 N29     16.1023  53.4278  20.1383   N.2       1 RES1   0.0000
    30 C30     15.8009  53.6543  18.8442   C.2       1 RES1   0.0000
    31 N31     16.4597  54.6157  18.1808   N.2       1 RES1   0.0000
    32 C32     18.4943  57.4839  18.6652   C.2       1 RES1   0.0000
@<TRIPOS>BOND
     1     1     2    1
     2     2     3    2
     3     2     4    2
     4     2     5    1
     5     5     6    2
     6     6     7    1
     7     7     8    2
     8     8     9    1
     9     9    10    1
    10    10    11    2
    11    11    12    1
    12    12    13    1
    13    13    14    1
    14    14    15    1
    15    16    15    1
    16    16    17    1
    17    17    18    2
    18    18    19    1
    19    19    20    1
    20    19    21    2
    21    21    22    1
    22    21    23    1
    23    23    24    2
    24    24    25    1
    25    16    26    1
    26    26    27    1
    27    26    28    1
    28    12    29    2
    29    29    30    1
    30    30    31    2
    31     9    32    2
    32    32     5    1
    33    31    10    1
    34    28    13    1
    35    24    17    1
@<TRIPOS>SUBSTRUCTURE
     1 RES1        1 GROUP             0 ****  ****    0  
@<TRIPOS>MOLECULE
ligand_36
    32    35     1     0     0
SMALL
USER_CHARGES
****
Generated from the CSD

@<TRIPOS>ATOM
     1 C1      10.5251  53.0969  20.2998   C.3       1 RES1   0.0000
     2 S2      11.1844  52.3968  18.9246   S.o2      1 RES1   0.0000
     3 O3      11.9513  51.2201  19.2899   O.2       1 RES1   0.0000
     4 O4      10.1199  52.0554  18.0037   O.2       1 RES1   0.0000
     5 C5      12.1581  53.4709  18.2296   C.2       1 RES1   0.0000
     6 C6      11.8006  54.2940  17.1460   C.2       1 RES1   0.0000
     7 C7      12.7296  55.2045  16.6113   C.2       1 RES1   0.0000
     8 C8      14.0238  55.2984  17.1519   C.2       1 RES1   0.0000
     9 C9      14.3545  54.4636  18.2238   C.2       1 RES1   0.0000
    10 C10     15.6394  54.4541  18.9245   C.2       1 RES1   0.0000
    11 C11     15.7608  54.1350  20.2664   C.2       1 RES1   0.0000
    12 C12     17.0568  54.1617  20.7920   C.2       1 RES1   0.0000
    13 N13     17.3081  53.8663  22.1290   N.3       1 RES1   0.0000
    14 C14     18.6200  54.2748  22.6666   C.3       1 RES1   0.0000
    15 C15     18.9034  53.5077  23.9385   C.3       1 RES1   0.0000
    16 C16     17.7948  53.6692  24.9744   C.3       1 RES1   0.0000
    17 C17     18.0869  52.9415  26.2241   C.2       1 RES1   0.0000
    18 C18     17.6584  51.6286  26.4065   C.2       1 RES1   0.0000
    19 C19     17.9757  50.9624  27.5726   C.2       1 RES1   0.0000
    20 F20     17.5623  49.7019  27.7586   F         1 RES1   0.0000
    21 C21     18.7091  51.6005  28.5465   C.2       1 RES1   0.0000
    22 F22     18.9864  50.9396  29.6698   F         1 RES1   0.0000
    23 C23     19.1525  52.9099  28.3711   C.2       1 RES1   0.0000
    24 C24     18.8404  53.5808  27.1879   C.2       1 RES1   0.0000
    25 F25     19.2467  54.8423  26.9810   F         1 RES1   0.0000
    26 C26     16.4449  53.2755  24.3502   C.3       1 RES1   0.0000
    27 N27     15.3172  53.4127  25.2445   N.3       1 RES1   1.0000
    28 C28     16.2111  54.1107  23.0888   C.3       1 RES1   0.0000
    29 N29     18.1202  54.4927  19.9942   N.2       1 RES1   0.0000
    30 C30     17.9586  54.7902  18.6895   C.2       1 RES1   0.0000
    31 N31     16.7245  54.7698  18.1650   N.2       1 RES1   0.0000
    32 C32     13.4346  53.5732  18.7521   C.2       1 RES1   0.0000
@<TRIPOS>BOND
     1     1     2    1
     2     2     3    2
     3     2     4    2
     4     2     5    1
     5     5     6    2
     6     6     7    1
     7     7     8    2
     8     8     9    1
     9     9    10    1
    10    10    11    2
    11    11    12    1
    12    12    13    1
    13    13    14    1
    14    14    15    1
    15    16    15    1
    16    16    17    1
    17    17    18    2
    18    18    19    1
    19    19    20    1
    20    19    21    2
    21    21    22    1
    22    21    23    1
    23    23    24    2
    24    24    25    1
    25    16    26    1
    26    26    27    1
    27    26    28    1
    28    12    29    2
    29    29    30    1
    30    30    31    2
    31     9    32    2
    32    32     5    1
    33    31    10    1
    34    28    13    1
    35    24    17    1
@<TRIPOS>SUBSTRUCTURE
     1 RES1        1 GROUP             0 ****  ****    0  
@<TRIPOS>MOLECULE
ligand_37
    32    35     1     0     0
SMALL
USER_CHARGES
****
Generated from the CSD

@<TRIPOS>ATOM
     1 C1      16.7464  57.7100  13.6579   C.3       1 RES1   0.0000
     2 S2      16.5303  58.4991  15.1230   S.o2      1 RES1   0.0000
     3 O3      16.7258  59.9264  14.9478   O.2       1 RES1   0.0000
     4 O4      15.2023  58.2168  15.6276   O.2       1 RES1   0.0000
     5 C5      17.6197  57.9374  16.1635   C.2       1 RES1   0.0000
     6 C6      18.9495  58.3882  16.2534   C.2       1 RES1   0.0000
     7 C7      19.8241  57.8298  17.2028   C.2       1 RES1   0.0000
     8 C8      19.3792  56.8150  18.0678   C.2       1 RES1   0.0000
     9 C9      18.0550  56.3812  17.9518   C.2       1 RES1   0.0000
    10 C10     17.4213  55.3627  18.7903   C.2       1 RES1   0.0000
    11 C11     17.7570  55.1686  20.1195   C.2       1 RES1   0.0000
    12 C12     17.0568  54.1617  20.7920   C.2       1 RES1   0.0000
    13 N13     17.3081  53.8663  22.1290   N.3       1 RES1   0.0000
    14 C14     18.5958  54.3270  22.6827   C.3       1 RES1   0.0000
    15 C15     18.9004  53.5623  23.9511   C.3       1 RES1   0.0000
    16 C16     17.7760  53.6667  24.9774   C.3       1 RES1   0.0000
    17 C17     18.0878  52.9419  26.2240   C.2       1 RES1   0.0000
    18 C18     17.7156  51.6100  26.3915   C.2       1 RES1   0.0000
    19 C19     18.0506  50.9485  27.5554   C.2       1 RES1   0.0000
    20 F20     17.6911  49.6696  27.7271   F         1 RES1   0.0000
    21 C21     18.7459  51.6099  28.5417   C.2       1 RES1   0.0000
    22 F22     19.0411  50.9522  29.6623   F         1 RES1   0.0000
    23 C23     19.1331  52.9388  28.3812   C.2       1 RES1   0.0000
    24 C24     18.8032  53.6054  27.2004   C.2       1 RES1   0.0000
    25 F25     19.1558  54.8853  27.0077   F         1 RES1   0.0000
    26 C26     16.4505  53.2198  24.3369   C.3       1 RES1   0.0000
    27 N27     15.3095  53.3003  25.2211   N.3       1 RES1   1.0000
    28 C28     16.1924  54.0546  23.0800   C.3       1 RES1   0.0000
    29 N29     16.1023  53.4278  20.1383   N.2       1 RES1   0.0000
    30 C30     15.8009  53.6543  18.8442   C.2       1 RES1   0.0000
    31 N31     16.4597  54.6157  18.1808   N.2       1 RES1   0.0000
    32 C32     17.1949  56.9383  17.0203   C.2       1 RES1   0.0000
@<TRIPOS>BOND
     1     1     2    1
     2     2     3    2
     3     2     4    2
     4     2     5    1
     5     5     6    2
     6     6     7    1
     7     7     8    2
     8     8     9    1
     9     9    10    1
    10    10    11    2
    11    11    12    1
    12    12    13    1
    13    13    14    1
    14    14    15    1
    15    16    15    1
    16    16    17    1
    17    17    18    2
    18    18    19    1
    19    19    20    1
    20    19    21    2
    21    21    22    1
    22    21    23    1
    23    23    24    2
    24    24    25    1
    25    16    26    1
    26    26    27    1
    27    26    28    1
    28    12    29    2
    29    29    30    1
    30    30    31    2
    31     9    32    2
    32    32     5    1
    33    31    10    1
    34    28    13    1
    35    24    17    1
@<TRIPOS>SUBSTRUCTURE
     1 RES1        1 GROUP             0 ****  ****    0  
@<TRIPOS>MOLECULE
ligand_38
    32    35     1     0     0
SMALL
USER_CHARGES
****
Generated from the CSD

@<TRIPOS>ATOM
     1 C1      20.1398  55.7249  13.8120   C.3       1 RES1   0.0000
     2 S2      18.6343  56.3862  14.1470   S.o2      1 RES1   0.0000
     3 O3      18.3817  57.5095  13.2635   O.2       1 RES1   0.0000
     4 O4      17.6178  55.3664  13.9909   O.2       1 RES1   0.0000
     5 C5      18.6369  56.8988  15.6708   C.2       1 RES1   0.0000
     6 C6      19.1440  58.1396  16.0985   C.2       1 RES1   0.0000
     7 C7      19.0964  58.4934  17.4588   C.2       1 RES1   0.0000
     8 C8      18.5452  57.6104  18.4034   C.2       1 RES1   0.0000
     9 C9      18.0550  56.3812  17.9518   C.2       1 RES1   0.0000
    10 C10     17.4213  55.3627  18.7903   C.2       1 RES1   0.0000
    11 C11     17.7570  55.1686  20.1195   C.2       1 RES1   0.0000
    12 C12     17.0568  54.1617  20.7920   C.2       1 RES1   0.0000
    13 N13     17.3081  53.8663  22.1290   N.3       1 RES1   0.0000
    14 C14     18.5959  54.3268  22.6826   C.3       1 RES1   0.0000
    15 C15     18.9004  53.5621  23.9511   C.3       1 RES1   0.0000
    16 C16     17.7761  53.6667  24.9774   C.3       1 RES1   0.0000
    17 C17     18.0878  52.9419  26.2240   C.2       1 RES1   0.0000
    18 C18     17.7152  51.6101  26.3917   C.2       1 RES1   0.0000
    19 C19     18.0502  50.9486  27.5556   C.2       1 RES1   0.0000
    20 F20     17.6903  49.6698  27.7274   F         1 RES1   0.0000
    21 C21     18.7458  51.6098  28.5417   C.2       1 RES1   0.0000
    22 F22     19.0410  50.9522  29.6623   F         1 RES1   0.0000
    23 C23     19.1334  52.9387  28.3811   C.2       1 RES1   0.0000
    24 C24     18.8035  53.6052  27.2003   C.2       1 RES1   0.0000
    25 F25     19.1564  54.8850  27.0074   F         1 RES1   0.0000
    26 C26     16.4505  53.2200  24.3369   C.3       1 RES1   0.0000
    27 N27     15.3096  53.3005  25.2212   N.3       1 RES1   1.0000
    28 C28     16.1925  54.0547  23.0800   C.3       1 RES1   0.0000
    29 N29     16.1023  53.4278  20.1383   N.2       1 RES1   0.0000
    30 C30     15.8009  53.6543  18.8442   C.2       1 RES1   0.0000
    31 N31     16.4597  54.6157  18.1808   N.2       1 RES1   0.0000
    32 C32     18.0973  56.0393  16.6104   C.2       1 RES1   0.0000
@<TRIPOS>BOND
     1     1     2    1
     2     2     3    2
     3     2     4    2
     4     2     5    1
     5     5     6    2
     6     6     7    1
     7     7     8    2
     8     8     9    1
     9     9    10    1
    10    10    11    2
    11    11    12    1
    12    12    13    1
    13    13    14    1
    14    14    15    1
    15    16    15    1
    16    16    17    1
    17    17    18    2
    18    18    19    1
    19    19    20    1
    20    19    21    2
    21    21    22    1
    22    21    23    1
    23    23    24    2
    24    24    25    1
    25    16    26    1
    26    26    27    1
    27    26    28    1
    28    12    29    2
    29    29    30    1
    30    30    31    2
    31     9    32    2
    32    32     5    1
    33    31    10    1
    34    28    13    1
    35    24    17    1
@<TRIPOS>SUBSTRUCTURE
     1 RES1        1 GROUP             0 ****  ****    0  
@<TRIPOS>MOLECULE
ligand_39
    32    35     1     0     0
SMALL
USER_CHARGES
****
Generated from the CSD

@<TRIPOS>ATOM
     1 C1      13.6487  51.8389  14.5557   C.3       1 RES1   0.0000
     2 S2      13.5627  53.5146  14.5790   S.o2      1 RES1   0.0000
     3 O3      14.8076  54.0789  14.0911   O.2       1 RES1   0.0000
     4 O4      12.4446  53.9481  13.7667   O.2       1 RES1   0.0000
     5 C5      13.3248  53.9860  16.0975   C.2       1 RES1   0.0000
     6 C6      12.0729  54.3189  16.6469   C.2       1 RES1   0.0000
     7 C7      11.9733  54.7190  17.9915   C.2       1 RES1   0.0000
     8 C8      13.1226  54.7931  18.7975   C.2       1 RES1   0.0000
     9 C9      14.3545  54.4636  18.2238   C.2       1 RES1   0.0000
    10 C10     15.6394  54.4541  18.9245   C.2       1 RES1   0.0000
    11 C11     15.7608  54.1350  20.2664   C.2       1 RES1   0.0000
    12 C12     17.0568  54.1617  20.7920   C.2       1 RES1   0.0000
    13 N13     17.3081  53.8663  22.1290   N.3       1 RES1   0.0000
    14 C14     18.6201  54.2746  22.6665   C.3       1 RES1   0.0000
    15 C15     18.9034  53.5075  23.9384   C.3       1 RES1   0.0000
    16 C16     17.7949  53.6692  24.9744   C.3       1 RES1   0.0000
    17 C17     18.0869  52.9415  26.2241   C.2       1 RES1   0.0000
    18 C18     17.6590  51.6284  26.4062   C.2       1 RES1   0.0000
    19 C19     17.9762  50.9622  27.5723   C.2       1 RES1   0.0000
    20 F20     17.5633  49.7015  27.7580   F         1 RES1   0.0000
    21 C21     18.7090  51.6005  28.5466   C.2       1 RES1   0.0000
    22 F22     18.9862  50.9396  29.6699   F         1 RES1   0.0000
    23 C23     19.1518  52.9101  28.3715   C.2       1 RES1   0.0000
    24 C24     18.8397  53.5810  27.1882   C.2       1 RES1   0.0000
    25 F25     19.2456  54.8428  26.9816   F         1 RES1   0.0000
    26 C26     16.4449  53.2757  24.3503   C.3       1 RES1   0.0000
    27 N27     15.3172  53.4131  25.2446   N.3       1 RES1   1.0000
    28 C28     16.2111  54.1109  23.0889   C.3       1 RES1   0.0000
    29 N29     18.1202  54.4927  19.9942   N.2       1 RES1   0.0000
    30 C30     17.9586  54.7902  18.6895   C.2       1 RES1   0.0000
    31 N31     16.7245  54.7698  18.1650   N.2       1 RES1   0.0000
    32 C32     14.4476  54.0633  16.9013   C.2       1 RES1   0.0000
@<TRIPOS>BOND
     1     1     2    1
     2     2     3    2
     3     2     4    2
     4     2     5    1
     5     5     6    2
     6     6     7    1
     7     7     8    2
     8     8     9    1
     9     9    10    1
    10    10    11    2
    11    11    12    1
    12    12    13    1
    13    13    14    1
    14    14    15    1
    15    16    15    1
    16    16    17    1
    17    17    18    2
    18    18    19    1
    19    19    20    1
    20    19    21    2
    21    21    22    1
    22    21    23    1
    23    23    24    2
    24    24    25    1
    25    16    26    1
    26    26    27    1
    27    26    28    1
    28    12    29    2
    29    29    30    1
    30    30    31    2
    31     9    32    2
    32    32     5    1
    33    31    10    1
    34    28    13    1
    35    24    17    1
@<TRIPOS>SUBSTRUCTURE
     1 RES1        1 GROUP             0 ****  ****    0  
@<TRIPOS>MOLECULE
ligand_40
    32    35     1     0     0
SMALL
USER_CHARGES
****
Generated from the CSD

@<TRIPOS>ATOM
     1 C1      14.0391  55.8762  13.8940   C.3       1 RES1   0.0000
     2 S2      13.2464  56.5708  15.1999   S.o2      1 RES1   0.0000
     3 O3      13.9796  57.7363  15.6584   O.2       1 RES1   0.0000
     4 O4      11.8990  56.9285  14.8071   O.2       1 RES1   0.0000
     5 C5      13.1794  55.4854  16.3841   C.2       1 RES1   0.0000
     6 C6      12.0672  54.6698  16.6621   C.2       1 RES1   0.0000
     7 C7      12.1123  53.7482  17.7236   C.2       1 RES1   0.0000
     8 C8      13.2666  53.6358  18.5179   C.2       1 RES1   0.0000
     9 C9      14.3545  54.4636  18.2238   C.2       1 RES1   0.0000
    10 C10     15.6394  54.4541  18.9245   C.2       1 RES1   0.0000
    11 C11     15.7608  54.1350  20.2664   C.2       1 RES1   0.0000
    12 C12     17.0568  54.1617  20.7920   C.2       1 RES1   0.0000
    13 N13     17.3081  53.8663  22.1290   N.3       1 RES1   0.0000
    14 C14     18.6200  54.2747  22.6666   C.3       1 RES1   0.0000
    15 C15     18.9034  53.5076  23.9385   C.3       1 RES1   0.0000
    16 C16     17.7948  53.6692  24.9744   C.3       1 RES1   0.0000
    17 C17     18.0869  52.9415  26.2241   C.2       1 RES1   0.0000
    18 C18     17.6591  51.6283  26.4061   C.2       1 RES1   0.0000
    19 C19     17.9763  50.9622  27.5723   C.2       1 RES1   0.0000
    20 F20     17.5635  49.7015  27.7580   F         1 RES1   0.0000
    21 C21     18.7090  51.6006  28.5466   C.2       1 RES1   0.0000
    22 F22     18.9863  50.9397  29.6699   F         1 RES1   0.0000
    23 C23     19.1518  52.9102  28.3715   C.2       1 RES1   0.0000
    24 C24     18.8397  53.5810  27.1882   C.2       1 RES1   0.0000
    25 F25     19.2454  54.8429  26.9816   F         1 RES1   0.0000
    26 C26     16.4449  53.2756  24.3503   C.3       1 RES1   0.0000
    27 N27     15.3172  53.4129  25.2445   N.3       1 RES1   1.0000
    28 C28     16.2111  54.1108  23.0889   C.3       1 RES1   0.0000
    29 N29     18.1202  54.4927  19.9942   N.2       1 RES1   0.0000
    30 C30     17.9586  54.7902  18.6895   C.2       1 RES1   0.0000
    31 N31     16.7245  54.7698  18.1650   N.2       1 RES1   0.0000
    32 C32     14.3088  55.3649  17.1733   C.2       1 RES1   0.0000
@<TRIPOS>BOND
     1     1     2    1
     2     2     3    2
     3     2     4    2
     4     2     5    1
     5     5     6    2
     6     6     7    1
     7     7     8    2
     8     8     9    1
     9     9    10    1
    10    10    11    2
    11    11    12    1
    12    12    13    1
    13    13    14    1
    14    14    15    1
    15    16    15    1
    16    16    17    1
    17    17    18    2
    18    18    19    1
    19    19    20    1
    20    19    21    2
    21    21    22    1
    22    21    23    1
    23    23    24    2
    24    24    25    1
    25    16    26    1
    26    26    27    1
    27    26    28    1
    28    12    29    2
    29    29    30    1
    30    30    31    2
    31     9    32    2
    32    32     5    1
    33    31    10    1
    34    28    13    1
    35    24    17    1
@<TRIPOS>SUBSTRUCTURE
     1 RES1        1 GROUP             0 ****  ****    0  
@<TRIPOS>MOLECULE
ligand_41
    32    35     1     0     0
SMALL
USER_CHARGES
****
Generated from the CSD

@<TRIPOS>ATOM
     1 C1      11.2297  50.9836  18.0210   C.3       1 RES1   0.0000
     2 S2      11.1844  52.3969  18.9247   S.o2      1 RES1   0.0000
     3 O3       9.8317  52.9221  18.9507   O.2       1 RES1   0.0000
     4 O4      11.6592  52.1234  20.2654   O.2       1 RES1   0.0000
     5 C5      12.1581  53.4709  18.2297   C.2       1 RES1   0.0000
     6 C6      11.8006  54.2940  17.1460   C.2       1 RES1   0.0000
     7 C7      12.7297  55.2045  16.6113   C.2       1 RES1   0.0000
     8 C8      14.0238  55.2983  17.1519   C.2       1 RES1   0.0000
     9 C9      14.3545  54.4636  18.2238   C.2       1 RES1   0.0000
    10 C10     15.6394  54.4541  18.9245   C.2       1 RES1   0.0000
    11 C11     15.7608  54.1350  20.2664   C.2       1 RES1   0.0000
    12 C12     17.0568  54.1617  20.7920   C.2       1 RES1   0.0000
    13 N13     17.3081  53.8663  22.1290   N.3       1 RES1   0.0000
    14 C14     18.6200  54.2748  22.6666   C.3       1 RES1   0.0000
    15 C15     18.9034  53.5077  23.9385   C.3       1 RES1   0.0000
    16 C16     17.7948  53.6692  24.9744   C.3       1 RES1   0.0000
    17 C17     18.0869  52.9415  26.2241   C.2       1 RES1   0.0000
    18 C18     17.6585  51.6285  26.4064   C.2       1 RES1   0.0000
    19 C19     17.9758  50.9624  27.5726   C.2       1 RES1   0.0000
    20 F20     17.5625  49.7019  27.7585   F         1 RES1   0.0000
    21 C21     18.7091  51.6005  28.5465   C.2       1 RES1   0.0000
    22 F22     18.9864  50.9396  29.6698   F         1 RES1   0.0000
    23 C23     19.1524  52.9099  28.3711   C.2       1 RES1   0.0000
    24 C24     18.8403  53.5808  27.1879   C.2       1 RES1   0.0000
    25 F25     19.2466  54.8424  26.9810   F         1 RES1   0.0000
    26 C26     16.4449  53.2755  24.3502   C.3       1 RES1   0.0000
    27 N27     15.3172  53.4126  25.2445   N.3       1 RES1   1.0000
    28 C28     16.2110  54.1106  23.0888   C.3       1 RES1   0.0000
    29 N29     18.1202  54.4927  19.9942   N.2       1 RES1   0.0000
    30 C30     17.9586  54.7902  18.6895   C.2       1 RES1   0.0000
    31 N31     16.7245  54.7698  18.1650   N.2       1 RES1   0.0000
    32 C32     13.4346  53.5732  18.7521   C.2       1 RES1   0.0000
@<TRIPOS>BOND
     1     1     2    1
     2     2     3    2
     3     2     4    2
     4     2     5    1
     5     5     6    2
     6     6     7    1
     7     7     8    2
     8     8     9    1
     9     9    10    1
    10    10    11    2
    11    11    12    1
    12    12    13    1
    13    13    14    1
    14    14    15    1
    15    16    15    1
    16    16    17    1
    17    17    18    2
    18    18    19    1
    19    19    20    1
    20    19    21    2
    21    21    22    1
    22    21    23    1
    23    23    24    2
    24    24    25    1
    25    16    26    1
    26    26    27    1
    27    26    28    1
    28    12    29    2
    29    29    30    1
    30    30    31    2
    31     9    32    2
    32    32     5    1
    33    31    10    1
    34    28    13    1
    35    24    17    1
@<TRIPOS>SUBSTRUCTURE
     1 RES1        1 GROUP             0 ****  ****    0  
@<TRIPOS>MOLECULE
ligand_42
    32    35     1     0     0
SMALL
USER_CHARGES
****
Generated from the CSD

@<TRIPOS>ATOM
     1 C1      13.6626  54.8826  13.6129   C.3       1 RES1   0.0000
     2 S2      13.5626  53.5143  14.5791   S.o2      1 RES1   0.0000
     3 O3      12.4469  52.6901  14.1524   O.2       1 RES1   0.0000
     4 O4      14.8085  52.7800  14.4997   O.2       1 RES1   0.0000
     5 C5      13.3247  53.9859  16.0976   C.2       1 RES1   0.0000
     6 C6      12.0729  54.3188  16.6469   C.2       1 RES1   0.0000
     7 C7      11.9734  54.7191  17.9915   C.2       1 RES1   0.0000
     8 C8      13.1227  54.7932  18.7974   C.2       1 RES1   0.0000
     9 C9      14.3545  54.4636  18.2238   C.2       1 RES1   0.0000
    10 C10     15.6394  54.4541  18.9245   C.2       1 RES1   0.0000
    11 C11     15.7608  54.1350  20.2664   C.2       1 RES1   0.0000
    12 C12     17.0568  54.1617  20.7920   C.2       1 RES1   0.0000
    13 N13     17.3081  53.8663  22.1290   N.3       1 RES1   0.0000
    14 C14     18.6201  54.2746  22.6666   C.3       1 RES1   0.0000
    15 C15     18.9034  53.5075  23.9385   C.3       1 RES1   0.0000
    16 C16     17.7949  53.6692  24.9744   C.3       1 RES1   0.0000
    17 C17     18.0869  52.9415  26.2241   C.2       1 RES1   0.0000
    18 C18     17.6591  51.6283  26.4061   C.2       1 RES1   0.0000
    19 C19     17.9763  50.9622  27.5723   C.2       1 RES1   0.0000
    20 F20     17.5635  49.7015  27.7580   F         1 RES1   0.0000
    21 C21     18.7090  51.6006  28.5466   C.2       1 RES1   0.0000
    22 F22     18.9863  50.9397  29.6699   F         1 RES1   0.0000
    23 C23     19.1518  52.9102  28.3715   C.2       1 RES1   0.0000
    24 C24     18.8397  53.5810  27.1882   C.2       1 RES1   0.0000
    25 F25     19.2455  54.8429  26.9816   F         1 RES1   0.0000
    26 C26     16.4449  53.2756  24.3503   C.3       1 RES1   0.0000
    27 N27     15.3172  53.4129  25.2446   N.3       1 RES1   1.0000
    28 C28     16.2111  54.1108  23.0889   C.3       1 RES1   0.0000
    29 N29     18.1202  54.4927  19.9942   N.2       1 RES1   0.0000
    30 C30     17.9586  54.7902  18.6895   C.2       1 RES1   0.0000
    31 N31     16.7245  54.7698  18.1650   N.2       1 RES1   0.0000
    32 C32     14.4476  54.0631  16.9013   C.2       1 RES1   0.0000
@<TRIPOS>BOND
     1     1     2    1
     2     2     3    2
     3     2     4    2
     4     2     5    1
     5     5     6    2
     6     6     7    1
     7     7     8    2
     8     8     9    1
     9     9    10    1
    10    10    11    2
    11    11    12    1
    12    12    13    1
    13    13    14    1
    14    14    15    1
    15    16    15    1
    16    16    17    1
    17    17    18    2
    18    18    19    1
    19    19    20    1
    20    19    21    2
    21    21    22    1
    22    21    23    1
    23    23    24    2
    24    24    25    1
    25    16    26    1
    26    26    27    1
    27    26    28    1
    28    12    29    2
    29    29    30    1
    30    30    31    2
    31     9    32    2
    32    32     5    1
    33    31    10    1
    34    28    13    1
    35    24    17    1
@<TRIPOS>SUBSTRUCTURE
     1 RES1        1 GROUP             0 ****  ****    0  
@<TRIPOS>MOLECULE
ligand_43
    32    35     1     0     0
SMALL
USER_CHARGES
****
Generated from the CSD

@<TRIPOS>ATOM
     1 C1      12.5242  57.9856  15.7418   C.3       1 RES1   0.0000
     2 S2      13.2463  56.5710  15.2001   S.o2      1 RES1   0.0000
     3 O3      12.5309  56.0639  14.0436   O.2       1 RES1   0.0000
     4 O4      14.6330  56.8349  14.8759   O.2       1 RES1   0.0000
     5 C5      13.1794  55.4856  16.3842   C.2       1 RES1   0.0000
     6 C6      12.0672  54.6698  16.6622   C.2       1 RES1   0.0000
     7 C7      12.1124  53.7482  17.7236   C.2       1 RES1   0.0000
     8 C8      13.2667  53.6357  18.5178   C.2       1 RES1   0.0000
     9 C9      14.3545  54.4636  18.2238   C.2       1 RES1   0.0000
    10 C10     15.6394  54.4541  18.9245   C.2       1 RES1   0.0000
    11 C11     15.7608  54.1350  20.2664   C.2       1 RES1   0.0000
    12 C12     17.0568  54.1617  20.7920   C.2       1 RES1   0.0000
    13 N13     17.3081  53.8663  22.1290   N.3       1 RES1   0.0000
    14 C14     18.6200  54.2747  22.6666   C.3       1 RES1   0.0000
    15 C15     18.9034  53.5076  23.9385   C.3       1 RES1   0.0000
    16 C16     17.7948  53.6692  24.9744   C.3       1 RES1   0.0000
    17 C17     18.0869  52.9415  26.2241   C.2       1 RES1   0.0000
    18 C18     17.6591  51.6283  26.4061   C.2       1 RES1   0.0000
    19 C19     17.9764  50.9621  27.5723   C.2       1 RES1   0.0000
    20 F20     17.5637  49.7014  27.7579   F         1 RES1   0.0000
    21 C21     18.7091  51.6006  28.5466   C.2       1 RES1   0.0000
    22 F22     18.9864  50.9397  29.6698   F         1 RES1   0.0000
    23 C23     19.1518  52.9102  28.3715   C.2       1 RES1   0.0000
    24 C24     18.8396  53.5811  27.1883   C.2       1 RES1   0.0000
    25 F25     19.2453  54.8429  26.9816   F         1 RES1   0.0000
    26 C26     16.4449  53.2755  24.3502   C.3       1 RES1   0.0000
    27 N27     15.3172  53.4127  25.2445   N.3       1 RES1   1.0000
    28 C28     16.2111  54.1107  23.0888   C.3       1 RES1   0.0000
    29 N29     18.1202  54.4927  19.9942   N.2       1 RES1   0.0000
    30 C30     17.9586  54.7902  18.6895   C.2       1 RES1   0.0000
    31 N31     16.7245  54.7698  18.1650   N.2       1 RES1   0.0000
    32 C32     14.3088  55.3649  17.1734   C.2       1 RES1   0.0000
@<TRIPOS>BOND
     1     1     2    1
     2     2     3    2
     3     2     4    2
     4     2     5    1
     5     5     6    2
     6     6     7    1
     7     7     8    2
     8     8     9    1
     9     9    10    1
    10    10    11    2
    11    11    12    1
    12    12    13    1
    13    13    14    1
    14    14    15    1
    15    16    15    1
    16    16    17    1
    17    17    18    2
    18    18    19    1
    19    19    20    1
    20    19    21    2
    21    21    22    1
    22    21    23    1
    23    23    24    2
    24    24    25    1
    25    16    26    1
    26    26    27    1
    27    26    28    1
    28    12    29    2
    29    29    30    1
    30    30    31    2
    31     9    32    2
    32    32     5    1
    33    31    10    1
    34    28    13    1
    35    24    17    1
@<TRIPOS>SUBSTRUCTURE
     1 RES1        1 GROUP             0 ****  ****    0  
@<TRIPOS>MOLECULE
ligand_44
    32    35     1     0     0
SMALL
USER_CHARGES
****
Generated from the CSD

@<TRIPOS>ATOM
     1 C1      20.3518  54.3884  16.9972   C.3       1 RES1   0.0000
     2 S2      19.5845  55.8515  16.7028   S.o2      1 RES1   0.0000
     3 O3      19.8498  56.7749  17.7906   O.2       1 RES1   0.0000
     4 O4      20.0491  56.3906  15.4414   O.2       1 RES1   0.0000
     5 C5      18.0024  55.5810  16.6095   C.2       1 RES1   0.0000
     6 C6      17.2849  55.4266  15.4091   C.2       1 RES1   0.0000
     7 C7      15.8986  55.1908  15.4378   C.2       1 RES1   0.0000
     8 C8      15.2172  55.1104  16.6646   C.2       1 RES1   0.0000
     9 C9      15.9537  55.2747  17.8418   C.2       1 RES1   0.0000
    10 C10     15.4119  55.1883  19.1986   C.2       1 RES1   0.0000
    11 C11     16.1559  54.7419  20.2776   C.2       1 RES1   0.0000
    12 C12     15.5011  54.7244  21.5135   C.2       1 RES1   0.0000
    13 N13     16.1402  54.2904  22.6717   N.3       1 RES1   0.0000
    14 C14     17.3473  53.4605  22.4958   C.3       1 RES1   0.0000
    15 C15     17.6418  52.7221  23.7820   C.3       1 RES1   0.0000
    16 C16     17.7739  53.6631  24.9759   C.3       1 RES1   0.0000
    17 C17     18.0879  52.9421  26.2241   C.2       1 RES1   0.0000
    18 C18     17.6817  51.6229  26.4119   C.2       1 RES1   0.0000
    19 C19     18.0191  50.9636  27.5764   C.2       1 RES1   0.0000
    20 F20     17.6272  49.6971  27.7676   F         1 RES1   0.0000
    21 C21     18.7504  51.6148  28.5432   C.2       1 RES1   0.0000
    22 F22     19.0474  50.9602  29.6651   F         1 RES1   0.0000
    23 C23     19.1715  52.9307  28.3623   C.2       1 RES1   0.0000
    24 C24     18.8390  53.5947  27.1807   C.2       1 RES1   0.0000
    25 F25     19.2237  54.8622  26.9686   F         1 RES1   0.0000
    26 C26     16.5118  54.5360  25.0861   C.3       1 RES1   0.0000
    27 N27     16.5416  55.4837  26.1775   N.3       1 RES1   1.0000
    28 C28     16.2939  55.2749  23.7633   C.3       1 RES1   0.0000
    29 N29     14.1962  55.1302  21.6109   N.2       1 RES1   0.0000
    30 C30     13.5097  55.5649  20.5354   C.2       1 RES1   0.0000
    31 N31     14.1189  55.5906  19.3409   N.2       1 RES1   0.0000
    32 C32     17.3198  55.4997  17.8096   C.2       1 RES1   0.0000
@<TRIPOS>BOND
     1     1     2    1
     2     2     3    2
     3     2     4    2
     4     2     5    1
     5     5     6    2
     6     6     7    1
     7     7     8    2
     8     8     9    1
     9     9    10    1
    10    10    11    2
    11    11    12    1
    12    12    13    1
    13    13    14    1
    14    14    15    1
    15    16    15    1
    16    16    17    1
    17    17    18    2
    18    18    19    1
    19    19    20    1
    20    19    21    2
    21    21    22    1
    22    21    23    1
    23    23    24    2
    24    24    25    1
    25    16    26    1
    26    26    27    1
    27    26    28    1
    28    12    29    2
    29    29    30    1
    30    30    31    2
    31     9    32    2
    32    32     5    1
    33    31    10    1
    34    28    13    1
    35    24    17    1
@<TRIPOS>SUBSTRUCTURE
     1 RES1        1 GROUP             0 ****  ****    0  
@<TRIPOS>MOLECULE
ligand_45
    32    35     1     0     0
SMALL
USER_CHARGES
****
Generated from the CSD

@<TRIPOS>ATOM
     1 C1      17.6747  51.5995  15.7505   C.3       1 RES1   0.0000
     2 S2      18.5257  53.0033  16.0987   S.o2      1 RES1   0.0000
     3 O3      19.2937  52.8248  17.3171   O.2       1 RES1   0.0000
     4 O4      19.3917  53.3273  14.9839   O.2       1 RES1   0.0000
     5 C5      17.4674  54.1954  16.3076   C.2       1 RES1   0.0000
     6 C6      17.1149  55.1364  15.3227   C.2       1 RES1   0.0000
     7 C7      16.1740  56.1420  15.6083   C.2       1 RES1   0.0000
     8 C8      15.5798  56.2182  16.8799   C.2       1 RES1   0.0000
     9 C9      15.9537  55.2747  17.8418   C.2       1 RES1   0.0000
    10 C10     15.4119  55.1883  19.1986   C.2       1 RES1   0.0000
    11 C11     16.1559  54.7419  20.2776   C.2       1 RES1   0.0000
    12 C12     15.5011  54.7244  21.5135   C.2       1 RES1   0.0000
    13 N13     16.1402  54.2904  22.6717   N.3       1 RES1   0.0000
    14 C14     17.3485  53.4624  22.4958   C.3       1 RES1   0.0000
    15 C15     17.6434  52.7233  23.7816   C.3       1 RES1   0.0000
    16 C16     17.7736  53.6636  24.9762   C.3       1 RES1   0.0000
    17 C17     18.0879  52.9421  26.2241   C.2       1 RES1   0.0000
    18 C18     17.6842  51.6218  26.4103   C.2       1 RES1   0.0000
    19 C19     18.0220  50.9622  27.5744   C.2       1 RES1   0.0000
    20 F20     17.6325  49.6947  27.7641   F         1 RES1   0.0000
    21 C21     18.7510  51.6140  28.5426   C.2       1 RES1   0.0000
    22 F22     19.0484  50.9588  29.6641   F         1 RES1   0.0000
    23 C23     19.1697  52.9309  28.3632   C.2       1 RES1   0.0000
    24 C24     18.8369  53.5953  27.1820   C.2       1 RES1   0.0000
    25 F25     19.2191  54.8638  26.9714   F         1 RES1   0.0000
    26 C26     16.5102  54.5346  25.0865   C.3       1 RES1   0.0000
    27 N27     16.5380  55.4815  26.1786   N.3       1 RES1   1.0000
    28 C28     16.2919  55.2743  23.7642   C.3       1 RES1   0.0000
    29 N29     14.1962  55.1302  21.6109   N.2       1 RES1   0.0000
    30 C30     13.5097  55.5649  20.5354   C.2       1 RES1   0.0000
    31 N31     14.1189  55.5906  19.3409   N.2       1 RES1   0.0000
    32 C32     16.8754  54.2817  17.5546   C.2       1 RES1   0.0000
@<TRIPOS>BOND
     1     1     2    1
     2     2     3    2
     3     2     4    2
     4     2     5    1
     5     5     6    2
     6     6     7    1
     7     7     8    2
     8     8     9    1
     9     9    10    1
    10    10    11    2
    11    11    12    1
    12    12    13    1
    13    13    14    1
    14    14    15    1
    15    16    15    1
    16    16    17    1
    17    17    18    2
    18    18    19    1
    19    19    20    1
    20    19    21    2
    21    21    22    1
    22    21    23    1
    23    23    24    2
    24    24    25    1
    25    16    26    1
    26    26    27    1
    27    26    28    1
    28    12    29    2
    29    29    30    1
    30    30    31    2
    31     9    32    2
    32    32     5    1
    33    31    10    1
    34    28    13    1
    35    24    17    1
@<TRIPOS>SUBSTRUCTURE
     1 RES1        1 GROUP             0 ****  ****    0  
@<TRIPOS>MOLECULE
ligand_46
    32    35     1     0     0
SMALL
USER_CHARGES
****
Generated from the CSD

@<TRIPOS>ATOM
     1 C1      16.0158  59.2364  15.5740   C.3       1 RES1   0.0000
     2 S2      15.2070  57.8509  15.0818   S.o2      1 RES1   0.0000
     3 O3      13.8063  57.9404  15.4511   O.2       1 RES1   0.0000
     4 O4      15.3555  57.6930  13.6498   O.2       1 RES1   0.0000
     5 C5      15.8723  56.5888  15.8229   C.2       1 RES1   0.0000
     6 C6      16.8370  55.7397  15.2501   C.2       1 RES1   0.0000
     7 C7      17.3581  54.6610  15.9870   C.2       1 RES1   0.0000
     8 C8      16.9182  54.4194  17.3000   C.2       1 RES1   0.0000
     9 C9      15.9537  55.2747  17.8418   C.2       1 RES1   0.0000
    10 C10     15.4119  55.1883  19.1986   C.2       1 RES1   0.0000
    11 C11     16.1559  54.7419  20.2776   C.2       1 RES1   0.0000
    12 C12     15.5011  54.7244  21.5135   C.2       1 RES1   0.0000
    13 N13     16.1402  54.2904  22.6717   N.3       1 RES1   0.0000
    14 C14     17.3472  53.4604  22.4958   C.3       1 RES1   0.0000
    15 C15     17.6417  52.7220  23.7821   C.3       1 RES1   0.0000
    16 C16     17.7739  53.6631  24.9758   C.3       1 RES1   0.0000
    17 C17     18.0879  52.9421  26.2241   C.2       1 RES1   0.0000
    18 C18     17.6816  51.6229  26.4120   C.2       1 RES1   0.0000
    19 C19     18.0190  50.9637  27.5765   C.2       1 RES1   0.0000
    20 F20     17.6270  49.6972  27.7678   F         1 RES1   0.0000
    21 C21     18.7503  51.6149  28.5433   C.2       1 RES1   0.0000
    22 F22     19.0473  50.9603  29.6652   F         1 RES1   0.0000
    23 C23     19.1716  52.9308  28.3622   C.2       1 RES1   0.0000
    24 C24     18.8391  53.5947  27.1806   C.2       1 RES1   0.0000
    25 F25     19.2239  54.8622  26.9684   F         1 RES1   0.0000
    26 C26     16.5120  54.5361  25.0861   C.3       1 RES1   0.0000
    27 N27     16.5419  55.4839  26.1774   N.3       1 RES1   1.0000
    28 C28     16.2940  55.2750  23.7633   C.3       1 RES1   0.0000
    29 N29     14.1962  55.1302  21.6109   N.2       1 RES1   0.0000
    30 C30     13.5097  55.5649  20.5354   C.2       1 RES1   0.0000
    31 N31     14.1189  55.5906  19.3409   N.2       1 RES1   0.0000
    32 C32     15.4481  56.3400  17.1156   C.2       1 RES1   0.0000
@<TRIPOS>BOND
     1     1     2    1
     2     2     3    2
     3     2     4    2
     4     2     5    1
     5     5     6    2
     6     6     7    1
     7     7     8    2
     8     8     9    1
     9     9    10    1
    10    10    11    2
    11    11    12    1
    12    12    13    1
    13    13    14    1
    14    14    15    1
    15    16    15    1
    16    16    17    1
    17    17    18    2
    18    18    19    1
    19    19    20    1
    20    19    21    2
    21    21    22    1
    22    21    23    1
    23    23    24    2
    24    24    25    1
    25    16    26    1
    26    26    27    1
    27    26    28    1
    28    12    29    2
    29    29    30    1
    30    30    31    2
    31     9    32    2
    32    32     5    1
    33    31    10    1
    34    28    13    1
    35    24    17    1
@<TRIPOS>SUBSTRUCTURE
     1 RES1        1 GROUP             0 ****  ****    0  
@<TRIPOS>MOLECULE
ligand_47
    32    35     1     0     0
SMALL
USER_CHARGES
****
Generated from the CSD

@<TRIPOS>ATOM
     1 C1      13.2988  56.4229  14.3098   C.3       1 RES1   0.0000
     2 S2      14.1276  54.9723  14.4675   S.o2      1 RES1   0.0000
     3 O3      13.2326  53.9451  14.9677   O.2       1 RES1   0.0000
     4 O4      14.6816  54.5953  13.1835   O.2       1 RES1   0.0000
     5 C5      15.3270  55.1885  15.5160   C.2       1 RES1   0.0000
     6 C6      16.6642  55.4466  15.1625   C.2       1 RES1   0.0000
     7 C7      17.6394  55.6225  16.1605   C.2       1 RES1   0.0000
     8 C8      17.2883  55.5392  17.5191   C.2       1 RES1   0.0000
     9 C9      15.9537  55.2747  17.8418   C.2       1 RES1   0.0000
    10 C10     15.4119  55.1883  19.1986   C.2       1 RES1   0.0000
    11 C11     16.1559  54.7419  20.2776   C.2       1 RES1   0.0000
    12 C12     15.5011  54.7244  21.5135   C.2       1 RES1   0.0000
    13 N13     16.1402  54.2904  22.6717   N.3       1 RES1   0.0000
    14 C14     17.3471  53.4603  22.4958   C.3       1 RES1   0.0000
    15 C15     17.6416  52.7219  23.7821   C.3       1 RES1   0.0000
    16 C16     17.7739  53.6630  24.9758   C.3       1 RES1   0.0000
    17 C17     18.0879  52.9421  26.2241   C.2       1 RES1   0.0000
    18 C18     17.6816  51.6229  26.4120   C.2       1 RES1   0.0000
    19 C19     18.0189  50.9637  27.5765   C.2       1 RES1   0.0000
    20 F20     17.6270  49.6973  27.7679   F         1 RES1   0.0000
    21 C21     18.7503  51.6149  28.5433   C.2       1 RES1   0.0000
    22 F22     19.0473  50.9603  29.6653   F         1 RES1   0.0000
    23 C23     19.1716  52.9308  28.3622   C.2       1 RES1   0.0000
    24 C24     18.8391  53.5947  27.1806   C.2       1 RES1   0.0000
    25 F25     19.2239  54.8622  26.9684   F         1 RES1   0.0000
    26 C26     16.5120  54.5361  25.0861   C.3       1 RES1   0.0000
    27 N27     16.5420  55.4840  26.1774   N.3       1 RES1   1.0000
    28 C28     16.2941  55.2750  23.7633   C.3       1 RES1   0.0000
    29 N29     14.1962  55.1302  21.6109   N.2       1 RES1   0.0000
    30 C30     13.5097  55.5649  20.5354   C.2       1 RES1   0.0000
    31 N31     14.1189  55.5906  19.3409   N.2       1 RES1   0.0000
    32 C32     14.9950  55.1089  16.8563   C.2       1 RES1   0.0000
@<TRIPOS>BOND
     1     1     2    1
     2     2     3    2
     3     2     4    2
     4     2     5    1
     5     5     6    2
     6     6     7    1
     7     7     8    2
     8     8     9    1
     9     9    10    1
    10    10    11    2
    11    11    12    1
    12    12    13    1
    13    13    14    1
    14    14    15    1
    15    16    15    1
    16    16    17    1
    17    17    18    2
    18    18    19    1
    19    19    20    1
    20    19    21    2
    21    21    22    1
    22    21    23    1
    23    23    24    2
    24    24    25    1
    25    16    26    1
    26    26    27    1
    27    26    28    1
    28    12    29    2
    29    29    30    1
    30    30    31    2
    31     9    32    2
    32    32     5    1
    33    31    10    1
    34    28    13    1
    35    24    17    1
@<TRIPOS>SUBSTRUCTURE
     1 RES1        1 GROUP             0 ****  ****    0  
@<TRIPOS>MOLECULE
ligand_48
    32    35     1     0     0
SMALL
USER_CHARGES
****
Generated from the CSD

@<TRIPOS>ATOM
     1 C1      19.8498  57.4960  16.4990   C.3       1 RES1   0.0000
     2 S2      19.5845  55.8516  16.7028   S.o2      1 RES1   0.0000
     3 O3      20.2606  55.1096  15.6547   O.2       1 RES1   0.0000
     4 O4      20.0586  55.4485  18.0107   O.2       1 RES1   0.0000
     5 C5      18.0024  55.5810  16.6095   C.2       1 RES1   0.0000
     6 C6      17.2849  55.4266  15.4091   C.2       1 RES1   0.0000
     7 C7      15.8986  55.1908  15.4378   C.2       1 RES1   0.0000
     8 C8      15.2172  55.1104  16.6646   C.2       1 RES1   0.0000
     9 C9      15.9537  55.2747  17.8418   C.2       1 RES1   0.0000
    10 C10     15.4119  55.1883  19.1986   C.2       1 RES1   0.0000
    11 C11     16.1559  54.7419  20.2776   C.2       1 RES1   0.0000
    12 C12     15.5011  54.7244  21.5135   C.2       1 RES1   0.0000
    13 N13     16.1402  54.2904  22.6717   N.3       1 RES1   0.0000
    14 C14     17.3472  53.4604  22.4958   C.3       1 RES1   0.0000
    15 C15     17.6417  52.7220  23.7821   C.3       1 RES1   0.0000
    16 C16     17.7739  53.6631  24.9758   C.3       1 RES1   0.0000
    17 C17     18.0879  52.9421  26.2241   C.2       1 RES1   0.0000
    18 C18     17.6815  51.6229  26.4120   C.2       1 RES1   0.0000
    19 C19     18.0189  50.9637  27.5765   C.2       1 RES1   0.0000
    20 F20     17.6269  49.6972  27.7678   F         1 RES1   0.0000
    21 C21     18.7503  51.6148  28.5433   C.2       1 RES1   0.0000
    22 F22     19.0473  50.9602  29.6652   F         1 RES1   0.0000
    23 C23     19.1717  52.9307  28.3622   C.2       1 RES1   0.0000
    24 C24     18.8392  53.5947  27.1806   C.2       1 RES1   0.0000
    25 F25     19.2240  54.8621  26.9684   F         1 RES1   0.0000
    26 C26     16.5119  54.5360  25.0861   C.3       1 RES1   0.0000
    27 N27     16.5418  55.4838  26.1774   N.3       1 RES1   1.0000
    28 C28     16.2940  55.2749  23.7633   C.3       1 RES1   0.0000
    29 N29     14.1962  55.1302  21.6109   N.2       1 RES1   0.0000
    30 C30     13.5097  55.5649  20.5354   C.2       1 RES1   0.0000
    31 N31     14.1189  55.5906  19.3409   N.2       1 RES1   0.0000
    32 C32     17.3198  55.4998  17.8096   C.2       1 RES1   0.0000
@<TRIPOS>BOND
     1     1     2    1
     2     2     3    2
     3     2     4    2
     4     2     5    1
     5     5     6    2
     6     6     7    1
     7     7     8    2
     8     8     9    1
     9     9    10    1
    10    10    11    2
    11    11    12    1
    12    12    13    1
    13    13    14    1
    14    14    15    1
    15    16    15    1
    16    16    17    1
    17    17    18    2
    18    18    19    1
    19    19    20    1
    20    19    21    2
    21    21    22    1
    22    21    23    1
    23    23    24    2
    24    24    25    1
    25    16    26    1
    26    26    27    1
    27    26    28    1
    28    12    29    2
    29    29    30    1
    30    30    31    2
    31     9    32    2
    32    32     5    1
    33    31    10    1
    34    28    13    1
    35    24    17    1
@<TRIPOS>SUBSTRUCTURE
     1 RES1        1 GROUP             0 ****  ****    0  
@<TRIPOS>MOLECULE
ligand_49
    32    35     1     0     0
SMALL
USER_CHARGES
****
Generated from the CSD

@<TRIPOS>ATOM
     1 C1      20.0620  53.6095  16.3368   C.3       1 RES1   0.0000
     2 S2      18.5183  52.9975  16.0954   S.o2      1 RES1   0.0000
     3 O3      18.3975  52.4840  14.7434   O.2       1 RES1   0.0000
     4 O4      18.2578  51.9575  17.0691   O.2       1 RES1   0.0000
     5 C5      17.4637  54.1927  16.3060   C.2       1 RES1   0.0000
     6 C6      17.1140  55.1360  15.3223   C.2       1 RES1   0.0000
     7 C7      16.1762  56.1440  15.6093   C.2       1 RES1   0.0000
     8 C8      15.5826  56.2205  16.8812   C.2       1 RES1   0.0000
     9 C9      15.9537  55.2747  17.8418   C.2       1 RES1   0.0000
    10 C10     15.4119  55.1883  19.1986   C.2       1 RES1   0.0000
    11 C11     16.1559  54.7419  20.2776   C.2       1 RES1   0.0000
    12 C12     15.5011  54.7244  21.5135   C.2       1 RES1   0.0000
    13 N13     16.1402  54.2904  22.6717   N.3       1 RES1   0.0000
    14 C14     17.3471  53.4603  22.4958   C.3       1 RES1   0.0000
    15 C15     17.6416  52.7219  23.7821   C.3       1 RES1   0.0000
    16 C16     17.7739  53.6630  24.9758   C.3       1 RES1   0.0000
    17 C17     18.0879  52.9421  26.2241   C.2       1 RES1   0.0000
    18 C18     17.6815  51.6229  26.4121   C.2       1 RES1   0.0000
    19 C19     18.0189  50.9637  27.5766   C.2       1 RES1   0.0000
    20 F20     17.6269  49.6973  27.7679   F         1 RES1   0.0000
    21 C21     18.7503  51.6149  28.5433   C.2       1 RES1   0.0000
    22 F22     19.0473  50.9603  29.6653   F         1 RES1   0.0000
    23 C23     19.1716  52.9308  28.3622   C.2       1 RES1   0.0000
    24 C24     18.8392  53.5947  27.1806   C.2       1 RES1   0.0000
    25 F25     19.2240  54.8621  26.9684   F         1 RES1   0.0000
    26 C26     16.5120  54.5361  25.0861   C.3       1 RES1   0.0000
    27 N27     16.5420  55.4840  26.1774   N.3       1 RES1   1.0000
    28 C28     16.2941  55.2750  23.7632   C.3       1 RES1   0.0000
    29 N29     14.1962  55.1302  21.6109   N.2       1 RES1   0.0000
    30 C30     13.5097  55.5649  20.5354   C.2       1 RES1   0.0000
    31 N31     14.1189  55.5906  19.3409   N.2       1 RES1   0.0000
    32 C32     16.8723  54.2792  17.5532   C.2       1 RES1   0.0000
@<TRIPOS>BOND
     1     1     2    1
     2     2     3    2
     3     2     4    2
     4     2     5    1
     5     5     6    2
     6     6     7    1
     7     7     8    2
     8     8     9    1
     9     9    10    1
    10    10    11    2
    11    11    12    1
    12    12    13    1
    13    13    14    1
    14    14    15    1
    15    16    15    1
    16    16    17    1
    17    17    18    2
    18    18    19    1
    19    19    20    1
    20    19    21    2
    21    21    22    1
    22    21    23    1
    23    23    24    2
    24    24    25    1
    25    16    26    1
    26    26    27    1
    27    26    28    1
    28    12    29    2
    29    29    30    1
    30    30    31    2
    31     9    32    2
    32    32     5    1
    33    31    10    1
    34    28    13    1
    35    24    17    1
@<TRIPOS>SUBSTRUCTURE
     1 RES1        1 GROUP             0 ****  ****    0  
@<TRIPOS>MOLECULE
ligand_50
    32    35     1     0     0
SMALL
USER_CHARGES
****
Generated from the CSD

@<TRIPOS>ATOM
     1 C1      11.5530  59.5498  23.7864   C.3       1 RES1   0.0000
     2 S2      10.5986  58.6728  22.7206   S.o2      1 RES1   0.0000
     3 O3      10.3149  57.3626  23.2767   O.2       1 RES1   0.0000
     4 O4       9.3740  59.4019  22.4633   O.2       1 RES1   0.0000
     5 C5      11.4091  58.5010  21.3427   C.2       1 RES1   0.0000
     6 C6      11.2318  59.3062  20.2026   C.2       1 RES1   0.0000
     7 C7      11.9953  59.0725  19.0448   C.2       1 RES1   0.0000
     8 C8      12.9393  58.0314  19.0147   C.2       1 RES1   0.0000
     9 C9      13.0898  57.2424  20.1592   C.2       1 RES1   0.0000
    10 C10     14.0450  56.1440  20.3108   C.2       1 RES1   0.0000
    11 C11     14.6116  55.8038  21.5275   C.2       1 RES1   0.0000
    12 C12     15.5011  54.7244  21.5135   C.2       1 RES1   0.0000
    13 N13     16.1402  54.2904  22.6717   N.3       1 RES1   0.0000
    14 C14     17.3121  53.4114  22.4968   C.3       1 RES1   0.0000
    15 C15     17.5973  52.6891  23.7943   C.3       1 RES1   0.0000
    16 C16     17.7826  53.6490  24.9658   C.3       1 RES1   0.0000
    17 C17     18.0872  52.9426  26.2247   C.2       1 RES1   0.0000
    18 C18     17.6344  51.6439  26.4460   C.2       1 RES1   0.0000
    19 C19     17.9636  50.9966  27.6195   C.2       1 RES1   0.0000
    20 F20     17.5271  49.7501  27.8429   F         1 RES1   0.0000
    21 C21     18.7328  51.6394  28.5622   C.2       1 RES1   0.0000
    22 F22     19.0212  50.9973  29.6935   F         1 RES1   0.0000
    23 C23     19.2006  52.9344  28.3475   C.2       1 RES1   0.0000
    24 C24     18.8762  53.5859  27.1568   C.2       1 RES1   0.0000
    25 F25     19.3053  54.8332  26.9125   F         1 RES1   0.0000
    26 C26     16.5564  54.5717  25.0749   C.3       1 RES1   0.0000
    27 N27     16.6381  55.5401  26.1453   N.3       1 RES1   1.0000
    28 C28     16.3472  55.2908  23.7399   C.3       1 RES1   0.0000
    29 N29     15.7738  54.0678  20.3424   N.2       1 RES1   0.0000
    30 C30     15.1944  54.4274  19.1797   C.2       1 RES1   0.0000
    31 N31     14.3377  55.4591  19.1709   N.2       1 RES1   0.0000
    32 C32     12.3411  57.4801  21.2998   C.2       1 RES1   0.0000
@<TRIPOS>BOND
     1     1     2    1
     2     2     3    2
     3     2     4    2
     4     2     5    1
     5     5     6    2
     6     6     7    1
     7     7     8    2
     8     8     9    1
     9     9    10    1
    10    10    11    2
    11    11    12    1
    12    12    13    1
    13    13    14    1
    14    14    15    1
    15    16    15    1
    16    16    17    1
    17    17    18    2
    18    18    19    1
    19    19    20    1
    20    19    21    2
    21    21    22    1
    22    21    23    1
    23    23    24    2
    24    24    25    1
    25    16    26    1
    26    26    27    1
    27    26    28    1
    28    12    29    2
    29    29    30    1
    30    30    31    2
    31     9    32    2
    32    32     5    1
    33    31    10    1
    34    28    13    1
    35    24    17    1
@<TRIPOS>SUBSTRUCTURE
     1 RES1        1 GROUP             0 ****  ****    0  
@<TRIPOS>MOLECULE
ligand_51
    32    35     1     0     0
SMALL
USER_CHARGES
****
Generated from the CSD

@<TRIPOS>ATOM
     1 C1      14.1831  61.5045  21.3760   C.3       1 RES1   0.0000
     2 S2      12.9275  60.6027  22.0286   S.o2      1 RES1   0.0000
     3 O3      13.3503  60.0030  23.2808   O.2       1 RES1   0.0000
     4 O4      11.7762  61.4586  22.2275   O.2       1 RES1   0.0000
     5 C5      12.5462  59.4406  20.9850   C.2       1 RES1   0.0000
     6 C6      11.4823  59.5053  20.0665   C.2       1 RES1   0.0000
     7 C7      11.2343  58.4311  19.1932   C.2       1 RES1   0.0000
     8 C8      12.0440  57.2828  19.2319   C.2       1 RES1   0.0000
     9 C9      13.0898  57.2424  20.1592   C.2       1 RES1   0.0000
    10 C10     14.0450  56.1440  20.3108   C.2       1 RES1   0.0000
    11 C11     14.6116  55.8038  21.5275   C.2       1 RES1   0.0000
    12 C12     15.5011  54.7244  21.5135   C.2       1 RES1   0.0000
    13 N13     16.1402  54.2904  22.6717   N.3       1 RES1   0.0000
    14 C14     17.3116  53.4106  22.4968   C.3       1 RES1   0.0000
    15 C15     17.5965  52.6886  23.7945   C.3       1 RES1   0.0000
    16 C16     17.7827  53.6488  24.9656   C.3       1 RES1   0.0000
    17 C17     18.0872  52.9426  26.2247   C.2       1 RES1   0.0000
    18 C18     17.6340  51.6441  26.4464   C.2       1 RES1   0.0000
    19 C19     17.9630  50.9970  27.6200   C.2       1 RES1   0.0000
    20 F20     17.5261  49.7507  27.8438   F         1 RES1   0.0000
    21 C21     18.7325  51.6398  28.5625   C.2       1 RES1   0.0000
    22 F22     19.0208  50.9979  29.6940   F         1 RES1   0.0000
    23 C23     19.2007  52.9346  28.3474   C.2       1 RES1   0.0000
    24 C24     18.8765  53.5859  27.1566   C.2       1 RES1   0.0000
    25 F25     19.3059  54.8330  26.9119   F         1 RES1   0.0000
    26 C26     16.5571  54.5722  25.0748   C.3       1 RES1   0.0000
    27 N27     16.6397  55.5409  26.1448   N.3       1 RES1   1.0000
    28 C28     16.3481  55.2910  23.7395   C.3       1 RES1   0.0000
    29 N29     15.7738  54.0678  20.3424   N.2       1 RES1   0.0000
    30 C30     15.1944  54.4274  19.1797   C.2       1 RES1   0.0000
    31 N31     14.3377  55.4591  19.1709   N.2       1 RES1   0.0000
    32 C32     13.3352  58.3050  21.0128   C.2       1 RES1   0.0000
@<TRIPOS>BOND
     1     1     2    1
     2     2     3    2
     3     2     4    2
     4     2     5    1
     5     5     6    2
     6     6     7    1
     7     7     8    2
     8     8     9    1
     9     9    10    1
    10    10    11    2
    11    11    12    1
    12    12    13    1
    13    13    14    1
    14    14    15    1
    15    16    15    1
    16    16    17    1
    17    17    18    2
    18    18    19    1
    19    19    20    1
    20    19    21    2
    21    21    22    1
    22    21    23    1
    23    23    24    2
    24    24    25    1
    25    16    26    1
    26    26    27    1
    27    26    28    1
    28    12    29    2
    29    29    30    1
    30    30    31    2
    31     9    32    2
    32    32     5    1
    33    31    10    1
    34    28    13    1
    35    24    17    1
@<TRIPOS>SUBSTRUCTURE
     1 RES1        1 GROUP             0 ****  ****    0  
@<TRIPOS>MOLECULE
ligand_52
    32    35     1     0     0
SMALL
USER_CHARGES
****
Generated from the CSD

@<TRIPOS>ATOM
     1 C1      13.9436  57.2948  14.1277   C.3       1 RES1   0.0000
     2 S2      15.2071  57.8510  15.0818   S.o2      1 RES1   0.0000
     3 O3      16.2043  58.4993  14.2503   O.2       1 RES1   0.0000
     4 O4      14.6885  58.7666  16.0770   O.2       1 RES1   0.0000
     5 C5      15.8724  56.5888  15.8229   C.2       1 RES1   0.0000
     6 C6      16.8370  55.7397  15.2501   C.2       1 RES1   0.0000
     7 C7      17.3581  54.6610  15.9870   C.2       1 RES1   0.0000
     8 C8      16.9182  54.4194  17.3000   C.2       1 RES1   0.0000
     9 C9      15.9537  55.2747  17.8418   C.2       1 RES1   0.0000
    10 C10     15.4119  55.1883  19.1986   C.2       1 RES1   0.0000
    11 C11     16.1559  54.7419  20.2776   C.2       1 RES1   0.0000
    12 C12     15.5011  54.7244  21.5135   C.2       1 RES1   0.0000
    13 N13     16.1402  54.2904  22.6717   N.3       1 RES1   0.0000
    14 C14     17.3471  53.4603  22.4958   C.3       1 RES1   0.0000
    15 C15     17.6416  52.7219  23.7821   C.3       1 RES1   0.0000
    16 C16     17.7739  53.6630  24.9758   C.3       1 RES1   0.0000
    17 C17     18.0879  52.9421  26.2241   C.2       1 RES1   0.0000
    18 C18     17.6816  51.6229  26.4120   C.2       1 RES1   0.0000
    19 C19     18.0189  50.9637  27.5765   C.2       1 RES1   0.0000
    20 F20     17.6269  49.6973  27.7678   F         1 RES1   0.0000
    21 C21     18.7503  51.6149  28.5433   C.2       1 RES1   0.0000
    22 F22     19.0473  50.9603  29.6653   F         1 RES1   0.0000
    23 C23     19.1716  52.9308  28.3622   C.2       1 RES1   0.0000
    24 C24     18.8391  53.5947  27.1806   C.2       1 RES1   0.0000
    25 F25     19.2239  54.8622  26.9684   F         1 RES1   0.0000
    26 C26     16.5120  54.5361  25.0861   C.3       1 RES1   0.0000
    27 N27     16.5419  55.4839  26.1774   N.3       1 RES1   1.0000
    28 C28     16.2941  55.2750  23.7633   C.3       1 RES1   0.0000
    29 N29     14.1962  55.1302  21.6109   N.2       1 RES1   0.0000
    30 C30     13.5097  55.5649  20.5354   C.2       1 RES1   0.0000
    31 N31     14.1189  55.5906  19.3409   N.2       1 RES1   0.0000
    32 C32     15.4481  56.3400  17.1156   C.2       1 RES1   0.0000
@<TRIPOS>BOND
     1     1     2    1
     2     2     3    2
     3     2     4    2
     4     2     5    1
     5     5     6    2
     6     6     7    1
     7     7     8    2
     8     8     9    1
     9     9    10    1
    10    10    11    2
    11    11    12    1
    12    12    13    1
    13    13    14    1
    14    14    15    1
    15    16    15    1
    16    16    17    1
    17    17    18    2
    18    18    19    1
    19    19    20    1
    20    19    21    2
    21    21    22    1
    22    21    23    1
    23    23    24    2
    24    24    25    1
    25    16    26    1
    26    26    27    1
    27    26    28    1
    28    12    29    2
    29    29    30    1
    30    30    31    2
    31     9    32    2
    32    32     5    1
    33    31    10    1
    34    28    13    1
    35    24    17    1
@<TRIPOS>SUBSTRUCTURE
     1 RES1        1 GROUP             0 ****  ****    0  
@<TRIPOS>MOLECULE
ligand_53
    32    35     1     0     0
SMALL
USER_CHARGES
****
Generated from the CSD

@<TRIPOS>ATOM
     1 C1      14.1530  53.3724  13.9618   C.3       1 RES1   0.0000
     2 S2      14.1276  54.9722  14.4675   S.o2      1 RES1   0.0000
     3 O3      14.3208  55.8520  13.3295   O.2       1 RES1   0.0000
     4 O4      12.8667  55.2465  15.1254   O.2       1 RES1   0.0000
     5 C5      15.3270  55.1885  15.5160   C.2       1 RES1   0.0000
     6 C6      16.6642  55.4466  15.1625   C.2       1 RES1   0.0000
     7 C7      17.6394  55.6226  16.1605   C.2       1 RES1   0.0000
     8 C8      17.2883  55.5392  17.5191   C.2       1 RES1   0.0000
     9 C9      15.9537  55.2747  17.8418   C.2       1 RES1   0.0000
    10 C10     15.4119  55.1883  19.1986   C.2       1 RES1   0.0000
    11 C11     16.1559  54.7419  20.2776   C.2       1 RES1   0.0000
    12 C12     15.5011  54.7244  21.5135   C.2       1 RES1   0.0000
    13 N13     16.1402  54.2904  22.6717   N.3       1 RES1   0.0000
    14 C14     17.3471  53.4603  22.4958   C.3       1 RES1   0.0000
    15 C15     17.6416  52.7219  23.7821   C.3       1 RES1   0.0000
    16 C16     17.7739  53.6630  24.9758   C.3       1 RES1   0.0000
    17 C17     18.0879  52.9421  26.2241   C.2       1 RES1   0.0000
    18 C18     17.6816  51.6229  26.4120   C.2       1 RES1   0.0000
    19 C19     18.0190  50.9637  27.5765   C.2       1 RES1   0.0000
    20 F20     17.6270  49.6972  27.7678   F         1 RES1   0.0000
    21 C21     18.7503  51.6149  28.5433   C.2       1 RES1   0.0000
    22 F22     19.0473  50.9603  29.6653   F         1 RES1   0.0000
    23 C23     19.1716  52.9308  28.3623   C.2       1 RES1   0.0000
    24 C24     18.8391  53.5947  27.1807   C.2       1 RES1   0.0000
    25 F25     19.2238  54.8622  26.9684   F         1 RES1   0.0000
    26 C26     16.5120  54.5361  25.0861   C.3       1 RES1   0.0000
    27 N27     16.5420  55.4840  26.1774   N.3       1 RES1   1.0000
    28 C28     16.2941  55.2750  23.7632   C.3       1 RES1   0.0000
    29 N29     14.1962  55.1302  21.6109   N.2       1 RES1   0.0000
    30 C30     13.5097  55.5649  20.5354   C.2       1 RES1   0.0000
    31 N31     14.1189  55.5906  19.3409   N.2       1 RES1   0.0000
    32 C32     14.9950  55.1089  16.8563   C.2       1 RES1   0.0000
@<TRIPOS>BOND
     1     1     2    1
     2     2     3    2
     3     2     4    2
     4     2     5    1
     5     5     6    2
     6     6     7    1
     7     7     8    2
     8     8     9    1
     9     9    10    1
    10    10    11    2
    11    11    12    1
    12    12    13    1
    13    13    14    1
    14    14    15    1
    15    16    15    1
    16    16    17    1
    17    17    18    2
    18    18    19    1
    19    19    20    1
    20    19    21    2
    21    21    22    1
    22    21    23    1
    23    23    24    2
    24    24    25    1
    25    16    26    1
    26    26    27    1
    27    26    28    1
    28    12    29    2
    29    29    30    1
    30    30    31    2
    31     9    32    2
    32    32     5    1
    33    31    10    1
    34    28    13    1
    35    24    17    1
@<TRIPOS>SUBSTRUCTURE
     1 RES1        1 GROUP             0 ****  ****    0  
@<TRIPOS>MOLECULE
ligand_54
    32    35     1     0     0
SMALL
USER_CHARGES
****
Generated from the CSD

@<TRIPOS>ATOM
     1 C1       8.9072  56.5165  18.4796   C.3       1 RES1   0.0000
     2 S2      10.0619  57.5271  17.8005   S.o2      1 RES1   0.0000
     3 O3      10.7499  56.8368  16.7251   O.2       1 RES1   0.0000
     4 O4       9.4189  58.7307  17.3150   O.2       1 RES1   0.0000
     5 C5      11.1222  57.9204  18.9433   C.2       1 RES1   0.0000
     6 C6      11.0969  59.1172  19.6828   C.2       1 RES1   0.0000
     7 C7      12.0734  59.3639  20.6645   C.2       1 RES1   0.0000
     8 C8      13.0845  58.4197  20.9136   C.2       1 RES1   0.0000
     9 C9      13.0898  57.2424  20.1592   C.2       1 RES1   0.0000
    10 C10     14.0450  56.1440  20.3108   C.2       1 RES1   0.0000
    11 C11     14.6116  55.8038  21.5275   C.2       1 RES1   0.0000
    12 C12     15.5011  54.7244  21.5135   C.2       1 RES1   0.0000
    13 N13     16.1402  54.2904  22.6717   N.3       1 RES1   0.0000
    14 C14     17.3122  53.4115  22.4968   C.3       1 RES1   0.0000
    15 C15     17.5974  52.6892  23.7942   C.3       1 RES1   0.0000
    16 C16     17.7826  53.6490  24.9658   C.3       1 RES1   0.0000
    17 C17     18.0872  52.9426  26.2247   C.2       1 RES1   0.0000
    18 C18     17.6344  51.6439  26.4460   C.2       1 RES1   0.0000
    19 C19     17.9636  50.9965  27.6194   C.2       1 RES1   0.0000
    20 F20     17.5271  49.7500  27.8428   F         1 RES1   0.0000
    21 C21     18.7328  51.6393  28.5621   C.2       1 RES1   0.0000
    22 F22     19.0212  50.9972  29.6935   F         1 RES1   0.0000
    23 C23     19.2006  52.9343  28.3475   C.2       1 RES1   0.0000
    24 C24     18.8763  53.5859  27.1568   C.2       1 RES1   0.0000
    25 F25     19.3053  54.8332  26.9125   F         1 RES1   0.0000
    26 C26     16.5562  54.5716  25.0750   C.3       1 RES1   0.0000
    27 N27     16.6379  55.5399  26.1454   N.3       1 RES1   1.0000
    28 C28     16.3471  55.2907  23.7399   C.3       1 RES1   0.0000
    29 N29     15.7738  54.0678  20.3424   N.2       1 RES1   0.0000
    30 C30     15.1944  54.4274  19.1797   C.2       1 RES1   0.0000
    31 N31     14.3377  55.4591  19.1709   N.2       1 RES1   0.0000
    32 C32     12.1224  56.9999  19.1983   C.2       1 RES1   0.0000
@<TRIPOS>BOND
     1     1     2    1
     2     2     3    2
     3     2     4    2
     4     2     5    1
     5     5     6    2
     6     6     7    1
     7     7     8    2
     8     8     9    1
     9     9    10    1
    10    10    11    2
    11    11    12    1
    12    12    13    1
    13    13    14    1
    14    14    15    1
    15    16    15    1
    16    16    17    1
    17    17    18    2
    18    18    19    1
    19    19    20    1
    20    19    21    2
    21    21    22    1
    22    21    23    1
    23    23    24    2
    24    24    25    1
    25    16    26    1
    26    26    27    1
    27    26    28    1
    28    12    29    2
    29    29    30    1
    30    30    31    2
    31     9    32    2
    32    32     5    1
    33    31    10    1
    34    28    13    1
    35    24    17    1
@<TRIPOS>SUBSTRUCTURE
     1 RES1        1 GROUP             0 ****  ****    0  
@<TRIPOS>MOLECULE
ligand_55
    32    35     1     0     0
SMALL
USER_CHARGES
****
Generated from the CSD

@<TRIPOS>ATOM
     1 C1      11.5686  58.4945  16.0410   C.3       1 RES1   0.0000
     2 S2      12.4184  59.4799  17.1006   S.o2      1 RES1   0.0000
     3 O3      13.8212  59.5085  16.7296   O.2       1 RES1   0.0000
     4 O4      11.8496  60.8116  17.0767   O.2       1 RES1   0.0000
     5 C5      12.2728  58.8712  18.5815   C.2       1 RES1   0.0000
     6 C6      11.3504  59.3186  19.5452   C.2       1 RES1   0.0000
     7 C7      11.3033  58.7149  20.8146   C.2       1 RES1   0.0000
     8 C8      12.1786  57.6622  21.1333   C.2       1 RES1   0.0000
     9 C9      13.0898  57.2424  20.1592   C.2       1 RES1   0.0000
    10 C10     14.0450  56.1440  20.3108   C.2       1 RES1   0.0000
    11 C11     14.6116  55.8038  21.5275   C.2       1 RES1   0.0000
    12 C12     15.5011  54.7244  21.5135   C.2       1 RES1   0.0000
    13 N13     16.1402  54.2904  22.6717   N.3       1 RES1   0.0000
    14 C14     17.3124  53.4117  22.4968   C.3       1 RES1   0.0000
    15 C15     17.5976  52.6893  23.7942   C.3       1 RES1   0.0000
    16 C16     17.7825  53.6491  24.9659   C.3       1 RES1   0.0000
    17 C17     18.0872  52.9426  26.2247   C.2       1 RES1   0.0000
    18 C18     17.6347  51.6437  26.4458   C.2       1 RES1   0.0000
    19 C19     17.9640  50.9963  27.6192   C.2       1 RES1   0.0000
    20 F20     17.5278  49.7497  27.8424   F         1 RES1   0.0000
    21 C21     18.7329  51.6392  28.5620   C.2       1 RES1   0.0000
    22 F22     19.0213  50.9971  29.6933   F         1 RES1   0.0000
    23 C23     19.2004  52.9344  28.3476   C.2       1 RES1   0.0000
    24 C24     18.8760  53.5860  27.1570   C.2       1 RES1   0.0000
    25 F25     19.3046  54.8334  26.9129   F         1 RES1   0.0000
    26 C26     16.5561  54.5715  25.0750   C.3       1 RES1   0.0000
    27 N27     16.6375  55.5397  26.1455   N.3       1 RES1   1.0000
    28 C28     16.3469  55.2907  23.7400   C.3       1 RES1   0.0000
    29 N29     15.7738  54.0678  20.3424   N.2       1 RES1   0.0000
    30 C30     15.1944  54.4274  19.1797   C.2       1 RES1   0.0000
    31 N31     14.3377  55.4591  19.1709   N.2       1 RES1   0.0000
    32 C32     13.1283  57.8347  18.9079   C.2       1 RES1   0.0000
@<TRIPOS>BOND
     1     1     2    1
     2     2     3    2
     3     2     4    2
     4     2     5    1
     5     5     6    2
     6     6     7    1
     7     7     8    2
     8     8     9    1
     9     9    10    1
    10    10    11    2
    11    11    12    1
    12    12    13    1
    13    13    14    1
    14    14    15    1
    15    16    15    1
    16    16    17    1
    17    17    18    2
    18    18    19    1
    19    19    20    1
    20    19    21    2
    21    21    22    1
    22    21    23    1
    23    23    24    2
    24    24    25    1
    25    16    26    1
    26    26    27    1
    27    26    28    1
    28    12    29    2
    29    29    30    1
    30    30    31    2
    31     9    32    2
    32    32     5    1
    33    31    10    1
    34    28    13    1
    35    24    17    1
@<TRIPOS>SUBSTRUCTURE
     1 RES1        1 GROUP             0 ****  ****    0  
@<TRIPOS>MOLECULE
ligand_56
    32    35     1     0     0
SMALL
USER_CHARGES
****
Generated from the CSD

@<TRIPOS>ATOM
     1 C1       9.1261  57.8827  22.5667   C.3       1 RES1   0.0000
     2 S2      10.5986  58.6727  22.7206   S.o2      1 RES1   0.0000
     3 O3      10.3764  60.0844  22.9736   O.2       1 RES1   0.0000
     4 O4      11.3568  58.0673  23.7959   O.2       1 RES1   0.0000
     5 C5      11.4090  58.5010  21.3427   C.2       1 RES1   0.0000
     6 C6      11.2318  59.3062  20.2026   C.2       1 RES1   0.0000
     7 C7      11.9953  59.0725  19.0448   C.2       1 RES1   0.0000
     8 C8      12.9393  58.0315  19.0147   C.2       1 RES1   0.0000
     9 C9      13.0898  57.2424  20.1592   C.2       1 RES1   0.0000
    10 C10     14.0450  56.1440  20.3108   C.2       1 RES1   0.0000
    11 C11     14.6116  55.8038  21.5275   C.2       1 RES1   0.0000
    12 C12     15.5011  54.7244  21.5135   C.2       1 RES1   0.0000
    13 N13     16.1402  54.2904  22.6717   N.3       1 RES1   0.0000
    14 C14     17.3121  53.4114  22.4968   C.3       1 RES1   0.0000
    15 C15     17.5972  52.6891  23.7943   C.3       1 RES1   0.0000
    16 C16     17.7826  53.6490  24.9658   C.3       1 RES1   0.0000
    17 C17     18.0872  52.9426  26.2247   C.2       1 RES1   0.0000
    18 C18     17.6342  51.6440  26.4461   C.2       1 RES1   0.0000
    19 C19     17.9634  50.9967  27.6196   C.2       1 RES1   0.0000
    20 F20     17.5267  49.7502  27.8431   F         1 RES1   0.0000
    21 C21     18.7328  51.6394  28.5622   C.2       1 RES1   0.0000
    22 F22     19.0211  50.9973  29.6935   F         1 RES1   0.0000
    23 C23     19.2007  52.9343  28.3474   C.2       1 RES1   0.0000
    24 C24     18.8764  53.5858  27.1567   C.2       1 RES1   0.0000
    25 F25     19.3056  54.8331  26.9123   F         1 RES1   0.0000
    26 C26     16.5564  54.5717  25.0749   C.3       1 RES1   0.0000
    27 N27     16.6382  55.5401  26.1453   N.3       1 RES1   1.0000
    28 C28     16.3473  55.2908  23.7398   C.3       1 RES1   0.0000
    29 N29     15.7738  54.0678  20.3424   N.2       1 RES1   0.0000
    30 C30     15.1944  54.4274  19.1797   C.2       1 RES1   0.0000
    31 N31     14.3377  55.4591  19.1709   N.2       1 RES1   0.0000
    32 C32     12.3411  57.4800  21.2998   C.2       1 RES1   0.0000
@<TRIPOS>BOND
     1     1     2    1
     2     2     3    2
     3     2     4    2
     4     2     5    1
     5     5     6    2
     6     6     7    1
     7     7     8    2
     8     8     9    1
     9     9    10    1
    10    10    11    2
    11    11    12    1
    12    12    13    1
    13    13    14    1
    14    14    15    1
    15    16    15    1
    16    16    17    1
    17    17    18    2
    18    18    19    1
    19    19    20    1
    20    19    21    2
    21    21    22    1
    22    21    23    1
    23    23    24    2
    24    24    25    1
    25    16    26    1
    26    26    27    1
    27    26    28    1
    28    12    29    2
    29    29    30    1
    30    30    31    2
    31     9    32    2
    32    32     5    1
    33    31    10    1
    34    28    13    1
    35    24    17    1
@<TRIPOS>SUBSTRUCTURE
     1 RES1        1 GROUP             0 ****  ****    0  
@<TRIPOS>MOLECULE
ligand_57
    32    35     1     0     0
SMALL
USER_CHARGES
****
Generated from the CSD

@<TRIPOS>ATOM
     1 C1      11.9424  60.4422  23.3776   C.3       1 RES1   0.0000
     2 S2      12.9275  60.6027  22.0286   S.o2      1 RES1   0.0000
     3 O3      12.7068  61.8959  21.4081   O.2       1 RES1   0.0000
     4 O4      14.3119  60.4487  22.4256   O.2       1 RES1   0.0000
     5 C5      12.5462  59.4406  20.9850   C.2       1 RES1   0.0000
     6 C6      11.4823  59.5053  20.0665   C.2       1 RES1   0.0000
     7 C7      11.2343  58.4311  19.1932   C.2       1 RES1   0.0000
     8 C8      12.0440  57.2828  19.2319   C.2       1 RES1   0.0000
     9 C9      13.0898  57.2424  20.1592   C.2       1 RES1   0.0000
    10 C10     14.0450  56.1440  20.3108   C.2       1 RES1   0.0000
    11 C11     14.6116  55.8038  21.5275   C.2       1 RES1   0.0000
    12 C12     15.5011  54.7244  21.5135   C.2       1 RES1   0.0000
    13 N13     16.1402  54.2904  22.6717   N.3       1 RES1   0.0000
    14 C14     17.3121  53.4113  22.4968   C.3       1 RES1   0.0000
    15 C15     17.5972  52.6890  23.7943   C.3       1 RES1   0.0000
    16 C16     17.7826  53.6490  24.9658   C.3       1 RES1   0.0000
    17 C17     18.0872  52.9426  26.2247   C.2       1 RES1   0.0000
    18 C18     17.6345  51.6439  26.4460   C.2       1 RES1   0.0000
    19 C19     17.9636  50.9966  27.6195   C.2       1 RES1   0.0000
    20 F20     17.5272  49.7501  27.8429   F         1 RES1   0.0000
    21 C21     18.7328  51.6395  28.5622   C.2       1 RES1   0.0000
    22 F22     19.0211  50.9974  29.6936   F         1 RES1   0.0000
    23 C23     19.2005  52.9344  28.3476   C.2       1 RES1   0.0000
    24 C24     18.8761  53.5859  27.1568   C.2       1 RES1   0.0000
    25 F25     19.3051  54.8333  26.9126   F         1 RES1   0.0000
    26 C26     16.5564  54.5718  25.0749   C.3       1 RES1   0.0000
    27 N27     16.6383  55.5402  26.1453   N.3       1 RES1   1.0000
    28 C28     16.3473  55.2908  23.7398   C.3       1 RES1   0.0000
    29 N29     15.7738  54.0678  20.3424   N.2       1 RES1   0.0000
    30 C30     15.1944  54.4274  19.1797   C.2       1 RES1   0.0000
    31 N31     14.3377  55.4591  19.1709   N.2       1 RES1   0.0000
    32 C32     13.3352  58.3050  21.0128   C.2       1 RES1   0.0000
@<TRIPOS>BOND
     1     1     2    1
     2     2     3    2
     3     2     4    2
     4     2     5    1
     5     5     6    2
     6     6     7    1
     7     7     8    2
     8     8     9    1
     9     9    10    1
    10    10    11    2
    11    11    12    1
    12    12    13    1
    13    13    14    1
    14    14    15    1
    15    16    15    1
    16    16    17    1
    17    17    18    2
    18    18    19    1
    19    19    20    1
    20    19    21    2
    21    21    22    1
    22    21    23    1
    23    23    24    2
    24    24    25    1
    25    16    26    1
    26    26    27    1
    27    26    28    1
    28    12    29    2
    29    29    30    1
    30    30    31    2
    31     9    32    2
    32    32     5    1
    33    31    10    1
    34    28    13    1
    35    24    17    1
@<TRIPOS>SUBSTRUCTURE
     1 RES1        1 GROUP             0 ****  ****    0  
@<TRIPOS>MOLECULE
ligand_58
    32    35     1     0     0
SMALL
USER_CHARGES
****
Generated from the CSD

@<TRIPOS>ATOM
     1 C1      10.5404  58.2553  16.3662   C.3       1 RES1   0.0000
     2 S2      10.0621  57.5272  17.8004   S.o2      1 RES1   0.0000
     3 O3       8.7462  58.0063  18.1814   O.2       1 RES1   0.0000
     4 O4      10.0597  56.0889  17.6297   O.2       1 RES1   0.0000
     5 C5      11.1222  57.9204  18.9433   C.2       1 RES1   0.0000
     6 C6      11.0969  59.1172  19.6828   C.2       1 RES1   0.0000
     7 C7      12.0733  59.3639  20.6645   C.2       1 RES1   0.0000
     8 C8      13.0844  58.4197  20.9136   C.2       1 RES1   0.0000
     9 C9      13.0898  57.2424  20.1592   C.2       1 RES1   0.0000
    10 C10     14.0450  56.1440  20.3108   C.2       1 RES1   0.0000
    11 C11     14.6116  55.8038  21.5275   C.2       1 RES1   0.0000
    12 C12     15.5011  54.7244  21.5135   C.2       1 RES1   0.0000
    13 N13     16.1402  54.2904  22.6717   N.3       1 RES1   0.0000
    14 C14     17.3126  53.4120  22.4968   C.3       1 RES1   0.0000
    15 C15     17.5978  52.6895  23.7941   C.3       1 RES1   0.0000
    16 C16     17.7825  53.6492  24.9659   C.3       1 RES1   0.0000
    17 C17     18.0872  52.9426  26.2247   C.2       1 RES1   0.0000
    18 C18     17.6348  51.6437  26.4456   C.2       1 RES1   0.0000
    19 C19     17.9641  50.9962  27.6190   C.2       1 RES1   0.0000
    20 F20     17.5281  49.7495  27.8420   F         1 RES1   0.0000
    21 C21     18.7330  51.6391  28.5619   C.2       1 RES1   0.0000
    22 F22     19.0215  50.9968  29.6932   F         1 RES1   0.0000
    23 C23     19.2004  52.9342  28.3476   C.2       1 RES1   0.0000
    24 C24     18.8759  53.5859  27.1570   C.2       1 RES1   0.0000
    25 F25     19.3045  54.8335  26.9131   F         1 RES1   0.0000
    26 C26     16.5558  54.5712  25.0751   C.3       1 RES1   0.0000
    27 N27     16.6369  55.5394  26.1458   N.3       1 RES1   1.0000
    28 C28     16.3465  55.2906  23.7402   C.3       1 RES1   0.0000
    29 N29     15.7738  54.0678  20.3424   N.2       1 RES1   0.0000
    30 C30     15.1944  54.4274  19.1797   C.2       1 RES1   0.0000
    31 N31     14.3377  55.4591  19.1709   N.2       1 RES1   0.0000
    32 C32     12.1225  56.9999  19.1982   C.2       1 RES1   0.0000
@<TRIPOS>BOND
     1     1     2    1
     2     2     3    2
     3     2     4    2
     4     2     5    1
     5     5     6    2
     6     6     7    1
     7     7     8    2
     8     8     9    1
     9     9    10    1
    10    10    11    2
    11    11    12    1
    12    12    13    1
    13    13    14    1
    14    14    15    1
    15    16    15    1
    16    16    17    1
    17    17    18    2
    18    18    19    1
    19    19    20    1
    20    19    21    2
    21    21    22    1
    22    21    23    1
    23    23    24    2
    24    24    25    1
    25    16    26    1
    26    26    27    1
    27    26    28    1
    28    12    29    2
    29    29    30    1
    30    30    31    2
    31     9    32    2
    32    32     5    1
    33    31    10    1
    34    28    13    1
    35    24    17    1
@<TRIPOS>SUBSTRUCTURE
     1 RES1        1 GROUP             0 ****  ****    0  
@<TRIPOS>MOLECULE
ligand_59
    32    35     1     0     0
SMALL
USER_CHARGES
****
Generated from the CSD

@<TRIPOS>ATOM
     1 C1      13.3889  60.8459  17.1863   C.3       1 RES1   0.0000
     2 S2      12.4183  59.4798  17.1005   S.o2      1 RES1   0.0000
     3 O3      11.1048  59.8390  16.5984   O.2       1 RES1   0.0000
     4 O4      13.0490  58.4973  16.2434   O.2       1 RES1   0.0000
     5 C5      12.2727  58.8711  18.5815   C.2       1 RES1   0.0000
     6 C6      11.3504  59.3186  19.5452   C.2       1 RES1   0.0000
     7 C7      11.3034  58.7150  20.8146   C.2       1 RES1   0.0000
     8 C8      12.1786  57.6623  21.1333   C.2       1 RES1   0.0000
     9 C9      13.0898  57.2424  20.1592   C.2       1 RES1   0.0000
    10 C10     14.0450  56.1440  20.3108   C.2       1 RES1   0.0000
    11 C11     14.6116  55.8038  21.5275   C.2       1 RES1   0.0000
    12 C12     15.5011  54.7244  21.5135   C.2       1 RES1   0.0000
    13 N13     16.1402  54.2904  22.6717   N.3       1 RES1   0.0000
    14 C14     17.3127  53.4122  22.4968   C.3       1 RES1   0.0000
    15 C15     17.5980  52.6896  23.7940   C.3       1 RES1   0.0000
    16 C16     17.7824  53.6492  24.9660   C.3       1 RES1   0.0000
    17 C17     18.0872  52.9426  26.2246   C.2       1 RES1   0.0000
    18 C18     17.6351  51.6436  26.4455   C.2       1 RES1   0.0000
    19 C19     17.9644  50.9960  27.6188   C.2       1 RES1   0.0000
    20 F20     17.5286  49.7492  27.8417   F         1 RES1   0.0000
    21 C21     18.7331  51.6390  28.5619   C.2       1 RES1   0.0000
    22 F22     19.0216  50.9967  29.6931   F         1 RES1   0.0000
    23 C23     19.2001  52.9343  28.3477   C.2       1 RES1   0.0000
    24 C24     18.8757  53.5860  27.1572   C.2       1 RES1   0.0000
    25 F25     19.3040  54.8337  26.9134   F         1 RES1   0.0000
    26 C26     16.5556  54.5711  25.0751   C.3       1 RES1   0.0000
    27 N27     16.6366  55.5392  26.1459   N.3       1 RES1   1.0000
    28 C28     16.3464  55.2905  23.7402   C.3       1 RES1   0.0000
    29 N29     15.7738  54.0678  20.3424   N.2       1 RES1   0.0000
    30 C30     15.1944  54.4274  19.1797   C.2       1 RES1   0.0000
    31 N31     14.3377  55.4591  19.1709   N.2       1 RES1   0.0000
    32 C32     13.1283  57.8346  18.9079   C.2       1 RES1   0.0000
@<TRIPOS>BOND
     1     1     2    1
     2     2     3    2
     3     2     4    2
     4     2     5    1
     5     5     6    2
     6     6     7    1
     7     7     8    2
     8     8     9    1
     9     9    10    1
    10    10    11    2
    11    11    12    1
    12    12    13    1
    13    13    14    1
    14    14    15    1
    15    16    15    1
    16    16    17    1
    17    17    18    2
    18    18    19    1
    19    19    20    1
    20    19    21    2
    21    21    22    1
    22    21    23    1
    23    23    24    2
    24    24    25    1
    25    16    26    1
    26    26    27    1
    27    26    28    1
    28    12    29    2
    29    29    30    1
    30    30    31    2
    31     9    32    2
    32    32     5    1
    33    31    10    1
    34    28    13    1
    35    24    17    1
@<TRIPOS>SUBSTRUCTURE
     1 RES1        1 GROUP             0 ****  ****    0  
@<TRIPOS>MOLECULE
ligand_60
    32    35     1     0     0
SMALL
USER_CHARGES
****
Generated from the CSD

@<TRIPOS>ATOM
     1 C1       9.7999  56.3191  20.5871   C.3       1 RES1   0.0000
     2 S2       9.9595  54.6575  20.4156   S.o2      1 RES1   0.0000
     3 O3      10.4267  54.0760  21.6605   O.2       1 RES1   0.0000
     4 O4       8.6843  54.0916  20.0266   O.2       1 RES1   0.0000
     5 C5      11.0380  54.3715  19.2580   C.2       1 RES1   0.0000
     6 C6      10.7185  54.0707  17.9211   C.2       1 RES1   0.0000
     7 C7      11.7409  53.8382  16.9837   C.2       1 RES1   0.0000
     8 C8      13.0899  53.9009  17.3738   C.2       1 RES1   0.0000
     9 C9      13.3785  54.1948  18.7101   C.2       1 RES1   0.0000
    10 C10     14.7213  54.3315  19.2759   C.2       1 RES1   0.0000
    11 C11     15.0229  53.9936  20.5844   C.2       1 RES1   0.0000
    12 C12     16.3537  54.1723  20.9766   C.2       1 RES1   0.0000
    13 N13     16.7800  53.8749  22.2680   N.3       1 RES1   0.0000
    14 C14     18.2362  53.8717  22.5050   C.3       1 RES1   0.0000
    15 C15     18.5369  53.1141  23.7786   C.3       1 RES1   0.0000
    16 C16     17.7720  53.6660  24.9780   C.3       1 RES1   0.0000
    17 C17     18.0880  52.9420  26.2240   C.2       1 RES1   0.0000
    18 C18     17.7026  51.6149  26.3998   C.2       1 RES1   0.0000
    19 C19     18.0417  50.9536  27.5626   C.2       1 RES1   0.0000
    20 F20     17.6698  49.6794  27.7423   F         1 RES1   0.0000
    21 C21     18.7541  51.6105  28.5397   C.2       1 RES1   0.0000
    22 F22     19.0531  50.9534  29.6596   F         1 RES1   0.0000
    23 C23     19.1545  52.9345  28.3708   C.2       1 RES1   0.0000
    24 C24     18.8203  53.6007  27.1910   C.2       1 RES1   0.0000
    25 F25     19.1852  54.8759  26.9904   F         1 RES1   0.0000
    26 C26     16.2666  53.6913  24.6619   C.3       1 RES1   0.0000
    27 N27     15.4468  54.2196  25.7291   N.3       1 RES1   1.0000
    28 C28     16.0347  54.4981  23.3818   C.3       1 RES1   0.0000
    29 N29     17.2769  54.6595  20.0892   N.2       1 RES1   0.0000
    30 C30     16.9423  54.9696  18.8209   C.2       1 RES1   0.0000
    31 N31     15.6719  54.8050  18.4239   N.2       1 RES1   0.0000
    32 C32     12.3691  54.4301  19.6286   C.2       1 RES1   0.0000
@<TRIPOS>BOND
     1     1     2    1
     2     2     3    2
     3     2     4    2
     4     2     5    1
     5     5     6    2
     6     6     7    1
     7     7     8    2
     8     8     9    1
     9     9    10    1
    10    10    11    2
    11    11    12    1
    12    12    13    1
    13    13    14    1
    14    14    15    1
    15    16    15    1
    16    16    17    1
    17    17    18    2
    18    18    19    1
    19    19    20    1
    20    19    21    2
    21    21    22    1
    22    21    23    1
    23    23    24    2
    24    24    25    1
    25    16    26    1
    26    26    27    1
    27    26    28    1
    28    12    29    2
    29    29    30    1
    30    30    31    2
    31     9    32    2
    32    32     5    1
    33    31    10    1
    34    28    13    1
    35    24    17    1
@<TRIPOS>SUBSTRUCTURE
     1 RES1        1 GROUP             0 ****  ****    0  
@<TRIPOS>MOLECULE
ligand_61
    32    35     1     0     0
SMALL
USER_CHARGES
****
Generated from the CSD

@<TRIPOS>ATOM
     1 C1      12.6241  51.6104  15.0231   C.3       1 RES1   0.0000
     2 S2      12.3307  53.2594  15.1268   S.o2      1 RES1   0.0000
     3 O3      13.4358  53.9946  14.5400   O.2       1 RES1   0.0000
     4 O4      11.0872  53.5679  14.4514   O.2       1 RES1   0.0000
     5 C5      12.1976  53.6508  16.6805   C.2       1 RES1   0.0000
     6 C6      10.9791  53.8019  17.3677   C.2       1 RES1   0.0000
     7 C7      10.9730  54.1458  18.7314   C.2       1 RES1   0.0000
     8 C8      12.1827  54.3446  19.4192   C.2       1 RES1   0.0000
     9 C9      13.3785  54.1948  18.7101   C.2       1 RES1   0.0000
    10 C10     14.7213  54.3315  19.2759   C.2       1 RES1   0.0000
    11 C11     15.0229  53.9936  20.5844   C.2       1 RES1   0.0000
    12 C12     16.3537  54.1723  20.9766   C.2       1 RES1   0.0000
    13 N13     16.7800  53.8749  22.2680   N.3       1 RES1   0.0000
    14 C14     18.2362  53.8717  22.5050   C.3       1 RES1   0.0000
    15 C15     18.5369  53.1141  23.7786   C.3       1 RES1   0.0000
    16 C16     17.7720  53.6660  24.9780   C.3       1 RES1   0.0000
    17 C17     18.0880  52.9420  26.2240   C.2       1 RES1   0.0000
    18 C18     17.7029  51.6148  26.3997   C.2       1 RES1   0.0000
    19 C19     18.0420  50.9535  27.5625   C.2       1 RES1   0.0000
    20 F20     17.6702  49.6792  27.7420   F         1 RES1   0.0000
    21 C21     18.7541  51.6105  28.5397   C.2       1 RES1   0.0000
    22 F22     19.0531  50.9534  29.6596   F         1 RES1   0.0000
    23 C23     19.1542  52.9346  28.3709   C.2       1 RES1   0.0000
    24 C24     18.8201  53.6008  27.1911   C.2       1 RES1   0.0000
    25 F25     19.1848  54.8761  26.9906   F         1 RES1   0.0000
    26 C26     16.2666  53.6913  24.6619   C.3       1 RES1   0.0000
    27 N27     15.4468  54.2196  25.7291   N.3       1 RES1   1.0000
    28 C28     16.0347  54.4981  23.3818   C.3       1 RES1   0.0000
    29 N29     17.2769  54.6595  20.0892   N.2       1 RES1   0.0000
    30 C30     16.9423  54.9696  18.8209   C.2       1 RES1   0.0000
    31 N31     15.6719  54.8050  18.4239   N.2       1 RES1   0.0000
    32 C32     13.3806  53.8493  17.3690   C.2       1 RES1   0.0000
@<TRIPOS>BOND
     1     1     2    1
     2     2     3    2
     3     2     4    2
     4     2     5    1
     5     5     6    2
     6     6     7    1
     7     7     8    2
     8     8     9    1
     9     9    10    1
    10    10    11    2
    11    11    12    1
    12    12    13    1
    13    13    14    1
    14    14    15    1
    15    16    15    1
    16    16    17    1
    17    17    18    2
    18    18    19    1
    19    19    20    1
    20    19    21    2
    21    21    22    1
    22    21    23    1
    23    23    24    2
    24    24    25    1
    25    16    26    1
    26    26    27    1
    27    26    28    1
    28    12    29    2
    29    29    30    1
    30    30    31    2
    31     9    32    2
    32    32     5    1
    33    31    10    1
    34    28    13    1
    35    24    17    1
@<TRIPOS>SUBSTRUCTURE
     1 RES1        1 GROUP             0 ****  ****    0  
@<TRIPOS>MOLECULE
ligand_62
    32    35     1     0     0
SMALL
USER_CHARGES
****
Generated from the CSD

@<TRIPOS>ATOM
     1 C1      12.4326  55.6742  14.4960   C.3       1 RES1   0.0000
     2 S2      11.7018  56.2246  15.9028   S.o2      1 RES1   0.0000
     3 O3      12.3277  57.4617  16.3319   O.2       1 RES1   0.0000
     4 O4      10.2863  56.4167  15.6635   O.2       1 RES1   0.0000
     5 C5      11.8968  55.1074  17.0423   C.2       1 RES1   0.0000
     6 C6      10.9311  54.1479  17.3981   C.2       1 RES1   0.0000
     7 C7      11.2032  53.2109  18.4110   C.2       1 RES1   0.0000
     8 C8      12.4400  53.2261  19.0788   C.2       1 RES1   0.0000
     9 C9      13.3785  54.1948  18.7101   C.2       1 RES1   0.0000
    10 C10     14.7213  54.3315  19.2759   C.2       1 RES1   0.0000
    11 C11     15.0229  53.9936  20.5844   C.2       1 RES1   0.0000
    12 C12     16.3537  54.1723  20.9766   C.2       1 RES1   0.0000
    13 N13     16.7800  53.8749  22.2680   N.3       1 RES1   0.0000
    14 C14     18.2362  53.8717  22.5050   C.3       1 RES1   0.0000
    15 C15     18.5369  53.1141  23.7786   C.3       1 RES1   0.0000
    16 C16     17.7720  53.6660  24.9780   C.3       1 RES1   0.0000
    17 C17     18.0880  52.9420  26.2240   C.2       1 RES1   0.0000
    18 C18     17.7006  51.6156  26.4008   C.2       1 RES1   0.0000
    19 C19     18.0397  50.9543  27.5635   C.2       1 RES1   0.0000
    20 F20     17.6657  49.6808  27.7441   F         1 RES1   0.0000
    21 C21     18.7541  51.6103  28.5396   C.2       1 RES1   0.0000
    22 F22     19.0531  50.9532  29.6595   F         1 RES1   0.0000
    23 C23     19.1566  52.9336  28.3698   C.2       1 RES1   0.0000
    24 C24     18.8224  53.5999  27.1900   C.2       1 RES1   0.0000
    25 F25     19.1893  54.8744  26.9884   F         1 RES1   0.0000
    26 C26     16.2666  53.6913  24.6619   C.3       1 RES1   0.0000
    27 N27     15.4468  54.2196  25.7291   N.3       1 RES1   1.0000
    28 C28     16.0347  54.4981  23.3818   C.3       1 RES1   0.0000
    29 N29     17.2769  54.6595  20.0892   N.2       1 RES1   0.0000
    30 C30     16.9423  54.9696  18.8209   C.2       1 RES1   0.0000
    31 N31     15.6719  54.8050  18.4239   N.2       1 RES1   0.0000
    32 C32     13.1095  55.1114  17.7073   C.2       1 RES1   0.0000
@<TRIPOS>BOND
     1     1     2    1
     2     2     3    2
     3     2     4    2
     4     2     5    1
     5     5     6    2
     6     6     7    1
     7     7     8    2
     8     8     9    1
     9     9    10    1
    10    10    11    2
    11    11    12    1
    12    12    13    1
    13    13    14    1
    14    14    15    1
    15    16    15    1
    16    16    17    1
    17    17    18    2
    18    18    19    1
    19    19    20    1
    20    19    21    2
    21    21    22    1
    22    21    23    1
    23    23    24    2
    24    24    25    1
    25    16    26    1
    26    26    27    1
    27    26    28    1
    28    12    29    2
    29    29    30    1
    30    30    31    2
    31     9    32    2
    32    32     5    1
    33    31    10    1
    34    28    13    1
    35    24    17    1
@<TRIPOS>SUBSTRUCTURE
     1 RES1        1 GROUP             0 ****  ****    0  
@<TRIPOS>MOLECULE
ligand_63
    32    35     1     0     0
SMALL
USER_CHARGES
****
Generated from the CSD

@<TRIPOS>ATOM
     1 C1       9.4345  53.1894  21.0231   C.3       1 RES1   0.0000
     2 S2       9.9595  54.6624  20.4143   S.o2      1 RES1   0.0000
     3 O3       8.8375  55.3919  19.8530   O.2       1 RES1   0.0000
     4 O4      10.5916  55.4207  21.4741   O.2       1 RES1   0.0000
     5 C5      11.0380  54.3740  19.2573   C.2       1 RES1   0.0000
     6 C6      10.7186  54.0713  17.9209   C.2       1 RES1   0.0000
     7 C7      11.7409  53.8366  16.9840   C.2       1 RES1   0.0000
     8 C8      13.0899  53.8990  17.3742   C.2       1 RES1   0.0000
     9 C9      13.3785  54.1948  18.7101   C.2       1 RES1   0.0000
    10 C10     14.7213  54.3315  19.2759   C.2       1 RES1   0.0000
    11 C11     15.0229  53.9936  20.5844   C.2       1 RES1   0.0000
    12 C12     16.3537  54.1723  20.9766   C.2       1 RES1   0.0000
    13 N13     16.7800  53.8749  22.2680   N.3       1 RES1   0.0000
    14 C14     18.2362  53.8717  22.5050   C.3       1 RES1   0.0000
    15 C15     18.5369  53.1141  23.7786   C.3       1 RES1   0.0000
    16 C16     17.7720  53.6660  24.9780   C.3       1 RES1   0.0000
    17 C17     18.0880  52.9420  26.2240   C.2       1 RES1   0.0000
    18 C18     17.7005  51.6156  26.4008   C.2       1 RES1   0.0000
    19 C19     18.0397  50.9543  27.5635   C.2       1 RES1   0.0000
    20 F20     17.6657  49.6808  27.7441   F         1 RES1   0.0000
    21 C21     18.7541  51.6103  28.5396   C.2       1 RES1   0.0000
    22 F22     19.0531  50.9532  29.6595   F         1 RES1   0.0000
    23 C23     19.1566  52.9336  28.3697   C.2       1 RES1   0.0000
    24 C24     18.8224  53.5999  27.1900   C.2       1 RES1   0.0000
    25 F25     19.1893  54.8744  26.9884   F         1 RES1   0.0000
    26 C26     16.2666  53.6913  24.6619   C.3       1 RES1   0.0000
    27 N27     15.4468  54.2196  25.7291   N.3       1 RES1   1.0000
    28 C28     16.0347  54.4981  23.3818   C.3       1 RES1   0.0000
    29 N29     17.2769  54.6595  20.0892   N.2       1 RES1   0.0000
    30 C30     16.9423  54.9696  18.8209   C.2       1 RES1   0.0000
    31 N31     15.6719  54.8050  18.4239   N.2       1 RES1   0.0000
    32 C32     12.3691  54.4322  19.6281   C.2       1 RES1   0.0000
@<TRIPOS>BOND
     1     1     2    1
     2     2     3    2
     3     2     4    2
     4     2     5    1
     5     5     6    2
     6     6     7    1
     7     7     8    2
     8     8     9    1
     9     9    10    1
    10    10    11    2
    11    11    12    1
    12    12    13    1
    13    13    14    1
    14    14    15    1
    15    16    15    1
    16    16    17    1
    17    17    18    2
    18    18    19    1
    19    19    20    1
    20    19    21    2
    21    21    22    1
    22    21    23    1
    23    23    24    2
    24    24    25    1
    25    16    26    1
    26    26    27    1
    27    26    28    1
    28    12    29    2
    29    29    30    1
    30    30    31    2
    31     9    32    2
    32    32     5    1
    33    31    10    1
    34    28    13    1
    35    24    17    1
@<TRIPOS>SUBSTRUCTURE
     1 RES1        1 GROUP             0 ****  ****    0  
@<TRIPOS>MOLECULE
ligand_64
    32    35     1     0     0
SMALL
USER_CHARGES
****
Generated from the CSD

@<TRIPOS>ATOM
     1 C1      20.0442  51.1116  16.0036   C.3       1 RES1   0.0000
     2 S2      20.6331  52.6259  16.4231   S.o2      1 RES1   0.0000
     3 O3      21.1418  52.5979  17.7821   O.2       1 RES1   0.0000
     4 O4      21.6715  53.0113  15.4898   O.2       1 RES1   0.0000
     5 C5      19.4232  53.6806  16.3303   C.2       1 RES1   0.0000
     6 C6      19.1798  54.5271  15.2330   C.2       1 RES1   0.0000
     7 C7      18.0893  55.4150  15.2516   C.2       1 RES1   0.0000
     8 C8      17.2351  55.4675  16.3667   C.2       1 RES1   0.0000
     9 C9      17.5045  54.6203  17.4461   C.2       1 RES1   0.0000
    10 C10     16.7019  54.5219  18.6660   C.2       1 RES1   0.0000
    11 C11     17.2484  54.2224  19.9025   C.2       1 RES1   0.0000
    12 C12     16.3537  54.1723  20.9766   C.2       1 RES1   0.0000
    13 N13     16.7800  53.8749  22.2680   N.3       1 RES1   0.0000
    14 C14     18.2370  53.8055  22.4895   C.3       1 RES1   0.0000
    15 C15     18.5156  53.0543  23.7718   C.3       1 RES1   0.0000
    16 C16     17.7917  53.6608  24.9703   C.3       1 RES1   0.0000
    17 C17     18.0869  52.9419  26.2243   C.2       1 RES1   0.0000
    18 C18     17.6382  51.6387  26.4267   C.2       1 RES1   0.0000
    19 C19     17.9585  50.9800  27.5962   C.2       1 RES1   0.0000
    20 F20     17.5258  49.7291  27.8014   F         1 RES1   0.0000
    21 C21     18.7150  51.6160  28.5538   C.2       1 RES1   0.0000
    22 F22     18.9949  50.9627  29.6809   F         1 RES1   0.0000
    23 C23     19.1787  52.9154  28.3582   C.2       1 RES1   0.0000
    24 C24     18.8633  53.5786  27.1715   C.2       1 RES1   0.0000
    25 F25     19.2888  54.8305  26.9455   F         1 RES1   0.0000
    26 C26     16.2857  53.7534  24.6699   C.3       1 RES1   0.0000
    27 N27     15.5044  54.3370  25.7372   N.3       1 RES1   1.0000
    28 C28     16.0781  54.5504  23.3795   C.3       1 RES1   0.0000
    29 N29     15.0191  54.4086  20.7768   N.2       1 RES1   0.0000
    30 C30     14.5291  54.7042  19.5563   C.2       1 RES1   0.0000
    31 N31     15.3698  54.7582  18.5128   N.2       1 RES1   0.0000
    32 C32     18.5752  53.7423  17.4211   C.2       1 RES1   0.0000
@<TRIPOS>BOND
     1     1     2    1
     2     2     3    2
     3     2     4    2
     4     2     5    1
     5     5     6    2
     6     6     7    1
     7     7     8    2
     8     8     9    1
     9     9    10    1
    10    10    11    2
    11    11    12    1
    12    12    13    1
    13    13    14    1
    14    14    15    1
    15    16    15    1
    16    16    17    1
    17    17    18    2
    18    18    19    1
    19    19    20    1
    20    19    21    2
    21    21    22    1
    22    21    23    1
    23    23    24    2
    24    24    25    1
    25    16    26    1
    26    26    27    1
    27    26    28    1
    28    12    29    2
    29    29    30    1
    30    30    31    2
    31     9    32    2
    32    32     5    1
    33    31    10    1
    34    28    13    1
    35    24    17    1
@<TRIPOS>SUBSTRUCTURE
     1 RES1        1 GROUP             0 ****  ****    0  
@<TRIPOS>MOLECULE
ligand_65
    32    35     1     0     0
SMALL
USER_CHARGES
****
Generated from the CSD

@<TRIPOS>ATOM
     1 C1      12.1556  54.6485  14.2140   C.3       1 RES1   0.0000
     2 S2      12.3306  53.2525  15.1287   S.o2      1 RES1   0.0000
     3 O3      11.2881  52.3035  14.7841   O.2       1 RES1   0.0000
     4 O4      13.6432  52.6873  14.8934   O.2       1 RES1   0.0000
     5 C5      12.1975  53.6474  16.6814   C.2       1 RES1   0.0000
     6 C6      10.9790  53.8012  17.3680   C.2       1 RES1   0.0000
     7 C7      10.9729  54.1480  18.7310   C.2       1 RES1   0.0000
     8 C8      12.1827  54.3472  19.4186   C.2       1 RES1   0.0000
     9 C9      13.3785  54.1948  18.7101   C.2       1 RES1   0.0000
    10 C10     14.7213  54.3315  19.2759   C.2       1 RES1   0.0000
    11 C11     15.0229  53.9936  20.5844   C.2       1 RES1   0.0000
    12 C12     16.3537  54.1723  20.9766   C.2       1 RES1   0.0000
    13 N13     16.7800  53.8749  22.2680   N.3       1 RES1   0.0000
    14 C14     18.2362  53.8717  22.5050   C.3       1 RES1   0.0000
    15 C15     18.5369  53.1141  23.7786   C.3       1 RES1   0.0000
    16 C16     17.7720  53.6660  24.9780   C.3       1 RES1   0.0000
    17 C17     18.0880  52.9420  26.2240   C.2       1 RES1   0.0000
    18 C18     17.7006  51.6156  26.4007   C.2       1 RES1   0.0000
    19 C19     18.0397  50.9542  27.5635   C.2       1 RES1   0.0000
    20 F20     17.6658  49.6808  27.7440   F         1 RES1   0.0000
    21 C21     18.7541  51.6103  28.5396   C.2       1 RES1   0.0000
    22 F22     19.0531  50.9532  29.6595   F         1 RES1   0.0000
    23 C23     19.1565  52.9336  28.3698   C.2       1 RES1   0.0000
    24 C24     18.8224  53.5999  27.1900   C.2       1 RES1   0.0000
    25 F25     19.1892  54.8744  26.9885   F         1 RES1   0.0000
    26 C26     16.2666  53.6913  24.6619   C.3       1 RES1   0.0000
    27 N27     15.4468  54.2196  25.7291   N.3       1 RES1   1.0000
    28 C28     16.0347  54.4981  23.3818   C.3       1 RES1   0.0000
    29 N29     17.2769  54.6595  20.0892   N.2       1 RES1   0.0000
    30 C30     16.9423  54.9696  18.8209   C.2       1 RES1   0.0000
    31 N31     15.6719  54.8050  18.4239   N.2       1 RES1   0.0000
    32 C32     13.3806  53.8463  17.3697   C.2       1 RES1   0.0000
@<TRIPOS>BOND
     1     1     2    1
     2     2     3    2
     3     2     4    2
     4     2     5    1
     5     5     6    2
     6     6     7    1
     7     7     8    2
     8     8     9    1
     9     9    10    1
    10    10    11    2
    11    11    12    1
    12    12    13    1
    13    13    14    1
    14    14    15    1
    15    16    15    1
    16    16    17    1
    17    17    18    2
    18    18    19    1
    19    19    20    1
    20    19    21    2
    21    21    22    1
    22    21    23    1
    23    23    24    2
    24    24    25    1
    25    16    26    1
    26    26    27    1
    27    26    28    1
    28    12    29    2
    29    29    30    1
    30    30    31    2
    31     9    32    2
    32    32     5    1
    33    31    10    1
    34    28    13    1
    35    24    17    1
@<TRIPOS>SUBSTRUCTURE
     1 RES1        1 GROUP             0 ****  ****    0  
@<TRIPOS>MOLECULE
ligand_66
    32    35     1     0     0
SMALL
USER_CHARGES
****
Generated from the CSD

@<TRIPOS>ATOM
     1 C1      10.8696  57.5190  16.5720   C.3       1 RES1   0.0000
     2 S2      11.7018  56.2246  15.9027   S.o2      1 RES1   0.0000
     3 O3      10.9374  55.6617  14.8050   O.2       1 RES1   0.0000
     4 O4      13.0025  56.6738  15.4508   O.2       1 RES1   0.0000
     5 C5      11.8968  55.1074  17.0423   C.2       1 RES1   0.0000
     6 C6      10.9311  54.1479  17.3981   C.2       1 RES1   0.0000
     7 C7      11.2032  53.2109  18.4110   C.2       1 RES1   0.0000
     8 C8      12.4400  53.2261  19.0789   C.2       1 RES1   0.0000
     9 C9      13.3785  54.1948  18.7101   C.2       1 RES1   0.0000
    10 C10     14.7213  54.3315  19.2759   C.2       1 RES1   0.0000
    11 C11     15.0229  53.9936  20.5844   C.2       1 RES1   0.0000
    12 C12     16.3537  54.1723  20.9766   C.2       1 RES1   0.0000
    13 N13     16.7800  53.8749  22.2680   N.3       1 RES1   0.0000
    14 C14     18.2362  53.8717  22.5050   C.3       1 RES1   0.0000
    15 C15     18.5369  53.1141  23.7786   C.3       1 RES1   0.0000
    16 C16     17.7720  53.6660  24.9780   C.3       1 RES1   0.0000
    17 C17     18.0880  52.9420  26.2240   C.2       1 RES1   0.0000
    18 C18     17.7006  51.6156  26.4008   C.2       1 RES1   0.0000
    19 C19     18.0397  50.9543  27.5635   C.2       1 RES1   0.0000
    20 F20     17.6657  49.6808  27.7441   F         1 RES1   0.0000
    21 C21     18.7541  51.6103  28.5396   C.2       1 RES1   0.0000
    22 F22     19.0531  50.9532  29.6595   F         1 RES1   0.0000
    23 C23     19.1566  52.9336  28.3698   C.2       1 RES1   0.0000
    24 C24     18.8224  53.5999  27.1900   C.2       1 RES1   0.0000
    25 F25     19.1893  54.8744  26.9884   F         1 RES1   0.0000
    26 C26     16.2666  53.6913  24.6619   C.3       1 RES1   0.0000
    27 N27     15.4468  54.2196  25.7291   N.3       1 RES1   1.0000
    28 C28     16.0347  54.4981  23.3818   C.3       1 RES1   0.0000
    29 N29     17.2769  54.6595  20.0892   N.2       1 RES1   0.0000
    30 C30     16.9423  54.9696  18.8209   C.2       1 RES1   0.0000
    31 N31     15.6719  54.8050  18.4239   N.2       1 RES1   0.0000
    32 C32     13.1095  55.1114  17.7073   C.2       1 RES1   0.0000
@<TRIPOS>BOND
     1     1     2    1
     2     2     3    2
     3     2     4    2
     4     2     5    1
     5     5     6    2
     6     6     7    1
     7     7     8    2
     8     8     9    1
     9     9    10    1
    10    10    11    2
    11    11    12    1
    12    12    13    1
    13    13    14    1
    14    14    15    1
    15    16    15    1
    16    16    17    1
    17    17    18    2
    18    18    19    1
    19    19    20    1
    20    19    21    2
    21    21    22    1
    22    21    23    1
    23    23    24    2
    24    24    25    1
    25    16    26    1
    26    26    27    1
    27    26    28    1
    28    12    29    2
    29    29    30    1
    30    30    31    2
    31     9    32    2
    32    32     5    1
    33    31    10    1
    34    28    13    1
    35    24    17    1
@<TRIPOS>SUBSTRUCTURE
     1 RES1        1 GROUP             0 ****  ****    0  
@<TRIPOS>MOLECULE
ligand_67
    32    35     1     0     0
SMALL
USER_CHARGES
****
Generated from the CSD

@<TRIPOS>ATOM
     1 C1      17.5746  58.4561  14.9714   C.3       1 RES1   0.0000
     2 S2      17.0585  56.9573  14.4208   S.o2      1 RES1   0.0000
     3 O3      15.6109  56.8789  14.4888   O.2       1 RES1   0.0000
     4 O4      17.5243  56.7592  13.0638   O.2       1 RES1   0.0000
     5 C5      17.6968  55.8254  15.3676   C.2       1 RES1   0.0000
     6 C6      18.8546  55.0857  15.0641   C.2       1 RES1   0.0000
     7 C7      19.3322  54.1166  15.9645   C.2       1 RES1   0.0000
     8 C8      18.6563  53.8759  17.1733   C.2       1 RES1   0.0000
     9 C9      17.5045  54.6203  17.4461   C.2       1 RES1   0.0000
    10 C10     16.7019  54.5219  18.6660   C.2       1 RES1   0.0000
    11 C11     17.2484  54.2224  19.9025   C.2       1 RES1   0.0000
    12 C12     16.3537  54.1723  20.9766   C.2       1 RES1   0.0000
    13 N13     16.7800  53.8749  22.2680   N.3       1 RES1   0.0000
    14 C14     18.2370  53.8060  22.4896   C.3       1 RES1   0.0000
    15 C15     18.5158  53.0547  23.7719   C.3       1 RES1   0.0000
    16 C16     17.7916  53.6608  24.9703   C.3       1 RES1   0.0000
    17 C17     18.0870  52.9419  26.2243   C.2       1 RES1   0.0000
    18 C18     17.6385  51.6386  26.4266   C.2       1 RES1   0.0000
    19 C19     17.9590  50.9798  27.5960   C.2       1 RES1   0.0000
    20 F20     17.5266  49.7288  27.8011   F         1 RES1   0.0000
    21 C21     18.7153  51.6159  28.5537   C.2       1 RES1   0.0000
    22 F22     18.9954  50.9626  29.6807   F         1 RES1   0.0000
    23 C23     19.1787  52.9155  28.3583   C.2       1 RES1   0.0000
    24 C24     18.8631  53.5787  27.1716   C.2       1 RES1   0.0000
    25 F25     19.2883  54.8308  26.9457   F         1 RES1   0.0000
    26 C26     16.2856  53.7529  24.6698   C.3       1 RES1   0.0000
    27 N27     15.5039  54.3361  25.7371   N.3       1 RES1   1.0000
    28 C28     16.0777  54.5501  23.3796   C.3       1 RES1   0.0000
    29 N29     15.0191  54.4086  20.7768   N.2       1 RES1   0.0000
    30 C30     14.5291  54.7042  19.5563   C.2       1 RES1   0.0000
    31 N31     15.3698  54.7582  18.5128   N.2       1 RES1   0.0000
    32 C32     17.0413  55.5787  16.5601   C.2       1 RES1   0.0000
@<TRIPOS>BOND
     1     1     2    1
     2     2     3    2
     3     2     4    2
     4     2     5    1
     5     5     6    2
     6     6     7    1
     7     7     8    2
     8     8     9    1
     9     9    10    1
    10    10    11    2
    11    11    12    1
    12    12    13    1
    13    13    14    1
    14    14    15    1
    15    16    15    1
    16    16    17    1
    17    17    18    2
    18    18    19    1
    19    19    20    1
    20    19    21    2
    21    21    22    1
    22    21    23    1
    23    23    24    2
    24    24    25    1
    25    16    26    1
    26    26    27    1
    27    26    28    1
    28    12    29    2
    29    29    30    1
    30    30    31    2
    31     9    32    2
    32    32     5    1
    33    31    10    1
    34    28    13    1
    35    24    17    1
@<TRIPOS>SUBSTRUCTURE
     1 RES1        1 GROUP             0 ****  ****    0  
@<TRIPOS>MOLECULE
ligand_68
    32    35     1     0     0
SMALL
USER_CHARGES
****
Generated from the CSD

@<TRIPOS>ATOM
     1 C1      15.5401  55.2622  13.3753   C.3       1 RES1   0.0000
     2 S2      16.4825  53.9398  13.7985   S.o2      1 RES1   0.0000
     3 O3      15.6300  52.8271  14.1745   O.2       1 RES1   0.0000
     4 O4      17.3364  53.5840  12.6840   O.2       1 RES1   0.0000
     5 C5      17.3988  54.3546  15.0528   C.2       1 RES1   0.0000
     6 C6      18.7403  54.7693  14.9634   C.2       1 RES1   0.0000
     7 C7      19.4544  55.1129  16.1253   C.2       1 RES1   0.0000
     8 C8      18.8362  55.0423  17.3858   C.2       1 RES1   0.0000
     9 C9      17.5045  54.6203  17.4461   C.2       1 RES1   0.0000
    10 C10     16.7019  54.5219  18.6660   C.2       1 RES1   0.0000
    11 C11     17.2484  54.2224  19.9025   C.2       1 RES1   0.0000
    12 C12     16.3537  54.1723  20.9766   C.2       1 RES1   0.0000
    13 N13     16.7800  53.8749  22.2680   N.3       1 RES1   0.0000
    14 C14     18.2370  53.8063  22.4896   C.3       1 RES1   0.0000
    15 C15     18.5159  53.0550  23.7719   C.3       1 RES1   0.0000
    16 C16     17.7915  53.6609  24.9704   C.3       1 RES1   0.0000
    17 C17     18.0870  52.9419  26.2243   C.2       1 RES1   0.0000
    18 C18     17.6389  51.6385  26.4264   C.2       1 RES1   0.0000
    19 C19     17.9594  50.9797  27.5959   C.2       1 RES1   0.0000
    20 F20     17.5273  49.7285  27.8008   F         1 RES1   0.0000
    21 C21     18.7155  51.6159  28.5536   C.2       1 RES1   0.0000
    22 F22     18.9956  50.9626  29.6806   F         1 RES1   0.0000
    23 C23     19.1785  52.9156  28.3583   C.2       1 RES1   0.0000
    24 C24     18.8629  53.5788  27.1717   C.2       1 RES1   0.0000
    25 F25     19.2877  54.8310  26.9459   F         1 RES1   0.0000
    26 C26     16.2855  53.7527  24.6698   C.3       1 RES1   0.0000
    27 N27     15.5037  54.3356  25.7371   N.3       1 RES1   1.0000
    28 C28     16.0775  54.5498  23.3796   C.3       1 RES1   0.0000
    29 N29     15.0191  54.4086  20.7768   N.2       1 RES1   0.0000
    30 C30     14.5291  54.7042  19.5563   C.2       1 RES1   0.0000
    31 N31     15.3698  54.7582  18.5128   N.2       1 RES1   0.0000
    32 C32     16.8025  54.2895  16.2990   C.2       1 RES1   0.0000
@<TRIPOS>BOND
     1     1     2    1
     2     2     3    2
     3     2     4    2
     4     2     5    1
     5     5     6    2
     6     6     7    1
     7     7     8    2
     8     8     9    1
     9     9    10    1
    10    10    11    2
    11    11    12    1
    12    12    13    1
    13    13    14    1
    14    14    15    1
    15    16    15    1
    16    16    17    1
    17    17    18    2
    18    18    19    1
    19    19    20    1
    20    19    21    2
    21    21    22    1
    22    21    23    1
    23    23    24    2
    24    24    25    1
    25    16    26    1
    26    26    27    1
    27    26    28    1
    28    12    29    2
    29    29    30    1
    30    30    31    2
    31     9    32    2
    32    32     5    1
    33    31    10    1
    34    28    13    1
    35    24    17    1
@<TRIPOS>SUBSTRUCTURE
     1 RES1        1 GROUP             0 ****  ****    0  
@<TRIPOS>MOLECULE
ligand_69
    32    35     1     0     0
SMALL
USER_CHARGES
****
Generated from the CSD

@<TRIPOS>ATOM
     1 C1      22.0062  53.4431  16.9318   C.3       1 RES1   0.0000
     2 S2      20.6323  52.6250  16.4225   S.o2      1 RES1   0.0000
     3 O3      20.8622  52.0429  15.1131   O.2       1 RES1   0.0000
     4 O4      20.2971  51.6024  17.3918   O.2       1 RES1   0.0000
     5 C5      19.4228  53.6802  16.3300   C.2       1 RES1   0.0000
     6 C6      19.1797  54.5270  15.2329   C.2       1 RES1   0.0000
     7 C7      18.0896  55.4153  15.2518   C.2       1 RES1   0.0000
     8 C8      17.2354  55.4678  16.3670   C.2       1 RES1   0.0000
     9 C9      17.5045  54.6203  17.4461   C.2       1 RES1   0.0000
    10 C10     16.7019  54.5219  18.6660   C.2       1 RES1   0.0000
    11 C11     17.2484  54.2224  19.9025   C.2       1 RES1   0.0000
    12 C12     16.3537  54.1723  20.9766   C.2       1 RES1   0.0000
    13 N13     16.7800  53.8749  22.2680   N.3       1 RES1   0.0000
    14 C14     18.2370  53.8059  22.4896   C.3       1 RES1   0.0000
    15 C15     18.5158  53.0547  23.7719   C.3       1 RES1   0.0000
    16 C16     17.7916  53.6608  24.9703   C.3       1 RES1   0.0000
    17 C17     18.0870  52.9419  26.2243   C.2       1 RES1   0.0000
    18 C18     17.6386  51.6386  26.4265   C.2       1 RES1   0.0000
    19 C19     17.9591  50.9798  27.5960   C.2       1 RES1   0.0000
    20 F20     17.5267  49.7287  27.8010   F         1 RES1   0.0000
    21 C21     18.7153  51.6159  28.5537   C.2       1 RES1   0.0000
    22 F22     18.9954  50.9626  29.6807   F         1 RES1   0.0000
    23 C23     19.1786  52.9155  28.3583   C.2       1 RES1   0.0000
    24 C24     18.8631  53.5787  27.1716   C.2       1 RES1   0.0000
    25 F25     19.2882  54.8308  26.9457   F         1 RES1   0.0000
    26 C26     16.2856  53.7530  24.6698   C.3       1 RES1   0.0000
    27 N27     15.5040  54.3361  25.7371   N.3       1 RES1   1.0000
    28 C28     16.0778  54.5501  23.3796   C.3       1 RES1   0.0000
    29 N29     15.0191  54.4086  20.7768   N.2       1 RES1   0.0000
    30 C30     14.5291  54.7042  19.5563   C.2       1 RES1   0.0000
    31 N31     15.3698  54.7582  18.5128   N.2       1 RES1   0.0000
    32 C32     18.5749  53.7419  17.4209   C.2       1 RES1   0.0000
@<TRIPOS>BOND
     1     1     2    1
     2     2     3    2
     3     2     4    2
     4     2     5    1
     5     5     6    2
     6     6     7    1
     7     7     8    2
     8     8     9    1
     9     9    10    1
    10    10    11    2
    11    11    12    1
    12    12    13    1
    13    13    14    1
    14    14    15    1
    15    16    15    1
    16    16    17    1
    17    17    18    2
    18    18    19    1
    19    19    20    1
    20    19    21    2
    21    21    22    1
    22    21    23    1
    23    23    24    2
    24    24    25    1
    25    16    26    1
    26    26    27    1
    27    26    28    1
    28    12    29    2
    29    29    30    1
    30    30    31    2
    31     9    32    2
    32    32     5    1
    33    31    10    1
    34    28    13    1
    35    24    17    1
@<TRIPOS>SUBSTRUCTURE
     1 RES1        1 GROUP             0 ****  ****    0  
@<TRIPOS>MOLECULE
ligand_70
    32    35     1     0     0
SMALL
USER_CHARGES
****
Generated from the CSD

@<TRIPOS>ATOM
     1 C1      16.1004  56.2015  13.2696   C.3       1 RES1   0.0000
     2 S2      17.0588  56.9576  14.4211   S.o2      1 RES1   0.0000
     3 O3      18.1253  57.6941  13.7681   O.2       1 RES1   0.0000
     4 O4      16.2370  57.8397  15.2237   O.2       1 RES1   0.0000
     5 C5      17.6970  55.8256  15.3677   C.2       1 RES1   0.0000
     6 C6      18.8547  55.0858  15.0642   C.2       1 RES1   0.0000
     7 C7      19.3321  54.1165  15.9645   C.2       1 RES1   0.0000
     8 C8      18.6562  53.8758  17.1732   C.2       1 RES1   0.0000
     9 C9      17.5045  54.6203  17.4461   C.2       1 RES1   0.0000
    10 C10     16.7019  54.5219  18.6660   C.2       1 RES1   0.0000
    11 C11     17.2484  54.2224  19.9025   C.2       1 RES1   0.0000
    12 C12     16.3537  54.1723  20.9766   C.2       1 RES1   0.0000
    13 N13     16.7800  53.8749  22.2680   N.3       1 RES1   0.0000
    14 C14     18.2370  53.8065  22.4897   C.3       1 RES1   0.0000
    15 C15     18.5160  53.0552  23.7719   C.3       1 RES1   0.0000
    16 C16     17.7914  53.6609  24.9704   C.3       1 RES1   0.0000
    17 C17     18.0870  52.9419  26.2243   C.2       1 RES1   0.0000
    18 C18     17.6391  51.6384  26.4263   C.2       1 RES1   0.0000
    19 C19     17.9597  50.9796  27.5958   C.2       1 RES1   0.0000
    20 F20     17.5278  49.7283  27.8006   F         1 RES1   0.0000
    21 C21     18.7156  51.6158  28.5535   C.2       1 RES1   0.0000
    22 F22     18.9959  50.9626  29.6805   F         1 RES1   0.0000
    23 C23     19.1784  52.9157  28.3584   C.2       1 RES1   0.0000
    24 C24     18.8628  53.5789  27.1718   C.2       1 RES1   0.0000
    25 F25     19.2874  54.8312  26.9460   F         1 RES1   0.0000
    26 C26     16.2854  53.7524  24.6697   C.3       1 RES1   0.0000
    27 N27     15.5034  54.3351  25.7371   N.3       1 RES1   1.0000
    28 C28     16.0774  54.5496  23.3796   C.3       1 RES1   0.0000
    29 N29     15.0191  54.4086  20.7768   N.2       1 RES1   0.0000
    30 C30     14.5291  54.7042  19.5563   C.2       1 RES1   0.0000
    31 N31     15.3698  54.7582  18.5128   N.2       1 RES1   0.0000
    32 C32     17.0414  55.5788  16.5602   C.2       1 RES1   0.0000
@<TRIPOS>BOND
     1     1     2    1
     2     2     3    2
     3     2     4    2
     4     2     5    1
     5     5     6    2
     6     6     7    1
     7     7     8    2
     8     8     9    1
     9     9    10    1
    10    10    11    2
    11    11    12    1
    12    12    13    1
    13    13    14    1
    14    14    15    1
    15    16    15    1
    16    16    17    1
    17    17    18    2
    18    18    19    1
    19    19    20    1
    20    19    21    2
    21    21    22    1
    22    21    23    1
    23    23    24    2
    24    24    25    1
    25    16    26    1
    26    26    27    1
    27    26    28    1
    28    12    29    2
    29    29    30    1
    30    30    31    2
    31     9    32    2
    32    32     5    1
    33    31    10    1
    34    28    13    1
    35    24    17    1
@<TRIPOS>SUBSTRUCTURE
     1 RES1        1 GROUP             0 ****  ****    0  
@<TRIPOS>MOLECULE
ligand_71
    32    35     1     0     0
SMALL
USER_CHARGES
****
Generated from the CSD

@<TRIPOS>ATOM
     1 C1      16.8037  52.3363  13.4203   C.3       1 RES1   0.0000
     2 S2      16.4827  53.9394  13.7986   S.o2      1 RES1   0.0000
     3 O3      16.8069  54.7874  12.6663   O.2       1 RES1   0.0000
     4 O4      15.0878  54.0750  14.1641   O.2       1 RES1   0.0000
     5 C5      17.3988  54.3544  15.0528   C.2       1 RES1   0.0000
     6 C6      18.7403  54.7692  14.9634   C.2       1 RES1   0.0000
     7 C7      19.4544  55.1130  16.1253   C.2       1 RES1   0.0000
     8 C8      18.8362  55.0425  17.3858   C.2       1 RES1   0.0000
     9 C9      17.5045  54.6203  17.4461   C.2       1 RES1   0.0000
    10 C10     16.7019  54.5219  18.6660   C.2       1 RES1   0.0000
    11 C11     17.2484  54.2224  19.9025   C.2       1 RES1   0.0000
    12 C12     16.3537  54.1723  20.9766   C.2       1 RES1   0.0000
    13 N13     16.7800  53.8749  22.2680   N.3       1 RES1   0.0000
    14 C14     18.2370  53.8067  22.4897   C.3       1 RES1   0.0000
    15 C15     18.5161  53.0554  23.7719   C.3       1 RES1   0.0000
    16 C16     17.7914  53.6609  24.9704   C.3       1 RES1   0.0000
    17 C17     18.0870  52.9419  26.2243   C.2       1 RES1   0.0000
    18 C18     17.6393  51.6383  26.4262   C.2       1 RES1   0.0000
    19 C19     17.9600  50.9795  27.5956   C.2       1 RES1   0.0000
    20 F20     17.5284  49.7281  27.8004   F         1 RES1   0.0000
    21 C21     18.7157  51.6158  28.5535   C.2       1 RES1   0.0000
    22 F22     18.9960  50.9625  29.6805   F         1 RES1   0.0000
    23 C23     19.1783  52.9157  28.3584   C.2       1 RES1   0.0000
    24 C24     18.8626  53.5790  27.1719   C.2       1 RES1   0.0000
    25 F25     19.2870  54.8314  26.9462   F         1 RES1   0.0000
    26 C26     16.2853  53.7522  24.6697   C.3       1 RES1   0.0000
    27 N27     15.5032  54.3347  25.7370   N.3       1 RES1   1.0000
    28 C28     16.0772  54.5495  23.3796   C.3       1 RES1   0.0000
    29 N29     15.0191  54.4086  20.7768   N.2       1 RES1   0.0000
    30 C30     14.5291  54.7042  19.5563   C.2       1 RES1   0.0000
    31 N31     15.3698  54.7582  18.5128   N.2       1 RES1   0.0000
    32 C32     16.8025  54.2893  16.2991   C.2       1 RES1   0.0000
@<TRIPOS>BOND
     1     1     2    1
     2     2     3    2
     3     2     4    2
     4     2     5    1
     5     5     6    2
     6     6     7    1
     7     7     8    2
     8     8     9    1
     9     9    10    1
    10    10    11    2
    11    11    12    1
    12    12    13    1
    13    13    14    1
    14    14    15    1
    15    16    15    1
    16    16    17    1
    17    17    18    2
    18    18    19    1
    19    19    20    1
    20    19    21    2
    21    21    22    1
    22    21    23    1
    23    23    24    2
    24    24    25    1
    25    16    26    1
    26    26    27    1
    27    26    28    1
    28    12    29    2
    29    29    30    1
    30    30    31    2
    31     9    32    2
    32    32     5    1
    33    31    10    1
    34    28    13    1
    35    24    17    1
@<TRIPOS>SUBSTRUCTURE
     1 RES1        1 GROUP             0 ****  ****    0  
@<TRIPOS>MOLECULE
ligand_72
    32    35     1     0     0
SMALL
USER_CHARGES
****
Generated from the CSD

@<TRIPOS>ATOM
     1 C1       9.4328  53.8940  22.1798   C.3       1 RES1   0.0000
     2 S2       9.6885  53.1456  20.6998   S.o2      1 RES1   0.0000
     3 O3      10.4001  51.8960  20.8959   O.2       1 RES1   0.0000
     4 O4       8.4135  52.9187  20.0513   O.2       1 RES1   0.0000
     5 C5      10.5774  54.1255  19.7864   C.2       1 RES1   0.0000
     6 C6      10.0634  54.9898  18.8023   C.2       1 RES1   0.0000
     7 C7      10.9298  55.8099  18.0573   C.2       1 RES1   0.0000
     8 C8      12.3161  55.7715  18.2865   C.2       1 RES1   0.0000
     9 C9      12.8003  54.8983  19.2655   C.2       1 RES1   0.0000
    10 C10     14.2041  54.7565  19.6540   C.2       1 RES1   0.0000
    11 C11     14.5976  54.4144  20.9368   C.2       1 RES1   0.0000
    12 C12     15.9758  54.3090  21.1518   C.2       1 RES1   0.0000
    13 N13     16.4962  53.9780  22.3998   N.3       1 RES1   0.0000
    14 C14     17.9360  53.6610  22.4587   C.3       1 RES1   0.0000
    15 C15     18.2337  52.9089  23.7363   C.3       1 RES1   0.0000
    16 C16     17.7720  53.6660  24.9780   C.3       1 RES1   0.0000
    17 C17     18.0880  52.9420  26.2240   C.2       1 RES1   0.0000
    18 C18     17.7253  51.6072  26.3896   C.2       1 RES1   0.0000
    19 C19     18.0641  50.9467  27.5529   C.2       1 RES1   0.0000
    20 F20     17.7137  49.6651  27.7228   F         1 RES1   0.0000
    21 C21     18.7538  51.6119  28.5406   C.2       1 RES1   0.0000
    22 F22     19.0529  50.9551  29.6607   F         1 RES1   0.0000
    23 C23     19.1315  52.9438  28.3821   C.2       1 RES1   0.0000
    24 C24     18.7978  53.6094  27.2018   C.2       1 RES1   0.0000
    25 F25     19.1412  54.8921  27.0109   F         1 RES1   0.0000
    26 C26     16.2788  54.0120  24.8451   C.3       1 RES1   0.0000
    27 N27     15.7414  54.7529  25.9643   N.3       1 RES1   1.0000
    28 C28     16.0575  54.7967  23.5495   C.3       1 RES1   0.0000
    29 N29     16.8555  54.5418  20.1277   N.2       1 RES1   0.0000
    30 C30     16.4295  54.8659  18.8907   C.2       1 RES1   0.0000
    31 N31     15.1122  54.9714  18.6625   N.2       1 RES1   0.0000
    32 C32     11.9433  54.0974  20.0018   C.2       1 RES1   0.0000
@<TRIPOS>BOND
     1     1     2    1
     2     2     3    2
     3     2     4    2
     4     2     5    1
     5     5     6    2
     6     6     7    1
     7     7     8    2
     8     8     9    1
     9     9    10    1
    10    10    11    2
    11    11    12    1
    12    12    13    1
    13    13    14    1
    14    14    15    1
    15    16    15    1
    16    16    17    1
    17    17    18    2
    18    18    19    1
    19    19    20    1
    20    19    21    2
    21    21    22    1
    22    21    23    1
    23    23    24    2
    24    24    25    1
    25    16    26    1
    26    26    27    1
    27    26    28    1
    28    12    29    2
    29    29    30    1
    30    30    31    2
    31     9    32    2
    32    32     5    1
    33    31    10    1
    34    28    13    1
    35    24    17    1
@<TRIPOS>SUBSTRUCTURE
     1 RES1        1 GROUP             0 ****  ****    0  
@<TRIPOS>MOLECULE
ligand_73
    32    35     1     0     0
SMALL
USER_CHARGES
****
Generated from the CSD

@<TRIPOS>ATOM
     1 C1       9.3877  51.7432  19.8282   C.3       1 RES1   0.0000
     2 S2       9.6886  53.1454  20.6997   S.o2      1 RES1   0.0000
     3 O3       8.4357  53.8004  21.0275   O.2       1 RES1   0.0000
     4 O4      10.4286  52.8138  21.8997   O.2       1 RES1   0.0000
     5 C5      10.5774  54.1254  19.7863   C.2       1 RES1   0.0000
     6 C6      10.0634  54.9898  18.8023   C.2       1 RES1   0.0000
     7 C7      10.9298  55.8099  18.0574   C.2       1 RES1   0.0000
     8 C8      12.3161  55.7715  18.2866   C.2       1 RES1   0.0000
     9 C9      12.8003  54.8983  19.2655   C.2       1 RES1   0.0000
    10 C10     14.2041  54.7565  19.6540   C.2       1 RES1   0.0000
    11 C11     14.5976  54.4144  20.9368   C.2       1 RES1   0.0000
    12 C12     15.9758  54.3090  21.1518   C.2       1 RES1   0.0000
    13 N13     16.4962  53.9780  22.3998   N.3       1 RES1   0.0000
    14 C14     17.9360  53.6610  22.4587   C.3       1 RES1   0.0000
    15 C15     18.2337  52.9089  23.7363   C.3       1 RES1   0.0000
    16 C16     17.7720  53.6660  24.9780   C.3       1 RES1   0.0000
    17 C17     18.0880  52.9420  26.2240   C.2       1 RES1   0.0000
    18 C18     17.7254  51.6072  26.3895   C.2       1 RES1   0.0000
    19 C19     18.0643  50.9467  27.5529   C.2       1 RES1   0.0000
    20 F20     17.7140  49.6650  27.7227   F         1 RES1   0.0000
    21 C21     18.7538  51.6119  28.5406   C.2       1 RES1   0.0000
    22 F22     19.0529  50.9551  29.6607   F         1 RES1   0.0000
    23 C23     19.1314  52.9439  28.3821   C.2       1 RES1   0.0000
    24 C24     18.7976  53.6095  27.2018   C.2       1 RES1   0.0000
    25 F25     19.1410  54.8922  27.0110   F         1 RES1   0.0000
    26 C26     16.2788  54.0120  24.8451   C.3       1 RES1   0.0000
    27 N27     15.7414  54.7529  25.9643   N.3       1 RES1   1.0000
    28 C28     16.0575  54.7967  23.5495   C.3       1 RES1   0.0000
    29 N29     16.8555  54.5418  20.1277   N.2       1 RES1   0.0000
    30 C30     16.4295  54.8659  18.8907   C.2       1 RES1   0.0000
    31 N31     15.1122  54.9714  18.6625   N.2       1 RES1   0.0000
    32 C32     11.9433  54.0973  20.0018   C.2       1 RES1   0.0000
@<TRIPOS>BOND
     1     1     2    1
     2     2     3    2
     3     2     4    2
     4     2     5    1
     5     5     6    2
     6     6     7    1
     7     7     8    2
     8     8     9    1
     9     9    10    1
    10    10    11    2
    11    11    12    1
    12    12    13    1
    13    13    14    1
    14    14    15    1
    15    16    15    1
    16    16    17    1
    17    17    18    2
    18    18    19    1
    19    19    20    1
    20    19    21    2
    21    21    22    1
    22    21    23    1
    23    23    24    2
    24    24    25    1
    25    16    26    1
    26    26    27    1
    27    26    28    1
    28    12    29    2
    29    29    30    1
    30    30    31    2
    31     9    32    2
    32    32     5    1
    33    31    10    1
    34    28    13    1
    35    24    17    1
@<TRIPOS>SUBSTRUCTURE
     1 RES1        1 GROUP             0 ****  ****    0  
@<TRIPOS>MOLECULE
ligand_74
    32    35     1     0     0
SMALL
USER_CHARGES
****
Generated from the CSD

@<TRIPOS>ATOM
     1 C1      21.0630  53.0073  17.0941   C.3       1 RES1   0.0000
     2 S2      20.4498  54.4769  16.5646   S.o2      1 RES1   0.0000
     3 O3      20.7243  55.5085  17.5477   O.2       1 RES1   0.0000
     4 O4      21.0422  54.8101  15.2856   O.2       1 RES1   0.0000
     5 C5      18.8594  54.3240  16.3848   C.2       1 RES1   0.0000
     6 C6      18.2112  54.0741  15.1613   C.2       1 RES1   0.0000
     7 C7      16.8106  53.9557  15.1130   C.2       1 RES1   0.0000
     8 C8      16.0458  54.0888  16.2848   C.2       1 RES1   0.0000
     9 C9      16.7153  54.3439  17.4856   C.2       1 RES1   0.0000
    10 C10     16.0801  54.4767  18.7974   C.2       1 RES1   0.0000
    11 C11     16.7091  54.1147  19.9767   C.2       1 RES1   0.0000
    12 C12     15.9758  54.3090  21.1518   C.2       1 RES1   0.0000
    13 N13     16.4962  53.9780  22.3998   N.3       1 RES1   0.0000
    14 C14     17.9210  53.5979  22.4482   C.3       1 RES1   0.0000
    15 C15     18.2005  52.8568  23.7363   C.3       1 RES1   0.0000
    16 C16     17.7884  53.6566  24.9687   C.3       1 RES1   0.0000
    17 C17     18.0870  52.9422  26.2244   C.2       1 RES1   0.0000
    18 C18     17.6676  51.6281  26.4192   C.2       1 RES1   0.0000
    19 C19     17.9909  50.9746  27.5909   C.2       1 RES1   0.0000
    20 F20     17.5862  49.7132  27.7888   F         1 RES1   0.0000
    21 C21     18.7212  51.6264  28.5580   C.2       1 RES1   0.0000
    22 F22     19.0044  50.9776  29.6869   F         1 RES1   0.0000
    23 C23     19.1556  52.9371  28.3702   C.2       1 RES1   0.0000
    24 C24     18.8374  53.5952  27.1814   C.2       1 RES1   0.0000
    25 F25     19.2350  54.8575  26.9626   F         1 RES1   0.0000
    26 C26     16.3107  54.0668  24.8464   C.3       1 RES1   0.0000
    27 N27     15.8207  54.8515  25.9574   N.3       1 RES1   1.0000
    28 C28     16.1087  54.8366  23.5387   C.3       1 RES1   0.0000
    29 N29     14.7087  54.8275  21.0989   N.2       1 RES1   0.0000
    30 C30     14.1357  55.1738  19.9290   C.2       1 RES1   0.0000
    31 N31     14.8217  54.9965  18.7903   N.2       1 RES1   0.0000
    32 C32     18.0952  54.4529  17.5303   C.2       1 RES1   0.0000
@<TRIPOS>BOND
     1     1     2    1
     2     2     3    2
     3     2     4    2
     4     2     5    1
     5     5     6    2
     6     6     7    1
     7     7     8    2
     8     8     9    1
     9     9    10    1
    10    10    11    2
    11    11    12    1
    12    12    13    1
    13    13    14    1
    14    14    15    1
    15    16    15    1
    16    16    17    1
    17    17    18    2
    18    18    19    1
    19    19    20    1
    20    19    21    2
    21    21    22    1
    22    21    23    1
    23    23    24    2
    24    24    25    1
    25    16    26    1
    26    26    27    1
    27    26    28    1
    28    12    29    2
    29    29    30    1
    30    30    31    2
    31     9    32    2
    32    32     5    1
    33    31    10    1
    34    28    13    1
    35    24    17    1
@<TRIPOS>SUBSTRUCTURE
     1 RES1        1 GROUP             0 ****  ****    0  
@<TRIPOS>MOLECULE
ligand_75
    32    35     1     0     0
SMALL
USER_CHARGES
****
Generated from the CSD

@<TRIPOS>ATOM
     1 C1      20.8772  56.0472  16.1840   C.3       1 RES1   0.0000
     2 S2      20.4503  54.4698  16.5655   S.o2      1 RES1   0.0000
     3 O3      21.1231  53.5468  15.6702   O.2       1 RES1   0.0000
     4 O4      20.7991  54.1996  17.9450   O.2       1 RES1   0.0000
     5 C5      18.8596  54.3205  16.3853   C.2       1 RES1   0.0000
     6 C6      18.2111  54.0733  15.1613   C.2       1 RES1   0.0000
     7 C7      16.8103  53.9579  15.1126   C.2       1 RES1   0.0000
     8 C8      16.0455  54.0915  16.2844   C.2       1 RES1   0.0000
     9 C9      16.7153  54.3439  17.4856   C.2       1 RES1   0.0000
    10 C10     16.0801  54.4767  18.7974   C.2       1 RES1   0.0000
    11 C11     16.7091  54.1147  19.9767   C.2       1 RES1   0.0000
    12 C12     15.9758  54.3090  21.1518   C.2       1 RES1   0.0000
    13 N13     16.4962  53.9780  22.3998   N.3       1 RES1   0.0000
    14 C14     17.9207  53.5967  22.4480   C.3       1 RES1   0.0000
    15 C15     18.1998  52.8558  23.7363   C.3       1 RES1   0.0000
    16 C16     17.7887  53.6564  24.9685   C.3       1 RES1   0.0000
    17 C17     18.0870  52.9422  26.2245   C.2       1 RES1   0.0000
    18 C18     17.6666  51.6285  26.4197   C.2       1 RES1   0.0000
    19 C19     17.9896  50.9752  27.5916   C.2       1 RES1   0.0000
    20 F20     17.5840  49.7141  27.7900   F         1 RES1   0.0000
    21 C21     18.7206  51.6267  28.5584   C.2       1 RES1   0.0000
    22 F22     19.0035  50.9780  29.6874   F         1 RES1   0.0000
    23 C23     19.1559  52.9370  28.3701   C.2       1 RES1   0.0000
    24 C24     18.8380  53.5949  27.1811   C.2       1 RES1   0.0000
    25 F25     19.2366  54.8569  26.9617   F         1 RES1   0.0000
    26 C26     16.3113  54.0678  24.8464   C.3       1 RES1   0.0000
    27 N27     15.8223  54.8533  25.9572   N.3       1 RES1   1.0000
    28 C28     16.1096  54.8373  23.5385   C.3       1 RES1   0.0000
    29 N29     14.7087  54.8275  21.0989   N.2       1 RES1   0.0000
    30 C30     14.1357  55.1738  19.9290   C.2       1 RES1   0.0000
    31 N31     14.8217  54.9965  18.7903   N.2       1 RES1   0.0000
    32 C32     18.0954  54.4499  17.5307   C.2       1 RES1   0.0000
@<TRIPOS>BOND
     1     1     2    1
     2     2     3    2
     3     2     4    2
     4     2     5    1
     5     5     6    2
     6     6     7    1
     7     7     8    2
     8     8     9    1
     9     9    10    1
    10    10    11    2
    11    11    12    1
    12    12    13    1
    13    13    14    1
    14    14    15    1
    15    16    15    1
    16    16    17    1
    17    17    18    2
    18    18    19    1
    19    19    20    1
    20    19    21    2
    21    21    22    1
    22    21    23    1
    23    23    24    2
    24    24    25    1
    25    16    26    1
    26    26    27    1
    27    26    28    1
    28    12    29    2
    29    29    30    1
    30    30    31    2
    31     9    32    2
    32    32     5    1
    33    31    10    1
    34    28    13    1
    35    24    17    1
@<TRIPOS>SUBSTRUCTURE
     1 RES1        1 GROUP             0 ****  ****    0  
@<TRIPOS>MOLECULE
ligand_76
    32    35     1     0     0
SMALL
USER_CHARGES
****
Generated from the CSD

@<TRIPOS>ATOM
     1 C1      11.2012  56.5243  20.5593   C.3       1 RES1   0.0000
     2 S2      12.0349  56.7058  19.1144   S.o2      1 RES1   0.0000
     3 O3      12.8146  55.5124  18.8420   O.2       1 RES1   0.0000
     4 O4      11.0912  56.9624  18.0460   O.2       1 RES1   0.0000
     5 C5      13.0237  57.9653  19.2578   C.2       1 RES1   0.0000
     6 C6      12.7433  59.2622  18.7896   C.2       1 RES1   0.0000
     7 C7      13.6787  60.2972  18.9677   C.2       1 RES1   0.0000
     8 C8      14.9026  60.0454  19.6117   C.2       1 RES1   0.0000
     9 C9      15.1581  58.7460  20.0606   C.2       1 RES1   0.0000
    10 C10     16.3607  58.3189  20.7770   C.2       1 RES1   0.0000
    11 C11     16.3551  57.2978  21.7123   C.2       1 RES1   0.0000
    12 C12     17.5856  56.9988  22.3065   C.2       1 RES1   0.0000
    13 N13     17.7084  55.9977  23.2660   N.3       1 RES1   0.0000
    14 C14     16.4695  55.5660  23.9410   C.3       1 RES1   0.0000
    15 C15     16.8204  54.8377  25.2188   C.3       1 RES1   0.0000
    16 C16     17.7691  53.6668  24.9792   C.3       1 RES1   0.0000
    17 C17     18.0882  52.9420  26.2240   C.2       1 RES1   0.0000
    18 C18     17.7350  51.6042  26.3855   C.2       1 RES1   0.0000
    19 C19     18.0766  50.9432  27.5478   C.2       1 RES1   0.0000
    20 F20     17.7354  49.6586  27.7137   F         1 RES1   0.0000
    21 C21     18.7596  51.6109  28.5384   C.2       1 RES1   0.0000
    22 F22     19.0615  50.9534  29.6573   F         1 RES1   0.0000
    23 C23     19.1277  52.9460  28.3839   C.2       1 RES1   0.0000
    24 C24     18.7912  53.6121  27.2047   C.2       1 RES1   0.0000
    25 F25     19.1255  54.8977  27.0178   F         1 RES1   0.0000
    26 C26     19.0203  54.1617  24.2333   C.3       1 RES1   0.0000
    27 N27     19.9808  53.1230  23.9352   N.3       1 RES1   1.0000
    28 C28     18.5921  54.8589  22.9396   C.3       1 RES1   0.0000
    29 N29     18.7101  57.7004  21.9596   N.2       1 RES1   0.0000
    30 C30     18.6729  58.6834  21.0380   C.2       1 RES1   0.0000
    31 N31     17.5035  58.9857  20.4553   N.2       1 RES1   0.0000
    32 C32     14.2315  57.7310  19.8896   C.2       1 RES1   0.0000
@<TRIPOS>BOND
     1     1     2    1
     2     2     3    2
     3     2     4    2
     4     2     5    1
     5     5     6    2
     6     6     7    1
     7     7     8    2
     8     8     9    1
     9     9    10    1
    10    10    11    2
    11    11    12    1
    12    12    13    1
    13    13    14    1
    14    14    15    1
    15    16    15    1
    16    16    17    1
    17    17    18    2
    18    18    19    1
    19    19    20    1
    20    19    21    2
    21    21    22    1
    22    21    23    1
    23    23    24    2
    24    24    25    1
    25    16    26    1
    26    26    27    1
    27    26    28    1
    28    12    29    2
    29    29    30    1
    30    30    31    2
    31     9    32    2
    32    32     5    1
    33    31    10    1
    34    28    13    1
    35    24    17    1
@<TRIPOS>SUBSTRUCTURE
     1 RES1        1 GROUP             0 ****  ****    0  
@<TRIPOS>MOLECULE
ligand_77
    32    35     1     0     0
SMALL
USER_CHARGES
****
Generated from the CSD

@<TRIPOS>ATOM
     1 C1      11.4588  60.1903  22.3126   C.3       1 RES1   0.0000
     2 S2      11.5106  58.8664  21.2828   S.o2      1 RES1   0.0000
     3 O3      11.6587  57.6466  22.0552   O.2       1 RES1   0.0000
     4 O4      10.3011  58.8312  20.4869   O.2       1 RES1   0.0000
     5 C5      12.7781  59.0353  20.3082   C.2       1 RES1   0.0000
     6 C6      12.7191  59.5410  18.9965   C.2       1 RES1   0.0000
     7 C7      13.8906  59.6496  18.2259   C.2       1 RES1   0.0000
     8 C8      15.1296  59.2515  18.7572   C.2       1 RES1   0.0000
     9 C9      15.1581  58.7460  20.0606   C.2       1 RES1   0.0000
    10 C10     16.3607  58.3189  20.7770   C.2       1 RES1   0.0000
    11 C11     16.3551  57.2978  21.7123   C.2       1 RES1   0.0000
    12 C12     17.5856  56.9988  22.3065   C.2       1 RES1   0.0000
    13 N13     17.7084  55.9977  23.2660   N.3       1 RES1   0.0000
    14 C14     16.4699  55.5678  23.9429   C.3       1 RES1   0.0000
    15 C15     16.8216  54.8393  25.2203   C.3       1 RES1   0.0000
    16 C16     17.7683  53.6671  24.9796   C.3       1 RES1   0.0000
    17 C17     18.0882  52.9420  26.2240   C.2       1 RES1   0.0000
    18 C18     17.7335  51.6047  26.3862   C.2       1 RES1   0.0000
    19 C19     18.0758  50.9434  27.5481   C.2       1 RES1   0.0000
    20 F20     17.7331  49.6593  27.7147   F         1 RES1   0.0000
    21 C21     18.7611  51.6104  28.5376   C.2       1 RES1   0.0000
    22 F22     19.0637  50.9527  29.6562   F         1 RES1   0.0000
    23 C23     19.1309  52.9449  28.3824   C.2       1 RES1   0.0000
    24 C24     18.7936  53.6113  27.2036   C.2       1 RES1   0.0000
    25 F25     19.1294  54.8965  27.0159   F         1 RES1   0.0000
    26 C26     19.0192  54.1600  24.2317   C.3       1 RES1   0.0000
    27 N27     19.9777  53.1199  23.9324   N.3       1 RES1   1.0000
    28 C28     18.5900  54.8576  22.9385   C.3       1 RES1   0.0000
    29 N29     18.7101  57.7004  21.9596   N.2       1 RES1   0.0000
    30 C30     18.6729  58.6834  21.0380   C.2       1 RES1   0.0000
    31 N31     17.5035  58.9857  20.4553   N.2       1 RES1   0.0000
    32 C32     14.0034  58.6470  20.8188   C.2       1 RES1   0.0000
@<TRIPOS>BOND
     1     1     2    1
     2     2     3    2
     3     2     4    2
     4     2     5    1
     5     5     6    2
     6     6     7    1
     7     7     8    2
     8     8     9    1
     9     9    10    1
    10    10    11    2
    11    11    12    1
    12    12    13    1
    13    13    14    1
    14    14    15    1
    15    16    15    1
    16    16    17    1
    17    17    18    2
    18    18    19    1
    19    19    20    1
    20    19    21    2
    21    21    22    1
    22    21    23    1
    23    23    24    2
    24    24    25    1
    25    16    26    1
    26    26    27    1
    27    26    28    1
    28    12    29    2
    29    29    30    1
    30    30    31    2
    31     9    32    2
    32    32     5    1
    33    31    10    1
    34    28    13    1
    35    24    17    1
@<TRIPOS>SUBSTRUCTURE
     1 RES1        1 GROUP             0 ****  ****    0  
@<TRIPOS>MOLECULE
ligand_78
    32    35     1     0     0
SMALL
USER_CHARGES
****
Generated from the CSD

@<TRIPOS>ATOM
     1 C1      14.9708  58.6536  15.5001   C.3       1 RES1   0.0000
     2 S2      14.8021  60.0273  16.4490   S.o2      1 RES1   0.0000
     3 O3      16.0629  60.7437  16.5077   O.2       1 RES1   0.0000
     4 O4      13.7565  60.8644  15.8980   O.2       1 RES1   0.0000
     5 C5      14.3828  59.5675  17.9314   C.2       1 RES1   0.0000
     6 C6      13.0653  59.5581  18.4254   C.2       1 RES1   0.0000
     7 C7      12.8052  59.1344  19.7410   C.2       1 RES1   0.0000
     8 C8      13.8581  58.7199  20.5749   C.2       1 RES1   0.0000
     9 C9      15.1581  58.7460  20.0606   C.2       1 RES1   0.0000
    10 C10     16.3607  58.3189  20.7770   C.2       1 RES1   0.0000
    11 C11     16.3551  57.2978  21.7123   C.2       1 RES1   0.0000
    12 C12     17.5856  56.9988  22.3065   C.2       1 RES1   0.0000
    13 N13     17.7084  55.9977  23.2660   N.3       1 RES1   0.0000
    14 C14     16.4699  55.5678  23.9428   C.3       1 RES1   0.0000
    15 C15     16.8216  54.8392  25.2202   C.3       1 RES1   0.0000
    16 C16     17.7684  53.6671  24.9796   C.3       1 RES1   0.0000
    17 C17     18.0882  52.9420  26.2240   C.2       1 RES1   0.0000
    18 C18     17.7335  51.6047  26.3862   C.2       1 RES1   0.0000
    19 C19     18.0758  50.9434  27.5481   C.2       1 RES1   0.0000
    20 F20     17.7331  49.6593  27.7148   F         1 RES1   0.0000
    21 C21     18.7611  51.6104  28.5376   C.2       1 RES1   0.0000
    22 F22     19.0636  50.9527  29.6563   F         1 RES1   0.0000
    23 C23     19.1308  52.9450  28.3825   C.2       1 RES1   0.0000
    24 C24     18.7935  53.6114  27.2036   C.2       1 RES1   0.0000
    25 F25     19.1294  54.8965  27.0160   F         1 RES1   0.0000
    26 C26     19.0192  54.1601  24.2318   C.3       1 RES1   0.0000
    27 N27     19.9778  53.1201  23.9325   N.3       1 RES1   1.0000
    28 C28     18.5901  54.8576  22.9385   C.3       1 RES1   0.0000
    29 N29     18.7101  57.7004  21.9596   N.2       1 RES1   0.0000
    30 C30     18.6729  58.6834  21.0380   C.2       1 RES1   0.0000
    31 N31     17.5035  58.9857  20.4553   N.2       1 RES1   0.0000
    32 C32     15.4095  59.1572  18.7623   C.2       1 RES1   0.0000
@<TRIPOS>BOND
     1     1     2    1
     2     2     3    2
     3     2     4    2
     4     2     5    1
     5     5     6    2
     6     6     7    1
     7     7     8    2
     8     8     9    1
     9     9    10    1
    10    10    11    2
    11    11    12    1
    12    12    13    1
    13    13    14    1
    14    14    15    1
    15    16    15    1
    16    16    17    1
    17    17    18    2
    18    18    19    1
    19    19    20    1
    20    19    21    2
    21    21    22    1
    22    21    23    1
    23    23    24    2
    24    24    25    1
    25    16    26    1
    26    26    27    1
    27    26    28    1
    28    12    29    2
    29    29    30    1
    30    30    31    2
    31     9    32    2
    32    32     5    1
    33    31    10    1
    34    28    13    1
    35    24    17    1
@<TRIPOS>SUBSTRUCTURE
     1 RES1        1 GROUP             0 ****  ****    0  
@<TRIPOS>MOLECULE
ligand_79
    32    35     1     0     0
SMALL
USER_CHARGES
****
Generated from the CSD

@<TRIPOS>ATOM
     1 C1      15.2338  62.3549  17.2656   C.3       1 RES1   0.0000
     2 S2      14.2751  62.2103  18.6353   S.o2      1 RES1   0.0000
     3 O3      14.8988  62.9015  19.7487   O.2       1 RES1   0.0000
     4 O4      12.9611  62.7534  18.3597   O.2       1 RES1   0.0000
     5 C5      14.1359  60.6484  18.9904   C.2       1 RES1   0.0000
     6 C6      13.0411  59.8397  18.6339   C.2       1 RES1   0.0000
     7 C7      13.0183  58.4800  18.9930   C.2       1 RES1   0.0000
     8 C8      14.0864  57.9177  19.7133   C.2       1 RES1   0.0000
     9 C9      15.1581  58.7460  20.0606   C.2       1 RES1   0.0000
    10 C10     16.3607  58.3189  20.7770   C.2       1 RES1   0.0000
    11 C11     16.3551  57.2978  21.7123   C.2       1 RES1   0.0000
    12 C12     17.5856  56.9988  22.3065   C.2       1 RES1   0.0000
    13 N13     17.7084  55.9977  23.2660   N.3       1 RES1   0.0000
    14 C14     16.4699  55.5678  23.9428   C.3       1 RES1   0.0000
    15 C15     16.8216  54.8392  25.2203   C.3       1 RES1   0.0000
    16 C16     17.7683  53.6671  24.9796   C.3       1 RES1   0.0000
    17 C17     18.0882  52.9420  26.2240   C.2       1 RES1   0.0000
    18 C18     17.7334  51.6047  26.3863   C.2       1 RES1   0.0000
    19 C19     18.0757  50.9435  27.5481   C.2       1 RES1   0.0000
    20 F20     17.7330  49.6593  27.7148   F         1 RES1   0.0000
    21 C21     18.7611  51.6104  28.5376   C.2       1 RES1   0.0000
    22 F22     19.0637  50.9527  29.6563   F         1 RES1   0.0000
    23 C23     19.1309  52.9449  28.3824   C.2       1 RES1   0.0000
    24 C24     18.7936  53.6113  27.2036   C.2       1 RES1   0.0000
    25 F25     19.1295  54.8964  27.0159   F         1 RES1   0.0000
    26 C26     19.0192  54.1601  24.2318   C.3       1 RES1   0.0000
    27 N27     19.9778  53.1200  23.9325   N.3       1 RES1   1.0000
    28 C28     18.5900  54.8576  22.9385   C.3       1 RES1   0.0000
    29 N29     18.7101  57.7004  21.9596   N.2       1 RES1   0.0000
    30 C30     18.6729  58.6834  21.0380   C.2       1 RES1   0.0000
    31 N31     17.5035  58.9857  20.4553   N.2       1 RES1   0.0000
    32 C32     15.1802  60.0827  19.6992   C.2       1 RES1   0.0000
@<TRIPOS>BOND
     1     1     2    1
     2     2     3    2
     3     2     4    2
     4     2     5    1
     5     5     6    2
     6     6     7    1
     7     7     8    2
     8     8     9    1
     9     9    10    1
    10    10    11    2
    11    11    12    1
    12    12    13    1
    13    13    14    1
    14    14    15    1
    15    16    15    1
    16    16    17    1
    17    17    18    2
    18    18    19    1
    19    19    20    1
    20    19    21    2
    21    21    22    1
    22    21    23    1
    23    23    24    2
    24    24    25    1
    25    16    26    1
    26    26    27    1
    27    26    28    1
    28    12    29    2
    29    29    30    1
    30    30    31    2
    31     9    32    2
    32    32     5    1
    33    31    10    1
    34    28    13    1
    35    24    17    1
@<TRIPOS>SUBSTRUCTURE
     1 RES1        1 GROUP             0 ****  ****    0  
@<TRIPOS>MOLECULE
ligand_80
    32    35     1     0     0
SMALL
USER_CHARGES
****
Generated from the CSD

@<TRIPOS>ATOM
     1 C1      12.2404  56.0482  17.5829   C.3       1 RES1   0.0000
     2 S2      12.0354  56.7054  19.1132   S.o2      1 RES1   0.0000
     3 O3      10.6641  57.1506  19.2789   O.2       1 RES1   0.0000
     4 O4      12.3817  55.7139  20.1105   O.2       1 RES1   0.0000
     5 C5      13.0240  57.9652  19.2573   C.2       1 RES1   0.0000
     6 C6      12.7434  59.2621  18.7895   C.2       1 RES1   0.0000
     7 C7      13.6785  60.2973  18.9681   C.2       1 RES1   0.0000
     8 C8      14.9024  60.0455  19.6121   C.2       1 RES1   0.0000
     9 C9      15.1581  58.7460  20.0606   C.2       1 RES1   0.0000
    10 C10     16.3607  58.3189  20.7770   C.2       1 RES1   0.0000
    11 C11     16.3551  57.2978  21.7123   C.2       1 RES1   0.0000
    12 C12     17.5856  56.9988  22.3065   C.2       1 RES1   0.0000
    13 N13     17.7084  55.9977  23.2660   N.3       1 RES1   0.0000
    14 C14     16.4696  55.5663  23.9413   C.3       1 RES1   0.0000
    15 C15     16.8206  54.8379  25.2191   C.3       1 RES1   0.0000
    16 C16     17.7690  53.6669  24.9793   C.3       1 RES1   0.0000
    17 C17     18.0882  52.9420  26.2240   C.2       1 RES1   0.0000
    18 C18     17.7344  51.6043  26.3858   C.2       1 RES1   0.0000
    19 C19     18.0762  50.9433  27.5480   C.2       1 RES1   0.0000
    20 F20     17.7344  49.6589  27.7141   F         1 RES1   0.0000
    21 C21     18.7598  51.6108  28.5382   C.2       1 RES1   0.0000
    22 F22     19.0618  50.9533  29.6571   F         1 RES1   0.0000
    23 C23     19.1286  52.9457  28.3835   C.2       1 RES1   0.0000
    24 C24     18.7919  53.6119  27.2044   C.2       1 RES1   0.0000
    25 F25     19.1268  54.8973  27.0172   F         1 RES1   0.0000
    26 C26     19.0201  54.1614  24.2331   C.3       1 RES1   0.0000
    27 N27     19.9803  53.1225  23.9348   N.3       1 RES1   1.0000
    28 C28     18.5917  54.8587  22.9394   C.3       1 RES1   0.0000
    29 N29     18.7101  57.7004  21.9596   N.2       1 RES1   0.0000
    30 C30     18.6729  58.6834  21.0380   C.2       1 RES1   0.0000
    31 N31     17.5035  58.9857  20.4553   N.2       1 RES1   0.0000
    32 C32     14.2318  57.7309  19.8891   C.2       1 RES1   0.0000
@<TRIPOS>BOND
     1     1     2    1
     2     2     3    2
     3     2     4    2
     4     2     5    1
     5     5     6    2
     6     6     7    1
     7     7     8    2
     8     8     9    1
     9     9    10    1
    10    10    11    2
    11    11    12    1
    12    12    13    1
    13    13    14    1
    14    14    15    1
    15    16    15    1
    16    16    17    1
    17    17    18    2
    18    18    19    1
    19    19    20    1
    20    19    21    2
    21    21    22    1
    22    21    23    1
    23    23    24    2
    24    24    25    1
    25    16    26    1
    26    26    27    1
    27    26    28    1
    28    12    29    2
    29    29    30    1
    30    30    31    2
    31     9    32    2
    32    32     5    1
    33    31    10    1
    34    28    13    1
    35    24    17    1
@<TRIPOS>SUBSTRUCTURE
     1 RES1        1 GROUP             0 ****  ****    0  
@<TRIPOS>MOLECULE
ligand_81
    32    35     1     0     0
SMALL
USER_CHARGES
****
Generated from the CSD

@<TRIPOS>ATOM
     1 C1      10.7503  57.4174  20.9106   C.3       1 RES1   0.0000
     2 S2      11.5106  58.8663  21.2828   S.o2      1 RES1   0.0000
     3 O3      10.5940  59.9719  21.0736   O.2       1 RES1   0.0000
     4 O4      11.9696  58.8273  22.6559   O.2       1 RES1   0.0000
     5 C5      12.7780  59.0352  20.3082   C.2       1 RES1   0.0000
     6 C6      12.7191  59.5410  18.9965   C.2       1 RES1   0.0000
     7 C7      13.8906  59.6497  18.2260   C.2       1 RES1   0.0000
     8 C8      15.1296  59.2515  18.7572   C.2       1 RES1   0.0000
     9 C9      15.1581  58.7460  20.0606   C.2       1 RES1   0.0000
    10 C10     16.3607  58.3189  20.7770   C.2       1 RES1   0.0000
    11 C11     16.3551  57.2978  21.7123   C.2       1 RES1   0.0000
    12 C12     17.5856  56.9988  22.3065   C.2       1 RES1   0.0000
    13 N13     17.7084  55.9977  23.2660   N.3       1 RES1   0.0000
    14 C14     16.4699  55.5678  23.9428   C.3       1 RES1   0.0000
    15 C15     16.8216  54.8392  25.2203   C.3       1 RES1   0.0000
    16 C16     17.7683  53.6671  24.9796   C.3       1 RES1   0.0000
    17 C17     18.0882  52.9420  26.2240   C.2       1 RES1   0.0000
    18 C18     17.7334  51.6047  26.3863   C.2       1 RES1   0.0000
    19 C19     18.0757  50.9435  27.5481   C.2       1 RES1   0.0000
    20 F20     17.7330  49.6594  27.7148   F         1 RES1   0.0000
    21 C21     18.7611  51.6104  28.5376   C.2       1 RES1   0.0000
    22 F22     19.0637  50.9527  29.6562   F         1 RES1   0.0000
    23 C23     19.1309  52.9449  28.3824   C.2       1 RES1   0.0000
    24 C24     18.7936  53.6113  27.2036   C.2       1 RES1   0.0000
    25 F25     19.1295  54.8964  27.0159   F         1 RES1   0.0000
    26 C26     19.0192  54.1600  24.2318   C.3       1 RES1   0.0000
    27 N27     19.9778  53.1200  23.9325   N.3       1 RES1   1.0000
    28 C28     18.5900  54.8576  22.9385   C.3       1 RES1   0.0000
    29 N29     18.7101  57.7004  21.9596   N.2       1 RES1   0.0000
    30 C30     18.6729  58.6834  21.0380   C.2       1 RES1   0.0000
    31 N31     17.5035  58.9857  20.4553   N.2       1 RES1   0.0000
    32 C32     14.0034  58.6470  20.8188   C.2       1 RES1   0.0000
@<TRIPOS>BOND
     1     1     2    1
     2     2     3    2
     3     2     4    2
     4     2     5    1
     5     5     6    2
     6     6     7    1
     7     7     8    2
     8     8     9    1
     9     9    10    1
    10    10    11    2
    11    11    12    1
    12    12    13    1
    13    13    14    1
    14    14    15    1
    15    16    15    1
    16    16    17    1
    17    17    18    2
    18    18    19    1
    19    19    20    1
    20    19    21    2
    21    21    22    1
    22    21    23    1
    23    23    24    2
    24    24    25    1
    25    16    26    1
    26    26    27    1
    27    26    28    1
    28    12    29    2
    29    29    30    1
    30    30    31    2
    31     9    32    2
    32    32     5    1
    33    31    10    1
    34    28    13    1
    35    24    17    1
@<TRIPOS>SUBSTRUCTURE
     1 RES1        1 GROUP             0 ****  ****    0  
@<TRIPOS>MOLECULE
ligand_82
    32    35     1     0     0
SMALL
USER_CHARGES
****
Generated from the CSD

@<TRIPOS>ATOM
     1 C1      23.3655  56.5897  19.0717   C.3       1 RES1   0.0000
     2 S2      23.1063  58.2329  19.2926   S.o2      1 RES1   0.0000
     3 O3      23.2358  58.5676  20.6988   O.2       1 RES1   0.0000
     4 O4      24.0560  58.9792  18.4934   O.2       1 RES1   0.0000
     5 C5      21.6157  58.5787  18.7992   C.2       1 RES1   0.0000
     6 C6      21.2919  59.1100  17.5372   C.2       1 RES1   0.0000
     7 C7      19.9518  59.3757  17.2033   C.2       1 RES1   0.0000
     8 C8      18.9247  59.1163  18.1273   C.2       1 RES1   0.0000
     9 C9      19.2756  58.5951  19.3764   C.2       1 RES1   0.0000
    10 C10     18.3350  58.2370  20.4389   C.2       1 RES1   0.0000
    11 C11     18.5759  57.2160  21.3427   C.2       1 RES1   0.0000
    12 C12     17.5856  56.9988  22.3065   C.2       1 RES1   0.0000
    13 N13     17.7084  55.9977  23.2660   N.3       1 RES1   0.0000
    14 C14     16.4797  55.6086  23.9841   C.3       1 RES1   0.0000
    15 C15     16.8498  54.8739  25.2529   C.3       1 RES1   0.0000
    16 C16     17.7518  53.6722  24.9871   C.3       1 RES1   0.0000
    17 C17     18.0891  52.9419  26.2238   C.2       1 RES1   0.0000
    18 C18     17.6985  51.6169  26.4034   C.2       1 RES1   0.0000
    19 C19     18.0576  50.9494  27.5567   C.2       1 RES1   0.0000
    20 F20     17.6808  49.6772  27.7401   F         1 RES1   0.0000
    21 C21     18.7950  51.5981  28.5205   C.2       1 RES1   0.0000
    22 F22     19.1131  50.9353  29.6318   F         1 RES1   0.0000
    23 C23     19.2007  52.9200  28.3475   C.2       1 RES1   0.0000
    24 C24     18.8463  53.5924  27.1771   C.2       1 RES1   0.0000
    25 F25     19.2156  54.8658  26.9729   F         1 RES1   0.0000
    26 C26     18.9925  54.1238  24.1973   C.3       1 RES1   0.0000
    27 N27     19.9085  53.0536  23.8721   N.3       1 RES1   1.0000
    28 C28     18.5436  54.8298  22.9154   C.3       1 RES1   0.0000
    29 N29     16.4538  57.7707  22.3215   N.2       1 RES1   0.0000
    30 C30     16.2619  58.7602  21.4267   C.2       1 RES1   0.0000
    31 N31     17.1993  58.9860  20.4945   N.2       1 RES1   0.0000
    32 C32     20.5957  58.3282  19.6990   C.2       1 RES1   0.0000
@<TRIPOS>BOND
     1     1     2    1
     2     2     3    2
     3     2     4    2
     4     2     5    1
     5     5     6    2
     6     6     7    1
     7     7     8    2
     8     8     9    1
     9     9    10    1
    10    10    11    2
    11    11    12    1
    12    12    13    1
    13    13    14    1
    14    14    15    1
    15    16    15    1
    16    16    17    1
    17    17    18    2
    18    18    19    1
    19    19    20    1
    20    19    21    2
    21    21    22    1
    22    21    23    1
    23    23    24    2
    24    24    25    1
    25    16    26    1
    26    26    27    1
    27    26    28    1
    28    12    29    2
    29    29    30    1
    30    30    31    2
    31     9    32    2
    32    32     5    1
    33    31    10    1
    34    28    13    1
    35    24    17    1
@<TRIPOS>SUBSTRUCTURE
     1 RES1        1 GROUP             0 ****  ****    0  
@<TRIPOS>MOLECULE
ligand_83
    32    35     1     0     0
SMALL
USER_CHARGES
****
Generated from the CSD

@<TRIPOS>ATOM
     1 C1      20.6081  55.5248  16.2716   C.3       1 RES1   0.0000
     2 S2      21.6246  56.3275  17.3386   S.o2      1 RES1   0.0000
     3 O3      21.9076  55.4798  18.4820   O.2       1 RES1   0.0000
     4 O4      22.8458  56.6949  16.6520   O.2       1 RES1   0.0000
     5 C5      20.8790  57.6616  17.8379   C.2       1 RES1   0.0000
     6 C6      21.0915  58.9462  17.3046   C.2       1 RES1   0.0000
     7 C7      20.3843  60.0502  17.8135   C.2       1 RES1   0.0000
     8 C8      19.4618  59.8814  18.8606   C.2       1 RES1   0.0000
     9 C9      19.2756  58.5951  19.3764   C.2       1 RES1   0.0000
    10 C10     18.3350  58.2370  20.4389   C.2       1 RES1   0.0000
    11 C11     18.5759  57.2160  21.3427   C.2       1 RES1   0.0000
    12 C12     17.5856  56.9988  22.3065   C.2       1 RES1   0.0000
    13 N13     17.7084  55.9977  23.2660   N.3       1 RES1   0.0000
    14 C14     16.4796  55.6082  23.9838   C.3       1 RES1   0.0000
    15 C15     16.8496  54.8736  25.2526   C.3       1 RES1   0.0000
    16 C16     17.7520  53.6722  24.9870   C.3       1 RES1   0.0000
    17 C17     18.0891  52.9419  26.2238   C.2       1 RES1   0.0000
    18 C18     17.6989  51.6167  26.4032   C.2       1 RES1   0.0000
    19 C19     18.0579  50.9493  27.5565   C.2       1 RES1   0.0000
    20 F20     17.6815  49.6769  27.7397   F         1 RES1   0.0000
    21 C21     18.7947  51.5983  28.5207   C.2       1 RES1   0.0000
    22 F22     19.1126  50.9354  29.6320   F         1 RES1   0.0000
    23 C23     19.2000  52.9203  28.3479   C.2       1 RES1   0.0000
    24 C24     18.8457  53.5926  27.1775   C.2       1 RES1   0.0000
    25 F25     19.2146  54.8662  26.9734   F         1 RES1   0.0000
    26 C26     18.9927  54.1241  24.1976   C.3       1 RES1   0.0000
    27 N27     19.9091  53.0542  23.8726   N.3       1 RES1   1.0000
    28 C28     18.5440  54.8300  22.9156   C.3       1 RES1   0.0000
    29 N29     16.4538  57.7707  22.3215   N.2       1 RES1   0.0000
    30 C30     16.2619  58.7602  21.4267   C.2       1 RES1   0.0000
    31 N31     17.1993  58.9860  20.4945   N.2       1 RES1   0.0000
    32 C32     19.9687  57.5093  18.8680   C.2       1 RES1   0.0000
@<TRIPOS>BOND
     1     1     2    1
     2     2     3    2
     3     2     4    2
     4     2     5    1
     5     5     6    2
     6     6     7    1
     7     7     8    2
     8     8     9    1
     9     9    10    1
    10    10    11    2
    11    11    12    1
    12    12    13    1
    13    13    14    1
    14    14    15    1
    15    16    15    1
    16    16    17    1
    17    17    18    2
    18    18    19    1
    19    19    20    1
    20    19    21    2
    21    21    22    1
    22    21    23    1
    23    23    24    2
    24    24    25    1
    25    16    26    1
    26    26    27    1
    27    26    28    1
    28    12    29    2
    29    29    30    1
    30    30    31    2
    31     9    32    2
    32    32     5    1
    33    31    10    1
    34    28    13    1
    35    24    17    1
@<TRIPOS>SUBSTRUCTURE
     1 RES1        1 GROUP             0 ****  ****    0  
@<TRIPOS>MOLECULE
ligand_84
    32    35     1     0     0
SMALL
USER_CHARGES
****
Generated from the CSD

@<TRIPOS>ATOM
     1 C1      14.9367  61.6997  16.4353   C.3       1 RES1   0.0000
     2 S2      14.8021  60.0271  16.4489   S.o2      1 RES1   0.0000
     3 O3      13.7790  59.6073  15.5092   O.2       1 RES1   0.0000
     4 O4      16.0836  59.4408  16.1148   O.2       1 RES1   0.0000
     5 C5      14.3828  59.5674  17.9314   C.2       1 RES1   0.0000
     6 C6      13.0653  59.5581  18.4254   C.2       1 RES1   0.0000
     7 C7      12.8052  59.1345  19.7410   C.2       1 RES1   0.0000
     8 C8      13.8581  58.7199  20.5749   C.2       1 RES1   0.0000
     9 C9      15.1581  58.7460  20.0606   C.2       1 RES1   0.0000
    10 C10     16.3607  58.3189  20.7770   C.2       1 RES1   0.0000
    11 C11     16.3551  57.2978  21.7123   C.2       1 RES1   0.0000
    12 C12     17.5856  56.9988  22.3065   C.2       1 RES1   0.0000
    13 N13     17.7084  55.9977  23.2660   N.3       1 RES1   0.0000
    14 C14     16.4699  55.5678  23.9428   C.3       1 RES1   0.0000
    15 C15     16.8216  54.8392  25.2203   C.3       1 RES1   0.0000
    16 C16     17.7683  53.6671  24.9796   C.3       1 RES1   0.0000
    17 C17     18.0882  52.9420  26.2240   C.2       1 RES1   0.0000
    18 C18     17.7334  51.6047  26.3862   C.2       1 RES1   0.0000
    19 C19     18.0758  50.9435  27.5481   C.2       1 RES1   0.0000
    20 F20     17.7330  49.6593  27.7148   F         1 RES1   0.0000
    21 C21     18.7611  51.6104  28.5376   C.2       1 RES1   0.0000
    22 F22     19.0637  50.9527  29.6563   F         1 RES1   0.0000
    23 C23     19.1309  52.9449  28.3824   C.2       1 RES1   0.0000
    24 C24     18.7936  53.6113  27.2036   C.2       1 RES1   0.0000
    25 F25     19.1294  54.8964  27.0159   F         1 RES1   0.0000
    26 C26     19.0192  54.1601  24.2318   C.3       1 RES1   0.0000
    27 N27     19.9778  53.1200  23.9325   N.3       1 RES1   1.0000
    28 C28     18.5901  54.8576  22.9385   C.3       1 RES1   0.0000
    29 N29     18.7101  57.7004  21.9596   N.2       1 RES1   0.0000
    30 C30     18.6729  58.6834  21.0380   C.2       1 RES1   0.0000
    31 N31     17.5035  58.9857  20.4553   N.2       1 RES1   0.0000
    32 C32     15.4095  59.1571  18.7623   C.2       1 RES1   0.0000
@<TRIPOS>BOND
     1     1     2    1
     2     2     3    2
     3     2     4    2
     4     2     5    1
     5     5     6    2
     6     6     7    1
     7     7     8    2
     8     8     9    1
     9     9    10    1
    10    10    11    2
    11    11    12    1
    12    12    13    1
    13    13    14    1
    14    14    15    1
    15    16    15    1
    16    16    17    1
    17    17    18    2
    18    18    19    1
    19    19    20    1
    20    19    21    2
    21    21    22    1
    22    21    23    1
    23    23    24    2
    24    24    25    1
    25    16    26    1
    26    26    27    1
    27    26    28    1
    28    12    29    2
    29    29    30    1
    30    30    31    2
    31     9    32    2
    32    32     5    1
    33    31    10    1
    34    28    13    1
    35    24    17    1
@<TRIPOS>SUBSTRUCTURE
     1 RES1        1 GROUP             0 ****  ****    0  
@<TRIPOS>MOLECULE
ligand_85
    32    35     1     0     0
SMALL
USER_CHARGES
****
Generated from the CSD

@<TRIPOS>ATOM
     1 C1      13.4322  63.0893  19.7900   C.3       1 RES1   0.0000
     2 S2      14.2751  62.2103  18.6355   S.o2      1 RES1   0.0000
     3 O3      13.7113  62.4555  17.3208   O.2       1 RES1   0.0000
     4 O4      15.6739  62.5836  18.6765   O.2       1 RES1   0.0000
     5 C5      14.1359  60.6484  18.9905   C.2       1 RES1   0.0000
     6 C6      13.0411  59.8397  18.6339   C.2       1 RES1   0.0000
     7 C7      13.0183  58.4800  18.9929   C.2       1 RES1   0.0000
     8 C8      14.0864  57.9177  19.7133   C.2       1 RES1   0.0000
     9 C9      15.1581  58.7460  20.0606   C.2       1 RES1   0.0000
    10 C10     16.3607  58.3189  20.7770   C.2       1 RES1   0.0000
    11 C11     16.3551  57.2978  21.7123   C.2       1 RES1   0.0000
    12 C12     17.5856  56.9988  22.3065   C.2       1 RES1   0.0000
    13 N13     17.7084  55.9977  23.2660   N.3       1 RES1   0.0000
    14 C14     16.4699  55.5678  23.9429   C.3       1 RES1   0.0000
    15 C15     16.8216  54.8393  25.2203   C.3       1 RES1   0.0000
    16 C16     17.7683  53.6671  24.9796   C.3       1 RES1   0.0000
    17 C17     18.0882  52.9420  26.2240   C.2       1 RES1   0.0000
    18 C18     17.7334  51.6047  26.3862   C.2       1 RES1   0.0000
    19 C19     18.0758  50.9435  27.5481   C.2       1 RES1   0.0000
    20 F20     17.7330  49.6593  27.7148   F         1 RES1   0.0000
    21 C21     18.7611  51.6104  28.5376   C.2       1 RES1   0.0000
    22 F22     19.0637  50.9527  29.6562   F         1 RES1   0.0000
    23 C23     19.1309  52.9449  28.3824   C.2       1 RES1   0.0000
    24 C24     18.7936  53.6113  27.2036   C.2       1 RES1   0.0000
    25 F25     19.1295  54.8964  27.0159   F         1 RES1   0.0000
    26 C26     19.0192  54.1600  24.2317   C.3       1 RES1   0.0000
    27 N27     19.9777  53.1200  23.9324   N.3       1 RES1   1.0000
    28 C28     18.5900  54.8576  22.9385   C.3       1 RES1   0.0000
    29 N29     18.7101  57.7004  21.9596   N.2       1 RES1   0.0000
    30 C30     18.6729  58.6834  21.0380   C.2       1 RES1   0.0000
    31 N31     17.5035  58.9857  20.4553   N.2       1 RES1   0.0000
    32 C32     15.1801  60.0827  19.6992   C.2       1 RES1   0.0000
@<TRIPOS>BOND
     1     1     2    1
     2     2     3    2
     3     2     4    2
     4     2     5    1
     5     5     6    2
     6     6     7    1
     7     7     8    2
     8     8     9    1
     9     9    10    1
    10    10    11    2
    11    11    12    1
    12    12    13    1
    13    13    14    1
    14    14    15    1
    15    16    15    1
    16    16    17    1
    17    17    18    2
    18    18    19    1
    19    19    20    1
    20    19    21    2
    21    21    22    1
    22    21    23    1
    23    23    24    2
    24    24    25    1
    25    16    26    1
    26    26    27    1
    27    26    28    1
    28    12    29    2
    29    29    30    1
    30    30    31    2
    31     9    32    2
    32    32     5    1
    33    31    10    1
    34    28    13    1
    35    24    17    1
@<TRIPOS>SUBSTRUCTURE
     1 RES1        1 GROUP             0 ****  ****    0  
@<TRIPOS>MOLECULE
ligand_86
    32    35     1     0     0
SMALL
USER_CHARGES
****
Generated from the CSD

@<TRIPOS>ATOM
     1 C1      20.9961  62.8128  19.0718   C.3       1 RES1   0.0000
     2 S2      20.0704  62.0567  17.8939   S.o2      1 RES1   0.0000
     3 O3      18.6898  62.4922  17.9972   O.2       1 RES1   0.0000
     4 O4      20.6137  62.3645  16.5871   O.2       1 RES1   0.0000
     5 C5      20.1462  60.4690  18.1355   C.2       1 RES1   0.0000
     6 C6      21.0054  59.5934  17.4466   C.2       1 RES1   0.0000
     7 C7      20.9944  58.2170  17.7357   C.2       1 RES1   0.0000
     8 C8      20.1236  57.7034  18.7123   C.2       1 RES1   0.0000
     9 C9      19.2756  58.5951  19.3764   C.2       1 RES1   0.0000
    10 C10     18.3350  58.2370  20.4389   C.2       1 RES1   0.0000
    11 C11     18.5759  57.2160  21.3427   C.2       1 RES1   0.0000
    12 C12     17.5856  56.9988  22.3065   C.2       1 RES1   0.0000
    13 N13     17.7084  55.9977  23.2660   N.3       1 RES1   0.0000
    14 C14     16.4796  55.6081  23.9837   C.3       1 RES1   0.0000
    15 C15     16.8495  54.8735  25.2525   C.3       1 RES1   0.0000
    16 C16     17.7520  53.6722  24.9870   C.3       1 RES1   0.0000
    17 C17     18.0891  52.9419  26.2238   C.2       1 RES1   0.0000
    18 C18     17.6991  51.6167  26.4032   C.2       1 RES1   0.0000
    19 C19     18.0580  50.9493  27.5565   C.2       1 RES1   0.0000
    20 F20     17.6817  49.6768  27.7396   F         1 RES1   0.0000
    21 C21     18.7946  51.5983  28.5207   C.2       1 RES1   0.0000
    22 F22     19.1125  50.9355  29.6321   F         1 RES1   0.0000
    23 C23     19.1998  52.9203  28.3480   C.2       1 RES1   0.0000
    24 C24     18.8455  53.5927  27.1775   C.2       1 RES1   0.0000
    25 F25     19.2143  54.8663  26.9736   F         1 RES1   0.0000
    26 C26     18.9928  54.1242  24.1977   C.3       1 RES1   0.0000
    27 N27     19.9093  53.0543  23.8727   N.3       1 RES1   1.0000
    28 C28     18.5441  54.8301  22.9157   C.3       1 RES1   0.0000
    29 N29     16.4538  57.7707  22.3215   N.2       1 RES1   0.0000
    30 C30     16.2619  58.7602  21.4267   C.2       1 RES1   0.0000
    31 N31     17.1993  58.9860  20.4945   N.2       1 RES1   0.0000
    32 C32     19.2943  59.9508  19.0939   C.2       1 RES1   0.0000
@<TRIPOS>BOND
     1     1     2    1
     2     2     3    2
     3     2     4    2
     4     2     5    1
     5     5     6    2
     6     6     7    1
     7     7     8    2
     8     8     9    1
     9     9    10    1
    10    10    11    2
    11    11    12    1
    12    12    13    1
    13    13    14    1
    14    14    15    1
    15    16    15    1
    16    16    17    1
    17    17    18    2
    18    18    19    1
    19    19    20    1
    20    19    21    2
    21    21    22    1
    22    21    23    1
    23    23    24    2
    24    24    25    1
    25    16    26    1
    26    26    27    1
    27    26    28    1
    28    12    29    2
    29    29    30    1
    30    30    31    2
    31     9    32    2
    32    32     5    1
    33    31    10    1
    34    28    13    1
    35    24    17    1
@<TRIPOS>SUBSTRUCTURE
     1 RES1        1 GROUP             0 ****  ****    0  
@<TRIPOS>MOLECULE
ligand_87
    32    35     1     0     0
SMALL
USER_CHARGES
****
Generated from the CSD

@<TRIPOS>ATOM
     1 C1      18.2089  61.7384  16.2422   C.3       1 RES1   0.0000
     2 S2      18.5722  60.1323  15.9189   S.o2      1 RES1   0.0000
     3 O3      17.3463  59.3728  15.7563   O.2       1 RES1   0.0000
     4 O4      19.3897  60.0571  14.7257   O.2       1 RES1   0.0000
     5 C5      19.4013  59.5428  17.1638   C.2       1 RES1   0.0000
     6 C6      20.8028  59.4279  17.2115   C.2       1 RES1   0.0000
     7 C7      21.4317  58.8983  18.3525   C.2       1 RES1   0.0000
     8 C8      20.6667  58.4761  19.4536   C.2       1 RES1   0.0000
     9 C9      19.2756  58.5951  19.3764   C.2       1 RES1   0.0000
    10 C10     18.3350  58.2370  20.4389   C.2       1 RES1   0.0000
    11 C11     18.5759  57.2160  21.3427   C.2       1 RES1   0.0000
    12 C12     17.5856  56.9988  22.3065   C.2       1 RES1   0.0000
    13 N13     17.7084  55.9977  23.2660   N.3       1 RES1   0.0000
    14 C14     16.4796  55.6081  23.9836   C.3       1 RES1   0.0000
    15 C15     16.8495  54.8735  25.2525   C.3       1 RES1   0.0000
    16 C16     17.7520  53.6722  24.9870   C.3       1 RES1   0.0000
    17 C17     18.0891  52.9419  26.2238   C.2       1 RES1   0.0000
    18 C18     17.6991  51.6167  26.4031   C.2       1 RES1   0.0000
    19 C19     18.0580  50.9493  27.5565   C.2       1 RES1   0.0000
    20 F20     17.6818  49.6768  27.7396   F         1 RES1   0.0000
    21 C21     18.7946  51.5983  28.5207   C.2       1 RES1   0.0000
    22 F22     19.1125  50.9355  29.6321   F         1 RES1   0.0000
    23 C23     19.1997  52.9204  28.3480   C.2       1 RES1   0.0000
    24 C24     18.8454  53.5927  27.1776   C.2       1 RES1   0.0000
    25 F25     19.2141  54.8663  26.9737   F         1 RES1   0.0000
    26 C26     18.9928  54.1242  24.1977   C.3       1 RES1   0.0000
    27 N27     19.9093  53.0544  23.8728   N.3       1 RES1   1.0000
    28 C28     18.5441  54.8301  22.9157   C.3       1 RES1   0.0000
    29 N29     16.4538  57.7707  22.3215   N.2       1 RES1   0.0000
    30 C30     16.2619  58.7602  21.4267   C.2       1 RES1   0.0000
    31 N31     17.1993  58.9860  20.4945   N.2       1 RES1   0.0000
    32 C32     18.6604  59.1237  18.2539   C.2       1 RES1   0.0000
@<TRIPOS>BOND
     1     1     2    1
     2     2     3    2
     3     2     4    2
     4     2     5    1
     5     5     6    2
     6     6     7    1
     7     7     8    2
     8     8     9    1
     9     9    10    1
    10    10    11    2
    11    11    12    1
    12    12    13    1
    13    13    14    1
    14    14    15    1
    15    16    15    1
    16    16    17    1
    17    17    18    2
    18    18    19    1
    19    19    20    1
    20    19    21    2
    21    21    22    1
    22    21    23    1
    23    23    24    2
    24    24    25    1
    25    16    26    1
    26    26    27    1
    27    26    28    1
    28    12    29    2
    29    29    30    1
    30    30    31    2
    31     9    32    2
    32    32     5    1
    33    31    10    1
    34    28    13    1
    35    24    17    1
@<TRIPOS>SUBSTRUCTURE
     1 RES1        1 GROUP             0 ****  ****    0  
@<TRIPOS>MOLECULE
ligand_88
    32    35     1     0     0
SMALL
USER_CHARGES
****
Generated from the CSD

@<TRIPOS>ATOM
     1 C1      23.8115  59.6440  19.8650   C.3       1 RES1   0.0000
     2 S2      23.1063  58.2330  19.2926   S.o2      1 RES1   0.0000
     3 O3      23.8740  57.7167  18.1744   O.2       1 RES1   0.0000
     4 O4      23.0380  57.2624  20.3655   O.2       1 RES1   0.0000
     5 C5      21.6157  58.5788  18.7992   C.2       1 RES1   0.0000
     6 C6      21.2919  59.1100  17.5372   C.2       1 RES1   0.0000
     7 C7      19.9518  59.3757  17.2033   C.2       1 RES1   0.0000
     8 C8      18.9247  59.1163  18.1273   C.2       1 RES1   0.0000
     9 C9      19.2756  58.5951  19.3764   C.2       1 RES1   0.0000
    10 C10     18.3350  58.2370  20.4389   C.2       1 RES1   0.0000
    11 C11     18.5759  57.2160  21.3427   C.2       1 RES1   0.0000
    12 C12     17.5856  56.9988  22.3065   C.2       1 RES1   0.0000
    13 N13     17.7084  55.9977  23.2660   N.3       1 RES1   0.0000
    14 C14     16.4796  55.6084  23.9839   C.3       1 RES1   0.0000
    15 C15     16.8497  54.8737  25.2527   C.3       1 RES1   0.0000
    16 C16     17.7519  53.6722  24.9871   C.3       1 RES1   0.0000
    17 C17     18.0891  52.9419  26.2238   C.2       1 RES1   0.0000
    18 C18     17.6988  51.6168  26.4033   C.2       1 RES1   0.0000
    19 C19     18.0578  50.9493  27.5566   C.2       1 RES1   0.0000
    20 F20     17.6813  49.6770  27.7398   F         1 RES1   0.0000
    21 C21     18.7948  51.5982  28.5206   C.2       1 RES1   0.0000
    22 F22     19.1128  50.9354  29.6319   F         1 RES1   0.0000
    23 C23     19.2003  52.9202  28.3477   C.2       1 RES1   0.0000
    24 C24     18.8459  53.5926  27.1773   C.2       1 RES1   0.0000
    25 F25     19.2149  54.8660  26.9733   F         1 RES1   0.0000
    26 C26     18.9926  54.1240  24.1975   C.3       1 RES1   0.0000
    27 N27     19.9089  53.0539  23.8724   N.3       1 RES1   1.0000
    28 C28     18.5438  54.8299  22.9155   C.3       1 RES1   0.0000
    29 N29     16.4538  57.7707  22.3215   N.2       1 RES1   0.0000
    30 C30     16.2619  58.7602  21.4267   C.2       1 RES1   0.0000
    31 N31     17.1993  58.9860  20.4945   N.2       1 RES1   0.0000
    32 C32     20.5957  58.3282  19.6990   C.2       1 RES1   0.0000
@<TRIPOS>BOND
     1     1     2    1
     2     2     3    2
     3     2     4    2
     4     2     5    1
     5     5     6    2
     6     6     7    1
     7     7     8    2
     8     8     9    1
     9     9    10    1
    10    10    11    2
    11    11    12    1
    12    12    13    1
    13    13    14    1
    14    14    15    1
    15    16    15    1
    16    16    17    1
    17    17    18    2
    18    18    19    1
    19    19    20    1
    20    19    21    2
    21    21    22    1
    22    21    23    1
    23    23    24    2
    24    24    25    1
    25    16    26    1
    26    26    27    1
    27    26    28    1
    28    12    29    2
    29    29    30    1
    30    30    31    2
    31     9    32    2
    32    32     5    1
    33    31    10    1
    34    28    13    1
    35    24    17    1
@<TRIPOS>SUBSTRUCTURE
     1 RES1        1 GROUP             0 ****  ****    0  
@<TRIPOS>MOLECULE
ligand_89
    32    35     1     0     0
SMALL
USER_CHARGES
****
Generated from the CSD

@<TRIPOS>ATOM
     1 C1      23.1166  56.2417  18.1027   C.3       1 RES1   0.0000
     2 S2      21.6249  56.3276  17.3389   S.o2      1 RES1   0.0000
     3 O3      21.8104  56.3913  15.9009   O.2       1 RES1   0.0000
     4 O4      20.8310  55.1737  17.7076   O.2       1 RES1   0.0000
     5 C5      20.8792  57.6616  17.8380   C.2       1 RES1   0.0000
     6 C6      21.0915  58.9462  17.3046   C.2       1 RES1   0.0000
     7 C7      20.3842  60.0502  17.8134   C.2       1 RES1   0.0000
     8 C8      19.4617  59.8813  18.8605   C.2       1 RES1   0.0000
     9 C9      19.2756  58.5951  19.3764   C.2       1 RES1   0.0000
    10 C10     18.3350  58.2370  20.4389   C.2       1 RES1   0.0000
    11 C11     18.5759  57.2160  21.3427   C.2       1 RES1   0.0000
    12 C12     17.5856  56.9988  22.3065   C.2       1 RES1   0.0000
    13 N13     17.7084  55.9977  23.2660   N.3       1 RES1   0.0000
    14 C14     16.4796  55.6081  23.9837   C.3       1 RES1   0.0000
    15 C15     16.8495  54.8735  25.2525   C.3       1 RES1   0.0000
    16 C16     17.7520  53.6722  24.9870   C.3       1 RES1   0.0000
    17 C17     18.0891  52.9419  26.2238   C.2       1 RES1   0.0000
    18 C18     17.6991  51.6167  26.4032   C.2       1 RES1   0.0000
    19 C19     18.0580  50.9493  27.5565   C.2       1 RES1   0.0000
    20 F20     17.6818  49.6768  27.7396   F         1 RES1   0.0000
    21 C21     18.7946  51.5983  28.5207   C.2       1 RES1   0.0000
    22 F22     19.1125  50.9355  29.6321   F         1 RES1   0.0000
    23 C23     19.1997  52.9204  28.3480   C.2       1 RES1   0.0000
    24 C24     18.8455  53.5927  27.1776   C.2       1 RES1   0.0000
    25 F25     19.2142  54.8663  26.9736   F         1 RES1   0.0000
    26 C26     18.9928  54.1242  24.1977   C.3       1 RES1   0.0000
    27 N27     19.9093  53.0543  23.8727   N.3       1 RES1   1.0000
    28 C28     18.5441  54.8301  22.9157   C.3       1 RES1   0.0000
    29 N29     16.4538  57.7707  22.3215   N.2       1 RES1   0.0000
    30 C30     16.2619  58.7602  21.4267   C.2       1 RES1   0.0000
    31 N31     17.1993  58.9860  20.4945   N.2       1 RES1   0.0000
    32 C32     19.9689  57.5093  18.8681   C.2       1 RES1   0.0000
@<TRIPOS>BOND
     1     1     2    1
     2     2     3    2
     3     2     4    2
     4     2     5    1
     5     5     6    2
     6     6     7    1
     7     7     8    2
     8     8     9    1
     9     9    10    1
    10    10    11    2
    11    11    12    1
    12    12    13    1
    13    13    14    1
    14    14    15    1
    15    16    15    1
    16    16    17    1
    17    17    18    2
    18    18    19    1
    19    19    20    1
    20    19    21    2
    21    21    22    1
    22    21    23    1
    23    23    24    2
    24    24    25    1
    25    16    26    1
    26    26    27    1
    27    26    28    1
    28    12    29    2
    29    29    30    1
    30    30    31    2
    31     9    32    2
    32    32     5    1
    33    31    10    1
    34    28    13    1
    35    24    17    1
@<TRIPOS>SUBSTRUCTURE
     1 RES1        1 GROUP             0 ****  ****    0  
@<TRIPOS>MOLECULE
ligand_90
    32    35     1     0     0
SMALL
USER_CHARGES
****
Generated from the CSD

@<TRIPOS>ATOM
     1 C1      19.0702  62.3409  16.5763   C.3       1 RES1   0.0000
     2 S2      20.0701  62.0567  17.8936   S.o2      1 RES1   0.0000
     3 O3      21.4019  62.5645  17.6203   O.2       1 RES1   0.0000
     4 O4      19.5061  62.6892  19.0682   O.2       1 RES1   0.0000
     5 C5      20.1461  60.4690  18.1354   C.2       1 RES1   0.0000
     6 C6      21.0054  59.5934  17.4465   C.2       1 RES1   0.0000
     7 C7      20.9945  58.2170  17.7358   C.2       1 RES1   0.0000
     8 C8      20.1237  57.7034  18.7124   C.2       1 RES1   0.0000
     9 C9      19.2756  58.5951  19.3764   C.2       1 RES1   0.0000
    10 C10     18.3350  58.2370  20.4389   C.2       1 RES1   0.0000
    11 C11     18.5759  57.2160  21.3427   C.2       1 RES1   0.0000
    12 C12     17.5856  56.9988  22.3065   C.2       1 RES1   0.0000
    13 N13     17.7084  55.9977  23.2660   N.3       1 RES1   0.0000
    14 C14     16.4795  55.6081  23.9836   C.3       1 RES1   0.0000
    15 C15     16.8495  54.8735  25.2525   C.3       1 RES1   0.0000
    16 C16     17.7520  53.6722  24.9870   C.3       1 RES1   0.0000
    17 C17     18.0891  52.9419  26.2238   C.2       1 RES1   0.0000
    18 C18     17.6992  51.6167  26.4031   C.2       1 RES1   0.0000
    19 C19     18.0580  50.9493  27.5565   C.2       1 RES1   0.0000
    20 F20     17.6819  49.6768  27.7395   F         1 RES1   0.0000
    21 C21     18.7945  51.5983  28.5208   C.2       1 RES1   0.0000
    22 F22     19.1124  50.9355  29.6321   F         1 RES1   0.0000
    23 C23     19.1996  52.9204  28.3480   C.2       1 RES1   0.0000
    24 C24     18.8454  53.5928  27.1776   C.2       1 RES1   0.0000
    25 F25     19.2141  54.8663  26.9737   F         1 RES1   0.0000
    26 C26     18.9928  54.1242  24.1978   C.3       1 RES1   0.0000
    27 N27     19.9094  53.0544  23.8728   N.3       1 RES1   1.0000
    28 C28     18.5441  54.8301  22.9157   C.3       1 RES1   0.0000
    29 N29     16.4538  57.7707  22.3215   N.2       1 RES1   0.0000
    30 C30     16.2619  58.7602  21.4267   C.2       1 RES1   0.0000
    31 N31     17.1993  58.9860  20.4945   N.2       1 RES1   0.0000
    32 C32     19.2942  59.9507  19.0938   C.2       1 RES1   0.0000
@<TRIPOS>BOND
     1     1     2    1
     2     2     3    2
     3     2     4    2
     4     2     5    1
     5     5     6    2
     6     6     7    1
     7     7     8    2
     8     8     9    1
     9     9    10    1
    10    10    11    2
    11    11    12    1
    12    12    13    1
    13    13    14    1
    14    14    15    1
    15    16    15    1
    16    16    17    1
    17    17    18    2
    18    18    19    1
    19    19    20    1
    20    19    21    2
    21    21    22    1
    22    21    23    1
    23    23    24    2
    24    24    25    1
    25    16    26    1
    26    26    27    1
    27    26    28    1
    28    12    29    2
    29    29    30    1
    30    30    31    2
    31     9    32    2
    32    32     5    1
    33    31    10    1
    34    28    13    1
    35    24    17    1
@<TRIPOS>SUBSTRUCTURE
     1 RES1        1 GROUP             0 ****  ****    0  
@<TRIPOS>MOLECULE
ligand_91
    32    35     1     0     0
SMALL
USER_CHARGES
****
Generated from the CSD

@<TRIPOS>ATOM
     1 C1      18.3665  58.9041  14.7947   C.3       1 RES1   0.0000
     2 S2      18.5722  60.1327  15.9190   S.o2      1 RES1   0.0000
     3 O3      19.3159  61.2271  15.3228   O.2       1 RES1   0.0000
     4 O4      17.2749  60.5802  16.3821   O.2       1 RES1   0.0000
     5 C5      19.4013  59.5429  17.1639   C.2       1 RES1   0.0000
     6 C6      20.8028  59.4280  17.2115   C.2       1 RES1   0.0000
     7 C7      21.4317  58.8982  18.3525   C.2       1 RES1   0.0000
     8 C8      20.6667  58.4760  19.4535   C.2       1 RES1   0.0000
     9 C9      19.2756  58.5951  19.3764   C.2       1 RES1   0.0000
    10 C10     18.3350  58.2370  20.4389   C.2       1 RES1   0.0000
    11 C11     18.5759  57.2160  21.3427   C.2       1 RES1   0.0000
    12 C12     17.5856  56.9988  22.3065   C.2       1 RES1   0.0000
    13 N13     17.7084  55.9977  23.2660   N.3       1 RES1   0.0000
    14 C14     16.4795  55.6081  23.9836   C.3       1 RES1   0.0000
    15 C15     16.8495  54.8735  25.2524   C.3       1 RES1   0.0000
    16 C16     17.7520  53.6722  24.9870   C.3       1 RES1   0.0000
    17 C17     18.0891  52.9419  26.2238   C.2       1 RES1   0.0000
    18 C18     17.6992  51.6166  26.4031   C.2       1 RES1   0.0000
    19 C19     18.0581  50.9492  27.5564   C.2       1 RES1   0.0000
    20 F20     17.6819  49.6768  27.7395   F         1 RES1   0.0000
    21 C21     18.7945  51.5983  28.5208   C.2       1 RES1   0.0000
    22 F22     19.1124  50.9355  29.6321   F         1 RES1   0.0000
    23 C23     19.1996  52.9204  28.3481   C.2       1 RES1   0.0000
    24 C24     18.8454  53.5928  27.1776   C.2       1 RES1   0.0000
    25 F25     19.2140  54.8664  26.9737   F         1 RES1   0.0000
    26 C26     18.9928  54.1242  24.1978   C.3       1 RES1   0.0000
    27 N27     19.9094  53.0544  23.8728   N.3       1 RES1   1.0000
    28 C28     18.5442  54.8301  22.9157   C.3       1 RES1   0.0000
    29 N29     16.4538  57.7707  22.3215   N.2       1 RES1   0.0000
    30 C30     16.2619  58.7602  21.4267   C.2       1 RES1   0.0000
    31 N31     17.1993  58.9860  20.4945   N.2       1 RES1   0.0000
    32 C32     18.6604  59.1238  18.2539   C.2       1 RES1   0.0000
@<TRIPOS>BOND
     1     1     2    1
     2     2     3    2
     3     2     4    2
     4     2     5    1
     5     5     6    2
     6     6     7    1
     7     7     8    2
     8     8     9    1
     9     9    10    1
    10    10    11    2
    11    11    12    1
    12    12    13    1
    13    13    14    1
    14    14    15    1
    15    16    15    1
    16    16    17    1
    17    17    18    2
    18    18    19    1
    19    19    20    1
    20    19    21    2
    21    21    22    1
    22    21    23    1
    23    23    24    2
    24    24    25    1
    25    16    26    1
    26    26    27    1
    27    26    28    1
    28    12    29    2
    29    29    30    1
    30    30    31    2
    31     9    32    2
    32    32     5    1
    33    31    10    1
    34    28    13    1
    35    24    17    1
@<TRIPOS>SUBSTRUCTURE
     1 RES1        1 GROUP             0 ****  ****    0  
@<TRIPOS>MOLECULE
ligand_92
    32    35     1     0     0
SMALL
USER_CHARGES
****
Generated from the CSD

@<TRIPOS>ATOM
     1 C1      13.5079  56.6976  14.5489   C.3       1 RES1   0.0000
     2 S2      15.1493  56.3485  14.5518   S.o2      1 RES1   0.0000
     3 O3      15.5828  56.0061  13.2098   O.2       1 RES1   0.0000
     4 O4      15.8812  57.4920  15.0562   O.2       1 RES1   0.0000
     5 C5      15.3959  55.0936  15.5262   C.2       1 RES1   0.0000
     6 C6      15.8023  53.8156  15.1003   C.2       1 RES1   0.0000
     7 C7      15.9919  52.7840  16.0372   C.2       1 RES1   0.0000
     8 C8      15.7744  53.0188  17.4060   C.2       1 RES1   0.0000
     9 C9      15.3642  54.2960  17.8004   C.2       1 RES1   0.0000
    10 C10     15.1262  54.7201  19.1808   C.2       1 RES1   0.0000
    11 C11     15.8378  54.2141  20.2554   C.2       1 RES1   0.0000
    12 C12     15.5011  54.7244  21.5135   C.2       1 RES1   0.0000
    13 N13     16.1402  54.2904  22.6717   N.3       1 RES1   0.0000
    14 C14     17.3160  53.4166  22.4966   C.3       1 RES1   0.0000
    15 C15     17.6021  52.6925  23.7929   C.3       1 RES1   0.0000
    16 C16     17.7817  53.6505  24.9669   C.3       1 RES1   0.0000
    17 C17     18.0873  52.9425  26.2246   C.2       1 RES1   0.0000
    18 C18     17.6393  51.6416  26.4424   C.2       1 RES1   0.0000
    19 C19     17.9693  50.9930  27.6149   C.2       1 RES1   0.0000
    20 F20     17.5374  49.7443  27.8349   F         1 RES1   0.0000
    21 C21     18.7346  51.6367  28.5601   C.2       1 RES1   0.0000
    22 F22     19.0239  50.9932  29.6905   F         1 RES1   0.0000
    23 C23     19.1976  52.9340  28.3490   C.2       1 RES1   0.0000
    24 C24     18.8724  53.5869  27.1593   C.2       1 RES1   0.0000
    25 F25     19.2969  54.8364  26.9184   F         1 RES1   0.0000
    26 C26     16.5515  54.5680  25.0762   C.3       1 RES1   0.0000
    27 N27     16.6277  55.5342  26.1489   N.3       1 RES1   1.0000
    28 C28     16.3415  55.2892  23.7424   C.3       1 RES1   0.0000
    29 N29     14.5154  55.6679  21.6362   N.2       1 RES1   0.0000
    30 C30     13.8514  56.1393  20.5621   C.2       1 RES1   0.0000
    31 N31     14.1590  55.6642  19.3463   N.2       1 RES1   0.0000
    32 C32     15.1852  55.3112  16.8757   C.2       1 RES1   0.0000
@<TRIPOS>BOND
     1     1     2    1
     2     2     3    2
     3     2     4    2
     4     2     5    1
     5     5     6    2
     6     6     7    1
     7     7     8    2
     8     8     9    1
     9     9    10    1
    10    10    11    2
    11    11    12    1
    12    12    13    1
    13    13    14    1
    14    14    15    1
    15    16    15    1
    16    16    17    1
    17    17    18    2
    18    18    19    1
    19    19    20    1
    20    19    21    2
    21    21    22    1
    22    21    23    1
    23    23    24    2
    24    24    25    1
    25    16    26    1
    26    26    27    1
    27    26    28    1
    28    12    29    2
    29    29    30    1
    30    30    31    2
    31     9    32    2
    32    32     5    1
    33    31    10    1
    34    28    13    1
    35    24    17    1
@<TRIPOS>SUBSTRUCTURE
     1 RES1        1 GROUP             0 ****  ****    0  
@<TRIPOS>MOLECULE
ligand_93
    32    35     1     0     0
SMALL
USER_CHARGES
****
Generated from the CSD

@<TRIPOS>ATOM
     1 C1      16.6318  56.8343  13.9342   C.3       1 RES1   0.0000
     2 S2      15.1490  56.3484  14.5518   S.o2      1 RES1   0.0000
     3 O3      14.5510  57.4329  15.3085   O.2       1 RES1   0.0000
     4 O4      14.2867  55.9408  13.4619   O.2       1 RES1   0.0000
     5 C5      15.3957  55.0936  15.5261   C.2       1 RES1   0.0000
     6 C6      15.8022  53.8156  15.1003   C.2       1 RES1   0.0000
     7 C7      15.9920  52.7840  16.0372   C.2       1 RES1   0.0000
     8 C8      15.7745  53.0188  17.4060   C.2       1 RES1   0.0000
     9 C9      15.3642  54.2960  17.8004   C.2       1 RES1   0.0000
    10 C10     15.1262  54.7201  19.1808   C.2       1 RES1   0.0000
    11 C11     15.8378  54.2141  20.2554   C.2       1 RES1   0.0000
    12 C12     15.5011  54.7244  21.5135   C.2       1 RES1   0.0000
    13 N13     16.1402  54.2904  22.6717   N.3       1 RES1   0.0000
    14 C14     17.3160  53.4167  22.4966   C.3       1 RES1   0.0000
    15 C15     17.6021  52.6926  23.7929   C.3       1 RES1   0.0000
    16 C16     17.7817  53.6505  24.9669   C.3       1 RES1   0.0000
    17 C17     18.0873  52.9425  26.2246   C.2       1 RES1   0.0000
    18 C18     17.6394  51.6415  26.4423   C.2       1 RES1   0.0000
    19 C19     17.9694  50.9929  27.6148   C.2       1 RES1   0.0000
    20 F20     17.5376  49.7441  27.8348   F         1 RES1   0.0000
    21 C21     18.7346  51.6367  28.5601   C.2       1 RES1   0.0000
    22 F22     19.0239  50.9932  29.6905   F         1 RES1   0.0000
    23 C23     19.1975  52.9340  28.3491   C.2       1 RES1   0.0000
    24 C24     18.8723  53.5869  27.1594   C.2       1 RES1   0.0000
    25 F25     19.2967  54.8365  26.9185   F         1 RES1   0.0000
    26 C26     16.5515  54.5679  25.0762   C.3       1 RES1   0.0000
    27 N27     16.6276  55.5342  26.1489   N.3       1 RES1   1.0000
    28 C28     16.3414  55.2892  23.7425   C.3       1 RES1   0.0000
    29 N29     14.5154  55.6679  21.6362   N.2       1 RES1   0.0000
    30 C30     13.8514  56.1393  20.5621   C.2       1 RES1   0.0000
    31 N31     14.1590  55.6642  19.3463   N.2       1 RES1   0.0000
    32 C32     15.1851  55.3112  16.8756   C.2       1 RES1   0.0000
@<TRIPOS>BOND
     1     1     2    1
     2     2     3    2
     3     2     4    2
     4     2     5    1
     5     5     6    2
     6     6     7    1
     7     7     8    2
     8     8     9    1
     9     9    10    1
    10    10    11    2
    11    11    12    1
    12    12    13    1
    13    13    14    1
    14    14    15    1
    15    16    15    1
    16    16    17    1
    17    17    18    2
    18    18    19    1
    19    19    20    1
    20    19    21    2
    21    21    22    1
    22    21    23    1
    23    23    24    2
    24    24    25    1
    25    16    26    1
    26    26    27    1
    27    26    28    1
    28    12    29    2
    29    29    30    1
    30    30    31    2
    31     9    32    2
    32    32     5    1
    33    31    10    1
    34    28    13    1
    35    24    17    1
@<TRIPOS>SUBSTRUCTURE
     1 RES1        1 GROUP             0 ****  ****    0  
@<TRIPOS>MOLECULE
ligand_94
    32    35     1     0     0
SMALL
USER_CHARGES
****
Generated from the CSD

@<TRIPOS>ATOM
     1 C1      21.7037  58.3798  19.5261   C.3       1 RES1   0.0000
     2 S2      21.6819  57.6675  18.0069   S.o2      1 RES1   0.0000
     3 O3      22.3789  58.5136  17.0557   O.2       1 RES1   0.0000
     4 O4      22.2971  56.3585  18.0829   O.2       1 RES1   0.0000
     5 C5      20.1495  57.5038  17.5489   C.2       1 RES1   0.0000
     6 C6      19.5481  58.2131  16.4930   C.2       1 RES1   0.0000
     7 C7      18.1966  57.9935  16.1715   C.2       1 RES1   0.0000
     8 C8      17.4340  57.0668  16.9033   C.2       1 RES1   0.0000
     9 C9      18.0550  56.3812  17.9518   C.2       1 RES1   0.0000
    10 C10     17.4213  55.3627  18.7903   C.2       1 RES1   0.0000
    11 C11     17.7570  55.1686  20.1195   C.2       1 RES1   0.0000
    12 C12     17.0568  54.1617  20.7920   C.2       1 RES1   0.0000
    13 N13     17.3081  53.8663  22.1290   N.3       1 RES1   0.0000
    14 C14     18.5956  54.3273  22.6828   C.3       1 RES1   0.0000
    15 C15     18.9003  53.5627  23.9512   C.3       1 RES1   0.0000
    16 C16     17.7759  53.6666  24.9774   C.3       1 RES1   0.0000
    17 C17     18.0878  52.9419  26.2240   C.2       1 RES1   0.0000
    18 C18     17.7167  51.6096  26.3911   C.2       1 RES1   0.0000
    19 C19     18.0518  50.9482  27.5550   C.2       1 RES1   0.0000
    20 F20     17.6934  49.6690  27.7263   F         1 RES1   0.0000
    21 C21     18.7461  51.6100  28.5417   C.2       1 RES1   0.0000
    22 F22     19.0415  50.9524  29.6623   F         1 RES1   0.0000
    23 C23     19.1322  52.9393  28.3816   C.2       1 RES1   0.0000
    24 C24     18.8022  53.6058  27.2008   C.2       1 RES1   0.0000
    25 F25     19.1538  54.8860  27.0085   F         1 RES1   0.0000
    26 C26     16.4506  53.2194  24.3368   C.3       1 RES1   0.0000
    27 N27     15.3095  53.2995  25.2209   N.3       1 RES1   1.0000
    28 C28     16.1923  54.0542  23.0799   C.3       1 RES1   0.0000
    29 N29     16.1023  53.4278  20.1383   N.2       1 RES1   0.0000
    30 C30     15.8009  53.6543  18.8442   C.2       1 RES1   0.0000
    31 N31     16.4597  54.6157  18.1808   N.2       1 RES1   0.0000
    32 C32     19.3879  56.5949  18.2609   C.2       1 RES1   0.0000
@<TRIPOS>BOND
     1     1     2    1
     2     2     3    2
     3     2     4    2
     4     2     5    1
     5     5     6    2
     6     6     7    1
     7     7     8    2
     8     8     9    1
     9     9    10    1
    10    10    11    2
    11    11    12    1
    12    12    13    1
    13    13    14    1
    14    14    15    1
    15    16    15    1
    16    16    17    1
    17    17    18    2
    18    18    19    1
    19    19    20    1
    20    19    21    2
    21    21    22    1
    22    21    23    1
    23    23    24    2
    24    24    25    1
    25    16    26    1
    26    26    27    1
    27    26    28    1
    28    12    29    2
    29    29    30    1
    30    30    31    2
    31     9    32    2
    32    32     5    1
    33    31    10    1
    34    28    13    1
    35    24    17    1
@<TRIPOS>SUBSTRUCTURE
     1 RES1        1 GROUP             0 ****  ****    0  
@<TRIPOS>MOLECULE
ligand_95
    32    35     1     0     0
SMALL
USER_CHARGES
****
Generated from the CSD

@<TRIPOS>ATOM
     1 C1      22.6621  57.0436  16.7947   C.3       1 RES1   0.0000
     2 S2      21.6822  57.6667  18.0061   S.o2      1 RES1   0.0000
     3 O3      21.8955  56.9319  19.2394   O.2       1 RES1   0.0000
     4 O4      21.9771  59.0735  18.1843   O.2       1 RES1   0.0000
     5 C5      20.1497  57.5034  17.5486   C.2       1 RES1   0.0000
     6 C6      19.5481  58.2130  16.4930   C.2       1 RES1   0.0000
     7 C7      18.1965  57.9938  16.1718   C.2       1 RES1   0.0000
     8 C8      17.4339  57.0671  16.9036   C.2       1 RES1   0.0000
     9 C9      18.0550  56.3812  17.9518   C.2       1 RES1   0.0000
    10 C10     17.4213  55.3627  18.7903   C.2       1 RES1   0.0000
    11 C11     17.7570  55.1686  20.1195   C.2       1 RES1   0.0000
    12 C12     17.0568  54.1617  20.7920   C.2       1 RES1   0.0000
    13 N13     17.3081  53.8663  22.1290   N.3       1 RES1   0.0000
    14 C14     18.5957  54.3271  22.6827   C.3       1 RES1   0.0000
    15 C15     18.9003  53.5624  23.9512   C.3       1 RES1   0.0000
    16 C16     17.7760  53.6666  24.9774   C.3       1 RES1   0.0000
    17 C17     18.0878  52.9419  26.2240   C.2       1 RES1   0.0000
    18 C18     17.7164  51.6097  26.3912   C.2       1 RES1   0.0000
    19 C19     18.0515  50.9482  27.5551   C.2       1 RES1   0.0000
    20 F20     17.6928  49.6691  27.7264   F         1 RES1   0.0000
    21 C21     18.7460  51.6099  28.5417   C.2       1 RES1   0.0000
    22 F22     19.0413  50.9523  29.6623   F         1 RES1   0.0000
    23 C23     19.1323  52.9392  28.3816   C.2       1 RES1   0.0000
    24 C24     18.8024  53.6057  27.2007   C.2       1 RES1   0.0000
    25 F25     19.1542  54.8859  27.0083   F         1 RES1   0.0000
    26 C26     16.4505  53.2197  24.3368   C.3       1 RES1   0.0000
    27 N27     15.3095  53.2999  25.2210   N.3       1 RES1   1.0000
    28 C28     16.1924  54.0544  23.0799   C.3       1 RES1   0.0000
    29 N29     16.1023  53.4278  20.1383   N.2       1 RES1   0.0000
    30 C30     15.8009  53.6543  18.8442   C.2       1 RES1   0.0000
    31 N31     16.4597  54.6157  18.1808   N.2       1 RES1   0.0000
    32 C32     19.3881  56.5946  18.2606   C.2       1 RES1   0.0000
@<TRIPOS>BOND
     1     1     2    1
     2     2     3    2
     3     2     4    2
     4     2     5    1
     5     5     6    2
     6     6     7    1
     7     7     8    2
     8     8     9    1
     9     9    10    1
    10    10    11    2
    11    11    12    1
    12    12    13    1
    13    13    14    1
    14    14    15    1
    15    16    15    1
    16    16    17    1
    17    17    18    2
    18    18    19    1
    19    19    20    1
    20    19    21    2
    21    21    22    1
    22    21    23    1
    23    23    24    2
    24    24    25    1
    25    16    26    1
    26    26    27    1
    27    26    28    1
    28    12    29    2
    29    29    30    1
    30    30    31    2
    31     9    32    2
    32    32     5    1
    33    31    10    1
    34    28    13    1
    35    24    17    1
@<TRIPOS>SUBSTRUCTURE
     1 RES1        1 GROUP             0 ****  ****    0  
@<TRIPOS>MOLECULE
ligand_96
    32    35     1     0     0
SMALL
USER_CHARGES
****
Generated from the CSD

@<TRIPOS>ATOM
     1 C1      10.3491  56.9542  19.0906   C.3       1 RES1   0.0000
     2 S2      10.8691  55.4244  19.5434   S.o2      1 RES1   0.0000
     3 O3      11.4191  55.4679  20.8857   O.2       1 RES1   0.0000
     4 O4       9.7572  54.4992  19.4695   O.2       1 RES1   0.0000
     5 C5      12.0132  54.9563  18.5153   C.2       1 RES1   0.0000
     6 C6      11.7947  54.6417  17.1615   C.2       1 RES1   0.0000
     7 C7      12.8680  54.2429  16.3448   C.2       1 RES1   0.0000
     8 C8      14.1672  54.1519  16.8736   C.2       1 RES1   0.0000
     9 C9      14.3545  54.4636  18.2238   C.2       1 RES1   0.0000
    10 C10     15.6394  54.4541  18.9245   C.2       1 RES1   0.0000
    11 C11     15.7608  54.1350  20.2664   C.2       1 RES1   0.0000
    12 C12     17.0568  54.1617  20.7920   C.2       1 RES1   0.0000
    13 N13     17.3081  53.8663  22.1290   N.3       1 RES1   0.0000
    14 C14     18.6200  54.2748  22.6666   C.3       1 RES1   0.0000
    15 C15     18.9034  53.5077  23.9385   C.3       1 RES1   0.0000
    16 C16     17.7948  53.6692  24.9744   C.3       1 RES1   0.0000
    17 C17     18.0869  52.9415  26.2241   C.2       1 RES1   0.0000
    18 C18     17.6591  51.6283  26.4062   C.2       1 RES1   0.0000
    19 C19     17.9763  50.9622  27.5723   C.2       1 RES1   0.0000
    20 F20     17.5635  49.7015  27.7580   F         1 RES1   0.0000
    21 C21     18.7091  51.6006  28.5465   C.2       1 RES1   0.0000
    22 F22     18.9864  50.9397  29.6698   F         1 RES1   0.0000
    23 C23     19.1519  52.9102  28.3714   C.2       1 RES1   0.0000
    24 C24     18.8397  53.5810  27.1882   C.2       1 RES1   0.0000
    25 F25     19.2455  54.8429  26.9815   F         1 RES1   0.0000
    26 C26     16.4449  53.2755  24.3502   C.3       1 RES1   0.0000
    27 N27     15.3172  53.4126  25.2445   N.3       1 RES1   1.0000
    28 C28     16.2110  54.1106  23.0888   C.3       1 RES1   0.0000
    29 N29     18.1202  54.4927  19.9942   N.2       1 RES1   0.0000
    30 C30     17.9586  54.7902  18.6895   C.2       1 RES1   0.0000
    31 N31     16.7245  54.7698  18.1650   N.2       1 RES1   0.0000
    32 C32     13.2963  54.8626  19.0231   C.2       1 RES1   0.0000
@<TRIPOS>BOND
     1     1     2    1
     2     2     3    2
     3     2     4    2
     4     2     5    1
     5     5     6    2
     6     6     7    1
     7     7     8    2
     8     8     9    1
     9     9    10    1
    10    10    11    2
    11    11    12    1
    12    12    13    1
    13    13    14    1
    14    14    15    1
    15    16    15    1
    16    16    17    1
    17    17    18    2
    18    18    19    1
    19    19    20    1
    20    19    21    2
    21    21    22    1
    22    21    23    1
    23    23    24    2
    24    24    25    1
    25    16    26    1
    26    26    27    1
    27    26    28    1
    28    12    29    2
    29    29    30    1
    30    30    31    2
    31     9    32    2
    32    32     5    1
    33    31    10    1
    34    28    13    1
    35    24    17    1
@<TRIPOS>SUBSTRUCTURE
     1 RES1        1 GROUP             0 ****  ****    0  
@<TRIPOS>MOLECULE
ligand_97
    32    35     1     0     0
SMALL
USER_CHARGES
****
Generated from the CSD

@<TRIPOS>ATOM
     1 C1      15.3200  61.9621  17.1484   C.3       1 RES1   0.0000
     2 S2      14.0350  60.9433  17.5042   S.o2      1 RES1   0.0000
     3 O3      12.7823  61.5935  17.1666   O.2       1 RES1   0.0000
     4 O4      14.1890  59.7041  16.7704   O.2       1 RES1   0.0000
     5 C5      14.0625  60.6291  19.0807   C.2       1 RES1   0.0000
     6 C6      13.0992  61.0752  20.0041   C.2       1 RES1   0.0000
     7 C7      13.2155  60.7422  21.3656   C.2       1 RES1   0.0000
     8 C8      14.2958  59.9641  21.8166   C.2       1 RES1   0.0000
     9 C9      15.2422  59.5403  20.8786   C.2       1 RES1   0.0000
    10 C10     16.4048  58.7001  21.1691   C.2       1 RES1   0.0000
    11 C11     16.4007  57.7263  22.1534   C.2       1 RES1   0.0000
    12 C12     17.5856  56.9988  22.3065   C.2       1 RES1   0.0000
    13 N13     17.7084  55.9977  23.2660   N.3       1 RES1   0.0000
    14 C14     16.4785  55.6041  23.9796   C.3       1 RES1   0.0000
    15 C15     16.8466  54.8701  25.2493   C.3       1 RES1   0.0000
    16 C16     17.7536  53.6716  24.9862   C.3       1 RES1   0.0000
    17 C17     18.0890  52.9419  26.2238   C.2       1 RES1   0.0000
    18 C18     17.7025  51.6154  26.4014   C.2       1 RES1   0.0000
    19 C19     18.0598  50.9487  27.5556   C.2       1 RES1   0.0000
    20 F20     17.6868  49.6750  27.7370   F         1 RES1   0.0000
    21 C21     18.7913  51.5996  28.5225   C.2       1 RES1   0.0000
    22 F22     19.1077  50.9373  29.6346   F         1 RES1   0.0000
    23 C23     19.1929  52.9229  28.3515   C.2       1 RES1   0.0000
    24 C24     18.8403  53.5947  27.1802   C.2       1 RES1   0.0000
    25 F25     19.2058  54.8694  26.9780   F         1 RES1   0.0000
    26 C26     18.9956  54.1278  24.2011   C.3       1 RES1   0.0000
    27 N27     19.9163  53.0608  23.8786   N.3       1 RES1   1.0000
    28 C28     18.5488  54.8328  22.9179   C.3       1 RES1   0.0000
    29 N29     18.6688  57.2657  21.5113   N.2       1 RES1   0.0000
    30 C30     18.6282  58.2188  20.5590   C.2       1 RES1   0.0000
    31 N31     17.5015  58.9275  20.3948   N.2       1 RES1   0.0000
    32 C32     15.1205  59.8643  19.5377   C.2       1 RES1   0.0000
@<TRIPOS>BOND
     1     1     2    1
     2     2     3    2
     3     2     4    2
     4     2     5    1
     5     5     6    2
     6     6     7    1
     7     7     8    2
     8     8     9    1
     9     9    10    1
    10    10    11    2
    11    11    12    1
    12    12    13    1
    13    13    14    1
    14    14    15    1
    15    16    15    1
    16    16    17    1
    17    17    18    2
    18    18    19    1
    19    19    20    1
    20    19    21    2
    21    21    22    1
    22    21    23    1
    23    23    24    2
    24    24    25    1
    25    16    26    1
    26    26    27    1
    27    26    28    1
    28    12    29    2
    29    29    30    1
    30    30    31    2
    31     9    32    2
    32    32     5    1
    33    31    10    1
    34    28    13    1
    35    24    17    1
@<TRIPOS>SUBSTRUCTURE
     1 RES1        1 GROUP             0 ****  ****    0  
@<TRIPOS>MOLECULE
ligand_98
    32    35     1     0     0
SMALL
USER_CHARGES
****
Generated from the CSD

@<TRIPOS>ATOM
     1 C1      12.7448  60.1131  16.8248   C.3       1 RES1   0.0000
     2 S2      14.0351  60.9434  17.5042   S.o2      1 RES1   0.0000
     3 O3      15.2791  60.4973  16.9045   O.2       1 RES1   0.0000
     4 O4      13.8465  62.3658  17.3070   O.2       1 RES1   0.0000
     5 C5      14.0626  60.6291  19.0807   C.2       1 RES1   0.0000
     6 C6      13.0992  61.0752  20.0041   C.2       1 RES1   0.0000
     7 C7      13.2155  60.7421  21.3656   C.2       1 RES1   0.0000
     8 C8      14.2958  59.9641  21.8166   C.2       1 RES1   0.0000
     9 C9      15.2422  59.5403  20.8786   C.2       1 RES1   0.0000
    10 C10     16.4048  58.7001  21.1691   C.2       1 RES1   0.0000
    11 C11     16.4007  57.7263  22.1534   C.2       1 RES1   0.0000
    12 C12     17.5856  56.9988  22.3065   C.2       1 RES1   0.0000
    13 N13     17.7084  55.9977  23.2660   N.3       1 RES1   0.0000
    14 C14     16.4785  55.6041  23.9796   C.3       1 RES1   0.0000
    15 C15     16.8466  54.8701  25.2493   C.3       1 RES1   0.0000
    16 C16     17.7536  53.6716  24.9862   C.3       1 RES1   0.0000
    17 C17     18.0890  52.9419  26.2238   C.2       1 RES1   0.0000
    18 C18     17.7025  51.6154  26.4014   C.2       1 RES1   0.0000
    19 C19     18.0598  50.9487  27.5556   C.2       1 RES1   0.0000
    20 F20     17.6869  49.6750  27.7370   F         1 RES1   0.0000
    21 C21     18.7913  51.5996  28.5225   C.2       1 RES1   0.0000
    22 F22     19.1077  50.9373  29.6346   F         1 RES1   0.0000
    23 C23     19.1929  52.9229  28.3515   C.2       1 RES1   0.0000
    24 C24     18.8403  53.5947  27.1802   C.2       1 RES1   0.0000
    25 F25     19.2058  54.8695  26.9780   F         1 RES1   0.0000
    26 C26     18.9955  54.1278  24.2011   C.3       1 RES1   0.0000
    27 N27     19.9163  53.0608  23.8786   N.3       1 RES1   1.0000
    28 C28     18.5488  54.8328  22.9179   C.3       1 RES1   0.0000
    29 N29     18.6688  57.2657  21.5113   N.2       1 RES1   0.0000
    30 C30     18.6282  58.2188  20.5590   C.2       1 RES1   0.0000
    31 N31     17.5015  58.9275  20.3948   N.2       1 RES1   0.0000
    32 C32     15.1205  59.8644  19.5377   C.2       1 RES1   0.0000
@<TRIPOS>BOND
     1     1     2    1
     2     2     3    2
     3     2     4    2
     4     2     5    1
     5     5     6    2
     6     6     7    1
     7     7     8    2
     8     8     9    1
     9     9    10    1
    10    10    11    2
    11    11    12    1
    12    12    13    1
    13    13    14    1
    14    14    15    1
    15    16    15    1
    16    16    17    1
    17    17    18    2
    18    18    19    1
    19    19    20    1
    20    19    21    2
    21    21    22    1
    22    21    23    1
    23    23    24    2
    24    24    25    1
    25    16    26    1
    26    26    27    1
    27    26    28    1
    28    12    29    2
    29    29    30    1
    30    30    31    2
    31     9    32    2
    32    32     5    1
    33    31    10    1
    34    28    13    1
    35    24    17    1
@<TRIPOS>SUBSTRUCTURE
     1 RES1        1 GROUP             0 ****  ****    0  
@<TRIPOS>MOLECULE
ligand_99
    32    35     1     0     0
SMALL
USER_CHARGES
****
Generated from the CSD

@<TRIPOS>ATOM
     1 C1      10.8484  52.7325  19.1753   C.3       1 RES1   0.0000
     2 S2      11.3597  54.2731  18.7497   S.o2      1 RES1   0.0000
     3 O3      10.3321  54.9348  17.9671   O.2       1 RES1   0.0000
     4 O4      11.6615  55.0260  19.9496   O.2       1 RES1   0.0000
     5 C5      12.6948  54.1344  17.8648   C.2       1 RES1   0.0000
     6 C6      12.7168  53.8750  16.4821   C.2       1 RES1   0.0000
     7 C7      13.9426  53.7740  15.7999   C.2       1 RES1   0.0000
     8 C8      15.1558  53.9279  16.4928   C.2       1 RES1   0.0000
     9 C9      15.1047  54.1780  17.8676   C.2       1 RES1   0.0000
    10 C10     16.2652  54.3963  18.7322   C.2       1 RES1   0.0000
    11 C11     16.2914  54.0182  20.0640   C.2       1 RES1   0.0000
    12 C12     17.4758  54.2862  20.7582   C.2       1 RES1   0.0000
    13 N13     17.6230  53.9596  22.1034   N.3       1 RES1   0.0000
    14 C14     18.7363  54.6023  22.8273   C.3       1 RES1   0.0000
    15 C15     19.0273  53.8276  24.0928   C.3       1 RES1   0.0000
    16 C16     17.7937  53.6742  24.9776   C.3       1 RES1   0.0000
    17 C17     18.0871  52.9413  26.2239   C.2       1 RES1   0.0000
    18 C18     17.6784  51.6202  26.3922   C.2       1 RES1   0.0000
    19 C19     17.9967  50.9498  27.5557   C.2       1 RES1   0.0000
    20 F20     17.6022  49.6814  27.7281   F         1 RES1   0.0000
    21 C21     18.7114  51.5918  28.5409   C.2       1 RES1   0.0000
    22 F22     18.9899  50.9264  29.6612   F         1 RES1   0.0000
    23 C23     19.1349  52.9096  28.3797   C.2       1 RES1   0.0000
    24 C24     18.8219  53.5848  27.1992   C.2       1 RES1   0.0000
    25 F25     19.2094  54.8545  27.0058   F         1 RES1   0.0000
    26 C26     16.6507  53.0437  24.1634   C.3       1 RES1   0.0000
    27 N27     15.4212  52.8723  24.9044   N.3       1 RES1   1.0000
    28 C28     16.3913  53.8947  22.9177   C.3       1 RES1   0.0000
    29 N29     18.5275  54.8929  20.1234   N.2       1 RES1   0.0000
    30 C30     18.4628  55.2386  18.8222   C.2       1 RES1   0.0000
    31 N31     17.3367  54.9899  18.1377   N.2       1 RES1   0.0000
    32 C32     13.8956  54.2837  18.5346   C.2       1 RES1   0.0000
@<TRIPOS>BOND
     1     1     2    1
     2     2     3    2
     3     2     4    2
     4     2     5    1
     5     5     6    2
     6     6     7    1
     7     7     8    2
     8     8     9    1
     9     9    10    1
    10    10    11    2
    11    11    12    1
    12    12    13    1
    13    13    14    1
    14    14    15    1
    15    16    15    1
    16    16    17    1
    17    17    18    2
    18    18    19    1
    19    19    20    1
    20    19    21    2
    21    21    22    1
    22    21    23    1
    23    23    24    2
    24    24    25    1
    25    16    26    1
    26    26    27    1
    27    26    28    1
    28    12    29    2
    29    29    30    1
    30    30    31    2
    31     9    32    2
    32    32     5    1
    33    31    10    1
    34    28    13    1
    35    24    17    1
@<TRIPOS>SUBSTRUCTURE
     1 RES1        1 GROUP             0 ****  ****    0  
