@<TRIPOS>MOLECULE
native
    36    38     1     0     0
SMALL
NO_CHARGES
****
Generated from the CSD

@<TRIPOS>ATOM
     1 C1      24.1110  24.8000   8.8660   C.3       1 RES1   0.0000
     2 N2      23.1030  25.6580   9.4670   N.am      1 RES1   0.0000
     3 C3      22.9450  25.7490  10.7890   C.2       1 RES1   0.0000
     4 O4      23.6570  25.1260  11.5870   O.2       1 RES1   0.0000
     5 C5      21.8470  26.6510  11.2930   C.3       1 RES1   0.0000
     6 C6      22.4730  27.6930  12.1880   C.3       1 RES1   0.0000
     7 C7      21.4040  28.5930  12.7310   C.2       1 RES1   0.0000
     8 O8      21.3000  29.6940  12.2220   O.2       1 RES1   0.0000
     9 N9      20.6400  28.1910  13.7550   N.am      1 RES1   0.0000
    10 C10     19.5790  29.0160  14.3550   C.3       1 RES1   0.0000
    11 C11     18.2550  28.2500  14.3090   C.3       1 RES1   0.0000
    12 C12     17.9680  27.8560  12.8810   C.2       1 RES1   0.0000
    13 C13     18.1700  26.5430  12.4570   C.2       1 RES1   0.0000
    14 C14     17.9270  26.1740  11.1450   C.2       1 RES1   0.0000
    15 C15     17.4740  27.1230  10.2400   C.2       1 RES1   0.0000
    16 C16     17.2930  28.4230  10.6550   C.2       1 RES1   0.0000
    17 C17     17.5190  28.7950  11.9680   C.2       1 RES1   0.0000
    18 C18     19.9810  29.4260  15.7850   C.3       1 RES1   0.0000
    19 O19     19.9780  28.2750  16.6280   O.3       1 RES1   0.0000
    20 C20     19.0940  30.5310  16.4100   C.3       1 RES1   0.0000
    21 N21     19.3830  31.7780  15.6630   N.3       1 RES1   0.0000
    22 C22     20.2230  32.7280  16.4250   C.3       1 RES1   0.0000
    23 C23     21.6600  32.1990  16.4240   C.3       1 RES1   0.0000
    24 C24     22.7920  33.2120  16.2430   C.3       1 RES1   0.0000
    25 C25     22.4180  32.2840  15.0960   C.3       1 RES1   0.0000
    26 S26     18.0940  32.4720  14.9510   S.o2      1 RES1   0.0000
    27 O27     17.2920  31.4310  14.3860   O.2       1 RES1   0.0000
    28 O28     18.6180  33.3620  13.9520   O.2       1 RES1   0.0000
    29 C29     17.1650  33.3670  15.9940   C.2       1 RES1   0.0000
    30 C30     16.0940  32.7910  16.6790   C.2       1 RES1   0.0000
    31 C31     15.3250  33.5550  17.5580   C.2       1 RES1   0.0000
    32 C32     15.6190  34.8970  17.7490   C.2       1 RES1   0.0000
    33 C33     16.6970  35.4830  17.0750   C.2       1 RES1   0.0000
    34 O34     17.0410  36.8120  17.2240   O.3       1 RES1   0.0000
    35 C35     16.5380  37.6470  18.2600   C.3       1 RES1   0.0000
    36 C36     17.4560  34.7120  16.2010   C.2       1 RES1   0.0000
@<TRIPOS>BOND
     1     1     2    1
     2     2     3   am
     3     3     4    2
     4     3     5    1
     5     5     6    1
     6     6     7    1
     7     7     8    2
     8     7     9   am
     9     9    10    1
    10    10    11    1
    11    11    12    1
    12    12    13    2
    13    13    14    1
    14    14    15    2
    15    15    16    1
    16    16    17    2
    17    10    18    1
    18    18    19    1
    19    18    20    1
    20    20    21    1
    21    21    22    1
    22    22    23    1
    23    23    24    1
    24    24    25    1
    25    21    26    1
    26    26    27    2
    27    26    28    2
    28    26    29    1
    29    29    30    2
    30    30    31    1
    31    31    32    2
    32    32    33    1
    33    33    34    1
    34    34    35    1
    35    33    36    2
    36    17    12    1
    37    25    23    1
    38    36    29    1
@<TRIPOS>SUBSTRUCTURE
     1 RES1        1 GROUP             0 ****  ****    0  
@<TRIPOS>MOLECULE
ligand_0
    36    38     1     0     0
SMALL
NO_CHARGES
****
Generated from the CSD

@<TRIPOS>ATOM
     1 C1      24.1141  24.7971   8.8699   C.3       1 RES1   0.0000
     2 N2      23.1062  25.6558   9.4700   N.am      1 RES1   0.0000
     3 C3      22.9471  25.7469  10.7918   C.2       1 RES1   0.0000
     4 O4      23.6450  25.1082  11.5899   O.2       1 RES1   0.0000
     5 C5      21.8658  26.6691  11.2956   C.3       1 RES1   0.0000
     6 C6      21.8671  26.6097  12.8039   C.3       1 RES1   0.0000
     7 C7      20.8013  27.5171  13.3408   C.2       1 RES1   0.0000
     8 O8      20.1358  28.1282  12.5249   O.2       1 RES1   0.0000
     9 N9      20.6385  27.6577  14.6628   N.am      1 RES1   0.0000
    10 C10     19.6460  28.5580  15.2718   C.3       1 RES1   0.0000
    11 C11     18.7725  27.7639  16.2457   C.3       1 RES1   0.0000
    12 C12     17.9762  26.7450  15.4683   C.2       1 RES1   0.0000
    13 C13     16.7176  27.0693  14.9628   C.2       1 RES1   0.0000
    14 C14     15.9704  26.1372  14.2633   C.2       1 RES1   0.0000
    15 C15     16.4816  24.8635  14.0603   C.2       1 RES1   0.0000
    16 C16     17.7160  24.5386  14.5760   C.2       1 RES1   0.0000
    17 C17     18.4744  25.4698  15.2623   C.2       1 RES1   0.0000
    18 C18     20.3608  29.7457  15.9448   C.3       1 RES1   0.0000
    19 O19     19.3952  30.5876  16.5728   O.3       1 RES1   0.0000
    20 C20     21.2439  30.5881  14.9914   C.3       1 RES1   0.0000
    21 N21     21.9417  31.5877  15.8343   N.3       1 RES1   0.0000
    22 C22     21.8987  32.9538  15.2680   C.3       1 RES1   0.0000
    23 C23     21.5301  33.9240  16.3939   C.3       1 RES1   0.0000
    24 C24     22.3166  35.2685  15.8674   C.3       1 RES1   0.0000
    25 C25     22.3717  34.8632  17.2960   C.3       1 RES1   0.0000
    26 S26     23.4187  31.1429  16.3547   S.o2      1 RES1   0.0000
    27 O27     23.2735  29.9330  17.1039   O.2       1 RES1   0.0000
    28 O28     23.9048  32.2295  17.1596   O.2       1 RES1   0.0000
    29 C29     24.5050  30.8931  15.1261   C.2       1 RES1   0.0000
    30 C30     24.6496  29.6357  14.5379   C.2       1 RES1   0.0000
    31 C31     25.5634  29.4420  13.5010   C.2       1 RES1   0.0000
    32 C32     26.3396  30.5012  13.0545   C.2       1 RES1   0.0000
    33 C33     26.1960  31.7692  13.6302   C.2       1 RES1   0.0000
    34 O34     26.9375  32.8628  13.2289   O.3       1 RES1   0.0000
    35 C35     27.9168  32.8183  12.1981   C.3       1 RES1   0.0000
    36 C36     25.2826  31.9503  14.6633   C.2       1 RES1   0.0000
@<TRIPOS>BOND
     1     1     2    1
     2     2     3   am
     3     3     4    2
     4     3     5    1
     5     5     6    1
     6     6     7    1
     7     7     8    2
     8     7     9   am
     9     9    10    1
    10    10    11    1
    11    11    12    1
    12    12    13    2
    13    13    14    1
    14    14    15    2
    15    15    16    1
    16    16    17    2
    17    10    18    1
    18    18    19    1
    19    18    20    1
    20    20    21    1
    21    21    22    1
    22    22    23    1
    23    23    24    1
    24    24    25    1
    25    21    26    1
    26    26    27    2
    27    26    28    2
    28    26    29    1
    29    29    30    2
    30    30    31    1
    31    31    32    2
    32    32    33    1
    33    33    34    1
    34    34    35    1
    35    33    36    2
    36    17    12    1
    37    25    23    1
    38    36    29    1
@<TRIPOS>SUBSTRUCTURE
     1 RES1        1 GROUP             0 ****  ****    0  
@<TRIPOS>MOLECULE
ligand_1
    36    38     1     0     0
SMALL
NO_CHARGES
****
Generated from the CSD

@<TRIPOS>ATOM
     1 C1      24.1141  24.7971   8.8699   C.3       1 RES1   0.0000
     2 N2      23.1062  25.6558   9.4700   N.am      1 RES1   0.0000
     3 C3      22.9471  25.7469  10.7918   C.2       1 RES1   0.0000
     4 O4      23.6450  25.1082  11.5899   O.2       1 RES1   0.0000
     5 C5      21.8658  26.6691  11.2956   C.3       1 RES1   0.0000
     6 C6      21.8671  26.6097  12.8039   C.3       1 RES1   0.0000
     7 C7      20.8013  27.5171  13.3408   C.2       1 RES1   0.0000
     8 O8      20.1358  28.1282  12.5249   O.2       1 RES1   0.0000
     9 N9      20.6385  27.6577  14.6628   N.am      1 RES1   0.0000
    10 C10     19.6460  28.5580  15.2718   C.3       1 RES1   0.0000
    11 C11     18.7725  27.7639  16.2457   C.3       1 RES1   0.0000
    12 C12     17.9762  26.7450  15.4683   C.2       1 RES1   0.0000
    13 C13     16.7176  27.0693  14.9628   C.2       1 RES1   0.0000
    14 C14     15.9704  26.1372  14.2633   C.2       1 RES1   0.0000
    15 C15     16.4816  24.8635  14.0603   C.2       1 RES1   0.0000
    16 C16     17.7160  24.5386  14.5760   C.2       1 RES1   0.0000
    17 C17     18.4744  25.4698  15.2623   C.2       1 RES1   0.0000
    18 C18     20.3608  29.7457  15.9448   C.3       1 RES1   0.0000
    19 O19     19.3952  30.5876  16.5728   O.3       1 RES1   0.0000
    20 C20     21.2439  30.5881  14.9914   C.3       1 RES1   0.0000
    21 N21     21.9417  31.5877  15.8343   N.3       1 RES1   0.0000
    22 C22     21.8987  32.9538  15.2680   C.3       1 RES1   0.0000
    23 C23     21.5301  33.9240  16.3939   C.3       1 RES1   0.0000
    24 C24     22.3166  35.2685  15.8674   C.3       1 RES1   0.0000
    25 C25     22.3717  34.8632  17.2960   C.3       1 RES1   0.0000
    26 S26     23.4187  31.1429  16.3547   S.o2      1 RES1   0.0000
    27 O27     23.2735  29.9330  17.1039   O.2       1 RES1   0.0000
    28 O28     23.9048  32.2295  17.1596   O.2       1 RES1   0.0000
    29 C29     24.5050  30.8931  15.1261   C.2       1 RES1   0.0000
    30 C30     25.3029  31.9338  14.6483   C.2       1 RES1   0.0000
    31 C31     26.2167  31.7073  13.6181   C.2       1 RES1   0.0000
    32 C32     26.3304  30.4434  13.0581   C.2       1 RES1   0.0000
    33 C33     25.5425  29.3896  13.5361   C.2       1 RES1   0.0000
    34 O34     25.6104  28.1099  13.0218   O.3       1 RES1   0.0000
    35 C35     26.4796  27.7294  11.9620   C.3       1 RES1   0.0000
    36 C36     24.6347  29.6273  14.5627   C.2       1 RES1   0.0000
@<TRIPOS>BOND
     1     1     2    1
     2     2     3   am
     3     3     4    2
     4     3     5    1
     5     5     6    1
     6     6     7    1
     7     7     8    2
     8     7     9   am
     9     9    10    1
    10    10    11    1
    11    11    12    1
    12    12    13    2
    13    13    14    1
    14    14    15    2
    15    15    16    1
    16    16    17    2
    17    10    18    1
    18    18    19    1
    19    18    20    1
    20    20    21    1
    21    21    22    1
    22    22    23    1
    23    23    24    1
    24    24    25    1
    25    21    26    1
    26    26    27    2
    27    26    28    2
    28    26    29    1
    29    29    30    2
    30    30    31    1
    31    31    32    2
    32    32    33    1
    33    33    34    1
    34    34    35    1
    35    33    36    2
    36    17    12    1
    37    25    23    1
    38    36    29    1
@<TRIPOS>SUBSTRUCTURE
     1 RES1        1 GROUP             0 ****  ****    0  
@<TRIPOS>MOLECULE
ligand_2
    36    38     1     0     0
SMALL
NO_CHARGES
****
Generated from the CSD

@<TRIPOS>ATOM
     1 C1      24.1084  24.8055   8.8609   C.3       1 RES1   0.0000
     2 N2      23.1006  25.6630   9.4631   N.am      1 RES1   0.0000
     3 C3      22.9432  25.7529  10.7852   C.2       1 RES1   0.0000
     4 O4      23.6427  25.1142  11.5819   O.2       1 RES1   0.0000
     5 C5      21.8619  26.6739  11.2911   C.3       1 RES1   0.0000
     6 C6      21.8653  26.6133  12.7994   C.3       1 RES1   0.0000
     7 C7      20.7995  27.5195  13.3385   C.2       1 RES1   0.0000
     8 O8      20.1325  28.1307  12.5239   O.2       1 RES1   0.0000
     9 N9      20.6383  27.6589  14.6607   N.am      1 RES1   0.0000
    10 C10     19.6460  28.5580  15.2718   C.3       1 RES1   0.0000
    11 C11     18.7744  27.7625  16.2462   C.3       1 RES1   0.0000
    12 C12     17.9773  26.7440  15.4689   C.2       1 RES1   0.0000
    13 C13     16.7178  27.0682  14.9658   C.2       1 RES1   0.0000
    14 C14     15.9700  26.1365  14.2665   C.2       1 RES1   0.0000
    15 C15     16.4815  24.8632  14.0614   C.2       1 RES1   0.0000
    16 C16     17.7168  24.5384  14.5747   C.2       1 RES1   0.0000
    17 C17     18.4759  25.4693  15.2609   C.2       1 RES1   0.0000
    18 C18     20.3608  29.7457  15.9448   C.3       1 RES1   0.0000
    19 O19     19.3952  30.5876  16.5728   O.3       1 RES1   0.0000
    20 C20     21.2439  30.5881  14.9914   C.3       1 RES1   0.0000
    21 N21     21.9741  31.5597  15.8395   N.3       1 RES1   0.0000
    22 C22     21.1972  32.7889  16.1122   C.3       1 RES1   0.0000
    23 C23     21.2841  33.0836  17.6123   C.3       1 RES1   0.0000
    24 C24     21.1622  34.7230  17.5783   C.3       1 RES1   0.0000
    25 C25     22.1610  34.0505  18.4492   C.3       1 RES1   0.0000
    26 S26     23.5137  31.8457  15.3947   S.o2      1 RES1   0.0000
    27 O27     24.2143  30.5987  15.4139   O.2       1 RES1   0.0000
    28 O28     24.0395  32.7832  16.3482   O.2       1 RES1   0.0000
    29 C29     23.6511  32.5219  13.8861   C.2       1 RES1   0.0000
    30 C30     23.7738  31.7234  12.7480   C.2       1 RES1   0.0000
    31 C31     23.8824  32.3064  11.4846   C.2       1 RES1   0.0000
    32 C32     23.8765  33.6874  11.3560   C.2       1 RES1   0.0000
    33 C33     23.7439  34.4982  12.4895   C.2       1 RES1   0.0000
    34 O34     23.7293  35.8776  12.4268   O.3       1 RES1   0.0000
    35 C35     23.8464  36.6147  11.2158   C.3       1 RES1   0.0000
    36 C36     23.6369  33.9061  13.7434   C.2       1 RES1   0.0000
@<TRIPOS>BOND
     1     1     2    1
     2     2     3   am
     3     3     4    2
     4     3     5    1
     5     5     6    1
     6     6     7    1
     7     7     8    2
     8     7     9   am
     9     9    10    1
    10    10    11    1
    11    11    12    1
    12    12    13    2
    13    13    14    1
    14    14    15    2
    15    15    16    1
    16    16    17    2
    17    10    18    1
    18    18    19    1
    19    18    20    1
    20    20    21    1
    21    21    22    1
    22    22    23    1
    23    23    24    1
    24    24    25    1
    25    21    26    1
    26    26    27    2
    27    26    28    2
    28    26    29    1
    29    29    30    2
    30    30    31    1
    31    31    32    2
    32    32    33    1
    33    33    34    1
    34    34    35    1
    35    33    36    2
    36    17    12    1
    37    25    23    1
    38    36    29    1
@<TRIPOS>SUBSTRUCTURE
     1 RES1        1 GROUP             0 ****  ****    0  
@<TRIPOS>MOLECULE
ligand_3
    36    38     1     0     0
SMALL
NO_CHARGES
****
Generated from the CSD

@<TRIPOS>ATOM
     1 C1      24.1112  24.8014   8.8653   C.3       1 RES1   0.0000
     2 N2      23.1034  25.6595   9.4665   N.am      1 RES1   0.0000
     3 C3      22.9451  25.7500  10.7885   C.2       1 RES1   0.0000
     4 O4      23.6438  25.1113  11.5858   O.2       1 RES1   0.0000
     5 C5      21.8639  26.6715  11.2933   C.3       1 RES1   0.0000
     6 C6      21.8662  26.6115  12.8016   C.3       1 RES1   0.0000
     7 C7      20.8004  27.5183  13.3396   C.2       1 RES1   0.0000
     8 O8      20.1341  28.1295  12.5243   O.2       1 RES1   0.0000
     9 N9      20.6384  27.6583  14.6617   N.am      1 RES1   0.0000
    10 C10     19.6460  28.5580  15.2718   C.3       1 RES1   0.0000
    11 C11     18.7735  27.7632  16.2460   C.3       1 RES1   0.0000
    12 C12     17.9768  26.7445  15.4686   C.2       1 RES1   0.0000
    13 C13     16.7178  27.0686  14.9643   C.2       1 RES1   0.0000
    14 C14     15.9704  26.1365  14.2649   C.2       1 RES1   0.0000
    15 C15     16.4818  24.8631  14.0609   C.2       1 RES1   0.0000
    16 C16     17.7166  24.5384  14.5755   C.2       1 RES1   0.0000
    17 C17     18.4753  25.4695  15.2617   C.2       1 RES1   0.0000
    18 C18     20.3608  29.7457  15.9448   C.3       1 RES1   0.0000
    19 O19     19.3952  30.5876  16.5728   O.3       1 RES1   0.0000
    20 C20     21.2439  30.5881  14.9914   C.3       1 RES1   0.0000
    21 N21     21.9742  31.5596  15.8395   N.3       1 RES1   0.0000
    22 C22     21.1975  32.7889  16.1121   C.3       1 RES1   0.0000
    23 C23     21.2849  33.0840  17.6122   C.3       1 RES1   0.0000
    24 C24     21.1633  34.7233  17.5779   C.3       1 RES1   0.0000
    25 C25     22.1622  34.0507  18.4487   C.3       1 RES1   0.0000
    26 S26     23.5139  31.8452  15.3948   S.o2      1 RES1   0.0000
    27 O27     24.2143  30.5982  15.4141   O.2       1 RES1   0.0000
    28 O28     24.0399  32.7827  16.3483   O.2       1 RES1   0.0000
    29 C29     23.6516  32.5214  13.8862   C.2       1 RES1   0.0000
    30 C30     23.6484  33.9066  13.7153   C.2       1 RES1   0.0000
    31 C31     23.7712  34.4612  12.4406   C.2       1 RES1   0.0000
    32 C32     23.8896  33.6340  11.3335   C.2       1 RES1   0.0000
    33 C33     23.9041  32.2434  11.4937   C.2       1 RES1   0.0000
    34 O34     24.0209  31.3678  10.4323   O.3       1 RES1   0.0000
    35 C35     24.1379  31.7812   9.0762   C.3       1 RES1   0.0000
    36 C36     23.7805  31.7019  12.7688   C.2       1 RES1   0.0000
@<TRIPOS>BOND
     1     1     2    1
     2     2     3   am
     3     3     4    2
     4     3     5    1
     5     5     6    1
     6     6     7    1
     7     7     8    2
     8     7     9   am
     9     9    10    1
    10    10    11    1
    11    11    12    1
    12    12    13    2
    13    13    14    1
    14    14    15    2
    15    15    16    1
    16    16    17    2
    17    10    18    1
    18    18    19    1
    19    18    20    1
    20    20    21    1
    21    21    22    1
    22    22    23    1
    23    23    24    1
    24    24    25    1
    25    21    26    1
    26    26    27    2
    27    26    28    2
    28    26    29    1
    29    29    30    2
    30    30    31    1
    31    31    32    2
    32    32    33    1
    33    33    34    1
    34    34    35    1
    35    33    36    2
    36    17    12    1
    37    25    23    1
    38    36    29    1
@<TRIPOS>SUBSTRUCTURE
     1 RES1        1 GROUP             0 ****  ****    0  
@<TRIPOS>MOLECULE
ligand_4
    36    38     1     0     0
SMALL
NO_CHARGES
****
Generated from the CSD

@<TRIPOS>ATOM
     1 C1      24.1081  24.7964   8.8653   C.3       1 RES1   0.0000
     2 N2      23.1008  25.6551   9.4665   N.am      1 RES1   0.0000
     3 C3      22.9430  25.7462  10.7885   C.2       1 RES1   0.0000
     4 O4      23.6417  25.1076  11.5859   O.2       1 RES1   0.0000
     5 C5      21.8622  26.6683  11.2933   C.3       1 RES1   0.0000
     6 C6      21.8650  26.6089  12.8016   C.3       1 RES1   0.0000
     7 C7      20.7998  27.5163  13.3396   C.2       1 RES1   0.0000
     8 O8      20.8345  28.6794  12.9815   O.2       1 RES1   0.0000
     9 N9      19.8886  27.0489  14.2029   N.am      1 RES1   0.0000
    10 C10     18.8371  27.8808  14.8099   C.3       1 RES1   0.0000
    11 C11     17.5012  27.5897  14.1225   C.3       1 RES1   0.0000
    12 C12     17.5875  28.0286  12.6814   C.2       1 RES1   0.0000
    13 C13     17.2308  29.3264  12.3164   C.2       1 RES1   0.0000
    14 C14     17.2891  29.7349  10.9950   C.2       1 RES1   0.0000
    15 C15     17.7105  28.8417  10.0206   C.2       1 RES1   0.0000
    16 C16     18.0443  27.5553  10.3794   C.2       1 RES1   0.0000
    17 C17     18.0032  27.1452  11.6998   C.2       1 RES1   0.0000
    18 C18     18.7903  27.6372  16.3308   C.3       1 RES1   0.0000
    19 O19     17.7378  28.4113  16.9040   O.3       1 RES1   0.0000
    20 C20     20.1178  27.9355  17.0705   C.3       1 RES1   0.0000
    21 N21     19.9187  27.5219  18.4797   N.3       1 RES1   0.0000
    22 C22     20.3953  28.5300  19.4519   C.3       1 RES1   0.0000
    23 C23     19.3195  28.6984  20.5285   C.3       1 RES1   0.0000
    24 C24     20.2709  29.0982  21.8085   C.3       1 RES1   0.0000
    25 C25     19.1590  28.1240  21.9597   C.3       1 RES1   0.0000
    26 S26     20.3922  26.0038  18.8281   S.o2      1 RES1   0.0000
    27 O27     19.6623  25.1117  17.9811   O.2       1 RES1   0.0000
    28 O28     20.0973  25.8008  20.2197   O.2       1 RES1   0.0000
    29 C29     22.0172  25.7516  18.6095   C.2       1 RES1   0.0000
    30 C30     22.5195  25.3189  17.3814   C.2       1 RES1   0.0000
    31 C31     23.8898  25.1168  17.2105   C.2       1 RES1   0.0000
    32 C32     24.7601  25.3391  18.2674   C.2       1 RES1   0.0000
    33 C33     24.2688  25.7829  19.5008   C.2       1 RES1   0.0000
    34 O34     25.0835  26.0234  20.5895   O.3       1 RES1   0.0000
    35 C35     26.4950  25.8477  20.5741   C.3       1 RES1   0.0000
    36 C36     22.9012  25.9802  19.6597   C.2       1 RES1   0.0000
@<TRIPOS>BOND
     1     1     2    1
     2     2     3   am
     3     3     4    2
     4     3     5    1
     5     5     6    1
     6     6     7    1
     7     7     8    2
     8     7     9   am
     9     9    10    1
    10    10    11    1
    11    11    12    1
    12    12    13    2
    13    13    14    1
    14    14    15    2
    15    15    16    1
    16    16    17    2
    17    10    18    1
    18    18    19    1
    19    18    20    1
    20    20    21    1
    21    21    22    1
    22    22    23    1
    23    23    24    1
    24    24    25    1
    25    21    26    1
    26    26    27    2
    27    26    28    2
    28    26    29    1
    29    29    30    2
    30    30    31    1
    31    31    32    2
    32    32    33    1
    33    33    34    1
    34    34    35    1
    35    33    36    2
    36    17    12    1
    37    25    23    1
    38    36    29    1
@<TRIPOS>SUBSTRUCTURE
     1 RES1        1 GROUP             0 ****  ****    0  
@<TRIPOS>MOLECULE
ligand_5
    36    38     1     0     0
SMALL
NO_CHARGES
****
Generated from the CSD

@<TRIPOS>ATOM
     1 C1      24.1081  24.7964   8.8653   C.3       1 RES1   0.0000
     2 N2      23.1008  25.6551   9.4665   N.am      1 RES1   0.0000
     3 C3      22.9430  25.7462  10.7885   C.2       1 RES1   0.0000
     4 O4      23.6417  25.1076  11.5859   O.2       1 RES1   0.0000
     5 C5      21.8622  26.6683  11.2933   C.3       1 RES1   0.0000
     6 C6      21.8650  26.6089  12.8016   C.3       1 RES1   0.0000
     7 C7      20.7998  27.5163  13.3396   C.2       1 RES1   0.0000
     8 O8      20.8345  28.6794  12.9815   O.2       1 RES1   0.0000
     9 N9      19.8886  27.0489  14.2029   N.am      1 RES1   0.0000
    10 C10     18.8371  27.8808  14.8099   C.3       1 RES1   0.0000
    11 C11     17.5012  27.5897  14.1225   C.3       1 RES1   0.0000
    12 C12     17.5875  28.0286  12.6814   C.2       1 RES1   0.0000
    13 C13     17.2308  29.3264  12.3164   C.2       1 RES1   0.0000
    14 C14     17.2891  29.7349  10.9950   C.2       1 RES1   0.0000
    15 C15     17.7105  28.8417  10.0206   C.2       1 RES1   0.0000
    16 C16     18.0443  27.5553  10.3794   C.2       1 RES1   0.0000
    17 C17     18.0032  27.1452  11.6998   C.2       1 RES1   0.0000
    18 C18     18.7903  27.6372  16.3308   C.3       1 RES1   0.0000
    19 O19     17.7378  28.4113  16.9040   O.3       1 RES1   0.0000
    20 C20     20.1178  27.9355  17.0705   C.3       1 RES1   0.0000
    21 N21     19.9187  27.5219  18.4797   N.3       1 RES1   0.0000
    22 C22     20.3953  28.5300  19.4519   C.3       1 RES1   0.0000
    23 C23     19.3195  28.6984  20.5285   C.3       1 RES1   0.0000
    24 C24     20.2709  29.0982  21.8085   C.3       1 RES1   0.0000
    25 C25     19.1590  28.1240  21.9597   C.3       1 RES1   0.0000
    26 S26     20.3922  26.0038  18.8281   S.o2      1 RES1   0.0000
    27 O27     19.6623  25.1117  17.9811   O.2       1 RES1   0.0000
    28 O28     20.0973  25.8008  20.2197   O.2       1 RES1   0.0000
    29 C29     22.0172  25.7516  18.6095   C.2       1 RES1   0.0000
    30 C30     22.9248  25.9656  19.6481   C.2       1 RES1   0.0000
    31 C31     24.2884  25.7434  19.4512   C.2       1 RES1   0.0000
    32 C32     24.7493  25.3145  18.2152   C.2       1 RES1   0.0000
    33 C33     23.8471  25.0870  17.1692   C.2       1 RES1   0.0000
    34 O34     24.2432  24.6586  15.9177   O.3       1 RES1   0.0000
    35 C35     25.5968  24.4051  15.5611   C.3       1 RES1   0.0000
    36 C36     22.4905  25.3124  17.3768   C.2       1 RES1   0.0000
@<TRIPOS>BOND
     1     1     2    1
     2     2     3   am
     3     3     4    2
     4     3     5    1
     5     5     6    1
     6     6     7    1
     7     7     8    2
     8     7     9   am
     9     9    10    1
    10    10    11    1
    11    11    12    1
    12    12    13    2
    13    13    14    1
    14    14    15    2
    15    15    16    1
    16    16    17    2
    17    10    18    1
    18    18    19    1
    19    18    20    1
    20    20    21    1
    21    21    22    1
    22    22    23    1
    23    23    24    1
    24    24    25    1
    25    21    26    1
    26    26    27    2
    27    26    28    2
    28    26    29    1
    29    29    30    2
    30    30    31    1
    31    31    32    2
    32    32    33    1
    33    33    34    1
    34    34    35    1
    35    33    36    2
    36    17    12    1
    37    25    23    1
    38    36    29    1
@<TRIPOS>SUBSTRUCTURE
     1 RES1        1 GROUP             0 ****  ****    0  
@<TRIPOS>MOLECULE
ligand_6
    36    38     1     0     0
SMALL
NO_CHARGES
****
Generated from the CSD

@<TRIPOS>ATOM
     1 C1      24.1150  24.8050   8.8669   C.3       1 RES1   0.0000
     2 N2      23.1060  25.6620   9.4677   N.am      1 RES1   0.0000
     3 C3      22.9477  25.7529  10.7897   C.2       1 RES1   0.0000
     4 O4      23.6473  25.1156  11.5873   O.2       1 RES1   0.0000
     5 C5      21.8653  26.6733  11.2942   C.3       1 RES1   0.0000
     6 C6      21.8677  26.6140  12.8025   C.3       1 RES1   0.0000
     7 C7      20.8008  27.5196  13.3401   C.2       1 RES1   0.0000
     8 O8      20.8337  28.6827  12.9820   O.2       1 RES1   0.0000
     9 N9      19.8902  27.0507  14.2032   N.am      1 RES1   0.0000
    10 C10     18.8371  27.8808  14.8099   C.3       1 RES1   0.0000
    11 C11     17.5019  27.5874  14.1221   C.3       1 RES1   0.0000
    12 C12     17.5877  28.0270  12.6812   C.2       1 RES1   0.0000
    13 C13     17.2286  29.3241  12.3166   C.2       1 RES1   0.0000
    14 C14     17.2863  29.7332  10.9953   C.2       1 RES1   0.0000
    15 C15     17.7095  28.8411  10.0207   C.2       1 RES1   0.0000
    16 C16     18.0457  27.5552  10.3791   C.2       1 RES1   0.0000
    17 C17     18.0052  27.1446  11.6994   C.2       1 RES1   0.0000
    18 C18     18.7903  27.6372  16.3308   C.3       1 RES1   0.0000
    19 O19     17.7378  28.4113  16.9040   O.3       1 RES1   0.0000
    20 C20     20.1178  27.9355  17.0705   C.3       1 RES1   0.0000
    21 N21     19.9332  27.4826  18.4695   N.3       1 RES1   0.0000
    22 C22     19.2926  28.5026  19.3286   C.3       1 RES1   0.0000
    23 C23     18.1721  27.8222  20.1200   C.3       1 RES1   0.0000
    24 C24     18.1908  28.7502  21.4772   C.3       1 RES1   0.0000
    25 C25     18.0859  27.2705  21.5665   C.3       1 RES1   0.0000
    26 S26     21.2376  26.7835  19.1477   S.o2      1 RES1   0.0000
    27 O27     21.6001  25.6581  18.3426   O.2       1 RES1   0.0000
    28 O28     20.8434  26.4015  20.4757   O.2       1 RES1   0.0000
    29 C29     22.5413  27.8012  19.2761   C.2       1 RES1   0.0000
    30 C30     23.4835  27.8966  18.2507   C.2       1 RES1   0.0000
    31 C31     24.5720  28.7618  18.3702   C.2       1 RES1   0.0000
    32 C32     24.7260  29.5275  19.5164   C.2       1 RES1   0.0000
    33 C33     23.7819  29.4475  20.5470   C.2       1 RES1   0.0000
    34 O34     23.8785  30.1846  21.7107   O.3       1 RES1   0.0000
    35 C35     24.9370  31.0947  21.9840   C.3       1 RES1   0.0000
    36 C36     22.7015  28.5814  20.4172   C.2       1 RES1   0.0000
@<TRIPOS>BOND
     1     1     2    1
     2     2     3   am
     3     3     4    2
     4     3     5    1
     5     5     6    1
     6     6     7    1
     7     7     8    2
     8     7     9   am
     9     9    10    1
    10    10    11    1
    11    11    12    1
    12    12    13    2
    13    13    14    1
    14    14    15    2
    15    15    16    1
    16    16    17    2
    17    10    18    1
    18    18    19    1
    19    18    20    1
    20    20    21    1
    21    21    22    1
    22    22    23    1
    23    23    24    1
    24    24    25    1
    25    21    26    1
    26    26    27    2
    27    26    28    2
    28    26    29    1
    29    29    30    2
    30    30    31    1
    31    31    32    2
    32    32    33    1
    33    33    34    1
    34    34    35    1
    35    33    36    2
    36    17    12    1
    37    25    23    1
    38    36    29    1
@<TRIPOS>SUBSTRUCTURE
     1 RES1        1 GROUP             0 ****  ****    0  
@<TRIPOS>MOLECULE
ligand_7
    36    38     1     0     0
SMALL
NO_CHARGES
****
Generated from the CSD

@<TRIPOS>ATOM
     1 C1      24.1150  24.8050   8.8669   C.3       1 RES1   0.0000
     2 N2      23.1060  25.6620   9.4677   N.am      1 RES1   0.0000
     3 C3      22.9477  25.7529  10.7897   C.2       1 RES1   0.0000
     4 O4      23.6473  25.1156  11.5873   O.2       1 RES1   0.0000
     5 C5      21.8653  26.6733  11.2942   C.3       1 RES1   0.0000
     6 C6      21.8677  26.6140  12.8025   C.3       1 RES1   0.0000
     7 C7      20.8008  27.5196  13.3401   C.2       1 RES1   0.0000
     8 O8      20.8337  28.6827  12.9820   O.2       1 RES1   0.0000
     9 N9      19.8902  27.0507  14.2032   N.am      1 RES1   0.0000
    10 C10     18.8371  27.8808  14.8099   C.3       1 RES1   0.0000
    11 C11     17.5019  27.5874  14.1221   C.3       1 RES1   0.0000
    12 C12     17.5877  28.0270  12.6812   C.2       1 RES1   0.0000
    13 C13     17.2286  29.3241  12.3166   C.2       1 RES1   0.0000
    14 C14     17.2863  29.7332  10.9953   C.2       1 RES1   0.0000
    15 C15     17.7095  28.8411  10.0207   C.2       1 RES1   0.0000
    16 C16     18.0457  27.5552  10.3791   C.2       1 RES1   0.0000
    17 C17     18.0052  27.1446  11.6994   C.2       1 RES1   0.0000
    18 C18     18.7903  27.6372  16.3308   C.3       1 RES1   0.0000
    19 O19     17.7378  28.4113  16.9040   O.3       1 RES1   0.0000
    20 C20     20.1178  27.9355  17.0705   C.3       1 RES1   0.0000
    21 N21     19.9332  27.4826  18.4695   N.3       1 RES1   0.0000
    22 C22     19.2926  28.5026  19.3286   C.3       1 RES1   0.0000
    23 C23     18.1721  27.8222  20.1200   C.3       1 RES1   0.0000
    24 C24     18.1908  28.7502  21.4772   C.3       1 RES1   0.0000
    25 C25     18.0859  27.2705  21.5665   C.3       1 RES1   0.0000
    26 S26     21.2376  26.7835  19.1477   S.o2      1 RES1   0.0000
    27 O27     21.6001  25.6581  18.3426   O.2       1 RES1   0.0000
    28 O28     20.8434  26.4015  20.4757   O.2       1 RES1   0.0000
    29 C29     22.5413  27.8012  19.2761   C.2       1 RES1   0.0000
    30 C30     22.7303  28.5888  20.4127   C.2       1 RES1   0.0000
    31 C31     23.8353  29.4359  20.5091   C.2       1 RES1   0.0000
    32 C32     24.7492  29.5039  19.4680   C.2       1 RES1   0.0000
    33 C33     24.5753  28.7111  18.3274   C.2       1 RES1   0.0000
    34 O34     25.4502  28.7324  17.2593   O.3       1 RES1   0.0000
    35 C35     26.6101  29.5540  17.2043   C.3       1 RES1   0.0000
    36 C36     23.4701  27.8711  18.2421   C.2       1 RES1   0.0000
@<TRIPOS>BOND
     1     1     2    1
     2     2     3   am
     3     3     4    2
     4     3     5    1
     5     5     6    1
     6     6     7    1
     7     7     8    2
     8     7     9   am
     9     9    10    1
    10    10    11    1
    11    11    12    1
    12    12    13    2
    13    13    14    1
    14    14    15    2
    15    15    16    1
    16    16    17    2
    17    10    18    1
    18    18    19    1
    19    18    20    1
    20    20    21    1
    21    21    22    1
    22    22    23    1
    23    23    24    1
    24    24    25    1
    25    21    26    1
    26    26    27    2
    27    26    28    2
    28    26    29    1
    29    29    30    2
    30    30    31    1
    31    31    32    2
    32    32    33    1
    33    33    34    1
    34    34    35    1
    35    33    36    2
    36    17    12    1
    37    25    23    1
    38    36    29    1
@<TRIPOS>SUBSTRUCTURE
     1 RES1        1 GROUP             0 ****  ****    0  
@<TRIPOS>MOLECULE
ligand_8
    36    38     1     0     0
SMALL
NO_CHARGES
****
Generated from the CSD

@<TRIPOS>ATOM
     1 C1      24.0913  24.7989   8.8535   C.3       1 RES1   0.0000
     2 N2      23.0858  25.6579   9.4573   N.am      1 RES1   0.0000
     3 C3      22.9309  25.7481  10.7798   C.2       1 RES1   0.0000
     4 O4      23.6308  25.1084  11.5752   O.2       1 RES1   0.0000
     5 C5      21.8519  26.6707  11.2875   C.3       1 RES1   0.0000
     6 C6      21.8578  26.6102  12.7958   C.3       1 RES1   0.0000
     7 C7      20.7943  27.5180  13.3367   C.2       1 RES1   0.0000
     8 O8      19.6604  27.3414  12.9302   O.2       1 RES1   0.0000
     9 N9      21.1140  28.4939  14.1965   N.am      1 RES1   0.0000
    10 C10     20.1398  29.4531  14.7416   C.3       1 RES1   0.0000
    11 C11     20.2110  29.4336  16.2702   C.3       1 RES1   0.0000
    12 C12     19.7754  28.0753  16.7622   C.2       1 RES1   0.0000
    13 C13     18.4340  27.8260  17.0502   C.2       1 RES1   0.0000
    14 C14     18.0253  26.5892  17.5190   C.2       1 RES1   0.0000
    15 C15     18.9628  25.5831  17.7027   C.2       1 RES1   0.0000
    16 C16     20.2894  25.8361  17.4360   C.2       1 RES1   0.0000
    17 C17     20.7023  27.0646  16.9526   C.2       1 RES1   0.0000
    18 C18     20.3973  30.8528  14.1508   C.3       1 RES1   0.0000
    19 O19     19.7358  31.8341  14.9477   O.3       1 RES1   0.0000
    20 C20     19.9732  31.0131  12.6699   C.3       1 RES1   0.0000
    21 N21     20.4142  32.3636  12.2477   N.3       1 RES1   0.0000
    22 C22     19.3698  33.1102  11.5125   C.3       1 RES1   0.0000
    23 C23     19.3165  34.5331  12.0759   C.3       1 RES1   0.0000
    24 C24     18.8308  35.3440  10.7305   C.3       1 RES1   0.0000
    25 C25     19.9126  35.8816  11.5960   C.3       1 RES1   0.0000
    26 S26     21.8793  32.4231  11.5407   S.o2      1 RES1   0.0000
    27 O27     22.8346  31.8977  12.4668   O.2       1 RES1   0.0000
    28 O28     22.1202  33.8055  11.2317   O.2       1 RES1   0.0000
    29 C29     21.9656  31.5621  10.1254   C.2       1 RES1   0.0000
    30 C30     22.3376  30.2168  10.1228   C.2       1 RES1   0.0000
    31 C31     22.3999  29.5036   8.9249   C.2       1 RES1   0.0000
    32 C32     22.0984  30.1339   7.7266   C.2       1 RES1   0.0000
    33 C33     21.7144  31.4801   7.7180   C.2       1 RES1   0.0000
    34 O34     21.4005  32.1626   6.5593   O.3       1 RES1   0.0000
    35 C35     21.4335  31.5765   5.2636   C.3       1 RES1   0.0000
    36 C36     21.6564  32.1810   8.9179   C.2       1 RES1   0.0000
@<TRIPOS>BOND
     1     1     2    1
     2     2     3   am
     3     3     4    2
     4     3     5    1
     5     5     6    1
     6     6     7    1
     7     7     8    2
     8     7     9   am
     9     9    10    1
    10    10    11    1
    11    11    12    1
    12    12    13    2
    13    13    14    1
    14    14    15    2
    15    15    16    1
    16    16    17    2
    17    10    18    1
    18    18    19    1
    19    18    20    1
    20    20    21    1
    21    21    22    1
    22    22    23    1
    23    23    24    1
    24    24    25    1
    25    21    26    1
    26    26    27    2
    27    26    28    2
    28    26    29    1
    29    29    30    2
    30    30    31    1
    31    31    32    2
    32    32    33    1
    33    33    34    1
    34    34    35    1
    35    33    36    2
    36    17    12    1
    37    25    23    1
    38    36    29    1
@<TRIPOS>SUBSTRUCTURE
     1 RES1        1 GROUP             0 ****  ****    0  
@<TRIPOS>MOLECULE
ligand_9
    36    38     1     0     0
SMALL
NO_CHARGES
****
Generated from the CSD

@<TRIPOS>ATOM
     1 C1      24.1322  24.6337   8.9816   C.3       1 RES1   0.0000
     2 N2      23.1327  25.5190   9.5566   N.am      1 RES1   0.0000
     3 C3      22.9562  25.6291  10.8748   C.2       1 RES1   0.0000
     4 O4      23.6297  24.9868  11.6906   O.2       1 RES1   0.0000
     5 C5      21.8860  26.5782  11.3515   C.3       1 RES1   0.0000
     6 C6      21.8641  26.5370  12.8603   C.3       1 RES1   0.0000
     7 C7      20.8085  27.4714  13.3706   C.2       1 RES1   0.0000
     8 O8      20.1671  28.0854  12.5377   O.2       1 RES1   0.0000
     9 N9      20.6292  27.6311  14.6882   N.am      1 RES1   0.0000
    10 C10     19.6460  28.5580  15.2718   C.3       1 RES1   0.0000
    11 C11     18.4414  27.7634  15.7812   C.3       1 RES1   0.0000
    12 C12     17.7485  27.1194  14.6057   C.2       1 RES1   0.0000
    13 C13     16.7297  27.7920  13.9319   C.2       1 RES1   0.0000
    14 C14     16.0749  27.2040  12.8632   C.2       1 RES1   0.0000
    15 C15     16.4388  25.9289  12.4554   C.2       1 RES1   0.0000
    16 C16     17.4318  25.2583  13.1332   C.2       1 RES1   0.0000
    17 C17     18.1007  25.8460  14.1918   C.2       1 RES1   0.0000
    18 C18     20.3133  29.4016  16.3752   C.3       1 RES1   0.0000
    19 O19     19.3349  30.2368  16.9921   O.3       1 RES1   0.0000
    20 C20     21.5046  30.2652  15.8919   C.3       1 RES1   0.0000
    21 N21     22.5888  29.3232  15.5264   N.3       1 RES1   0.0000
    22 C22     23.3308  28.8110  16.6993   C.3       1 RES1   0.0000
    23 C23     23.4928  27.2971  16.5358   C.3       1 RES1   0.0000
    24 C24     24.9132  27.0841  17.3362   C.3       1 RES1   0.0000
    25 C25     24.6611  26.4081  16.0371   C.3       1 RES1   0.0000
    26 S26     23.5510  29.8152  14.3089   S.o2      1 RES1   0.0000
    27 O27     22.7267  30.0380  13.1613   O.2       1 RES1   0.0000
    28 O28     24.5054  28.7615  14.1005   O.2       1 RES1   0.0000
    29 C29     24.3916  31.2039  14.6507   C.2       1 RES1   0.0000
    30 C30     23.8589  32.4593  14.3537   C.2       1 RES1   0.0000
    31 C31     24.5752  33.6191  14.6526   C.2       1 RES1   0.0000
    32 C32     25.8276  33.5276  15.2417   C.2       1 RES1   0.0000
    33 C33     26.3677  32.2743  15.5533   C.2       1 RES1   0.0000
    34 O34     27.6073  32.1175  16.1412   O.3       1 RES1   0.0000
    35 C35     28.4595  33.2019  16.4894   C.3       1 RES1   0.0000
    36 C36     25.6450  31.1252  15.2502   C.2       1 RES1   0.0000
@<TRIPOS>BOND
     1     1     2    1
     2     2     3   am
     3     3     4    2
     4     3     5    1
     5     5     6    1
     6     6     7    1
     7     7     8    2
     8     7     9   am
     9     9    10    1
    10    10    11    1
    11    11    12    1
    12    12    13    2
    13    13    14    1
    14    14    15    2
    15    15    16    1
    16    16    17    2
    17    10    18    1
    18    18    19    1
    19    18    20    1
    20    20    21    1
    21    21    22    1
    22    22    23    1
    23    23    24    1
    24    24    25    1
    25    21    26    1
    26    26    27    2
    27    26    28    2
    28    26    29    1
    29    29    30    2
    30    30    31    1
    31    31    32    2
    32    32    33    1
    33    33    34    1
    34    34    35    1
    35    33    36    2
    36    17    12    1
    37    25    23    1
    38    36    29    1
@<TRIPOS>SUBSTRUCTURE
     1 RES1        1 GROUP             0 ****  ****    0  
@<TRIPOS>MOLECULE
ligand_10
    36    38     1     0     0
SMALL
NO_CHARGES
****
Generated from the CSD

@<TRIPOS>ATOM
     1 C1      24.1322  24.6337   8.9816   C.3       1 RES1   0.0000
     2 N2      23.1327  25.5190   9.5566   N.am      1 RES1   0.0000
     3 C3      22.9562  25.6291  10.8748   C.2       1 RES1   0.0000
     4 O4      23.6297  24.9868  11.6906   O.2       1 RES1   0.0000
     5 C5      21.8860  26.5782  11.3515   C.3       1 RES1   0.0000
     6 C6      21.8641  26.5370  12.8603   C.3       1 RES1   0.0000
     7 C7      20.8085  27.4714  13.3706   C.2       1 RES1   0.0000
     8 O8      20.1671  28.0854  12.5377   O.2       1 RES1   0.0000
     9 N9      20.6292  27.6311  14.6882   N.am      1 RES1   0.0000
    10 C10     19.6460  28.5580  15.2718   C.3       1 RES1   0.0000
    11 C11     18.4414  27.7634  15.7812   C.3       1 RES1   0.0000
    12 C12     17.7485  27.1194  14.6057   C.2       1 RES1   0.0000
    13 C13     16.7297  27.7920  13.9319   C.2       1 RES1   0.0000
    14 C14     16.0749  27.2040  12.8632   C.2       1 RES1   0.0000
    15 C15     16.4388  25.9289  12.4554   C.2       1 RES1   0.0000
    16 C16     17.4318  25.2583  13.1332   C.2       1 RES1   0.0000
    17 C17     18.1007  25.8460  14.1918   C.2       1 RES1   0.0000
    18 C18     20.3133  29.4016  16.3752   C.3       1 RES1   0.0000
    19 O19     19.3349  30.2368  16.9921   O.3       1 RES1   0.0000
    20 C20     21.5046  30.2652  15.8919   C.3       1 RES1   0.0000
    21 N21     22.5888  29.3232  15.5264   N.3       1 RES1   0.0000
    22 C22     23.3308  28.8110  16.6993   C.3       1 RES1   0.0000
    23 C23     23.4928  27.2971  16.5358   C.3       1 RES1   0.0000
    24 C24     24.9132  27.0841  17.3362   C.3       1 RES1   0.0000
    25 C25     24.6611  26.4081  16.0371   C.3       1 RES1   0.0000
    26 S26     23.5510  29.8152  14.3089   S.o2      1 RES1   0.0000
    27 O27     22.7267  30.0380  13.1613   O.2       1 RES1   0.0000
    28 O28     24.5054  28.7615  14.1005   O.2       1 RES1   0.0000
    29 C29     24.3916  31.2039  14.6507   C.2       1 RES1   0.0000
    30 C30     25.6538  31.1534  15.2444   C.2       1 RES1   0.0000
    31 C31     26.3519  32.3299  15.5206   C.2       1 RES1   0.0000
    32 C32     25.7881  33.5590  15.2116   C.2       1 RES1   0.0000
    33 C33     24.5271  33.6215  14.6068   C.2       1 RES1   0.0000
    34 O34     23.9139  34.8130  14.2737   O.3       1 RES1   0.0000
    35 C35     24.4922  36.0915  14.5071   C.3       1 RES1   0.0000
    36 C36     23.8405  32.4425  14.3368   C.2       1 RES1   0.0000
@<TRIPOS>BOND
     1     1     2    1
     2     2     3   am
     3     3     4    2
     4     3     5    1
     5     5     6    1
     6     6     7    1
     7     7     8    2
     8     7     9   am
     9     9    10    1
    10    10    11    1
    11    11    12    1
    12    12    13    2
    13    13    14    1
    14    14    15    2
    15    15    16    1
    16    16    17    2
    17    10    18    1
    18    18    19    1
    19    18    20    1
    20    20    21    1
    21    21    22    1
    22    22    23    1
    23    23    24    1
    24    24    25    1
    25    21    26    1
    26    26    27    2
    27    26    28    2
    28    26    29    1
    29    29    30    2
    30    30    31    1
    31    31    32    2
    32    32    33    1
    33    33    34    1
    34    34    35    1
    35    33    36    2
    36    17    12    1
    37    25    23    1
    38    36    29    1
@<TRIPOS>SUBSTRUCTURE
     1 RES1        1 GROUP             0 ****  ****    0  
@<TRIPOS>MOLECULE
ligand_11
    36    38     1     0     0
SMALL
NO_CHARGES
****
Generated from the CSD

@<TRIPOS>ATOM
     1 C1      24.1113  24.8003   8.8661   C.3       1 RES1   0.0000
     2 N2      23.1034  25.6584   9.4670   N.am      1 RES1   0.0000
     3 C3      22.9452  25.7492  10.7890   C.2       1 RES1   0.0000
     4 O4      23.6441  25.1108  11.5865   O.2       1 RES1   0.0000
     5 C5      21.8639  26.6707  11.2937   C.3       1 RES1   0.0000
     6 C6      21.8663  26.6111  12.8020   C.3       1 RES1   0.0000
     7 C7      20.8004  27.5179  13.3398   C.2       1 RES1   0.0000
     8 O8      20.1340  28.1288  12.5244   O.2       1 RES1   0.0000
     9 N9      20.6384  27.6582  14.6619   N.am      1 RES1   0.0000
    10 C10     19.6460  28.5580  15.2718   C.3       1 RES1   0.0000
    11 C11     18.7733  27.7633  16.2459   C.3       1 RES1   0.0000
    12 C12     17.9767  26.7446  15.4686   C.2       1 RES1   0.0000
    13 C13     16.7178  27.0687  14.9640   C.2       1 RES1   0.0000
    14 C14     15.9703  26.1367  14.2646   C.2       1 RES1   0.0000
    15 C15     16.4818  24.8632  14.0608   C.2       1 RES1   0.0000
    16 C16     17.7165  24.5385  14.5755   C.2       1 RES1   0.0000
    17 C17     18.4751  25.4695  15.2618   C.2       1 RES1   0.0000
    18 C18     20.3608  29.7457  15.9448   C.3       1 RES1   0.0000
    19 O19     21.0394  29.2912  17.1145   O.3       1 RES1   0.0000
    20 C20     19.4333  30.9313  16.3089   C.3       1 RES1   0.0000
    21 N21     20.3097  32.0131  16.8171   N.3       1 RES1   0.0000
    22 C22     19.8056  32.6289  18.0642   C.3       1 RES1   0.0000
    23 C23     20.9786  32.7552  19.0403   C.3       1 RES1   0.0000
    24 C24     20.5013  34.0900  19.8734   C.3       1 RES1   0.0000
    25 C25     21.9095  33.9339  19.4253   C.3       1 RES1   0.0000
    26 S26     20.7883  33.0970  15.7007   S.o2      1 RES1   0.0000
    27 O27     21.4851  32.3881  14.6720   O.2       1 RES1   0.0000
    28 O28     21.6334  34.0343  16.3877   O.2       1 RES1   0.0000
    29 C29     19.5342  33.9442  15.0217   C.2       1 RES1   0.0000
    30 C30     18.8887  33.4789  13.8750   C.2       1 RES1   0.0000
    31 C31     17.8310  34.1994  13.3185   C.2       1 RES1   0.0000
    32 C32     17.4207  35.3894  13.9011   C.2       1 RES1   0.0000
    33 C33     18.0540  35.8607  15.0572   C.2       1 RES1   0.0000
    34 O34     17.6910  37.0361  15.6845   O.3       1 RES1   0.0000
    35 C35     16.6451  37.8851  15.2276   C.3       1 RES1   0.0000
    36 C36     19.1074  35.1346  15.6026   C.2       1 RES1   0.0000
@<TRIPOS>BOND
     1     1     2    1
     2     2     3   am
     3     3     4    2
     4     3     5    1
     5     5     6    1
     6     6     7    1
     7     7     8    2
     8     7     9   am
     9     9    10    1
    10    10    11    1
    11    11    12    1
    12    12    13    2
    13    13    14    1
    14    14    15    2
    15    15    16    1
    16    16    17    2
    17    10    18    1
    18    18    19    1
    19    18    20    1
    20    20    21    1
    21    21    22    1
    22    22    23    1
    23    23    24    1
    24    24    25    1
    25    21    26    1
    26    26    27    2
    27    26    28    2
    28    26    29    1
    29    29    30    2
    30    30    31    1
    31    31    32    2
    32    32    33    1
    33    33    34    1
    34    34    35    1
    35    33    36    2
    36    17    12    1
    37    25    23    1
    38    36    29    1
@<TRIPOS>SUBSTRUCTURE
     1 RES1        1 GROUP             0 ****  ****    0  
@<TRIPOS>MOLECULE
ligand_12
    36    38     1     0     0
SMALL
NO_CHARGES
****
Generated from the CSD

@<TRIPOS>ATOM
     1 C1      24.1113  24.8003   8.8661   C.3       1 RES1   0.0000
     2 N2      23.1034  25.6584   9.4670   N.am      1 RES1   0.0000
     3 C3      22.9452  25.7492  10.7890   C.2       1 RES1   0.0000
     4 O4      23.6441  25.1108  11.5865   O.2       1 RES1   0.0000
     5 C5      21.8639  26.6707  11.2937   C.3       1 RES1   0.0000
     6 C6      21.8663  26.6111  12.8020   C.3       1 RES1   0.0000
     7 C7      20.8004  27.5179  13.3398   C.2       1 RES1   0.0000
     8 O8      20.1340  28.1288  12.5244   O.2       1 RES1   0.0000
     9 N9      20.6384  27.6582  14.6619   N.am      1 RES1   0.0000
    10 C10     19.6460  28.5580  15.2718   C.3       1 RES1   0.0000
    11 C11     18.7733  27.7633  16.2459   C.3       1 RES1   0.0000
    12 C12     17.9767  26.7446  15.4686   C.2       1 RES1   0.0000
    13 C13     16.7178  27.0687  14.9640   C.2       1 RES1   0.0000
    14 C14     15.9703  26.1367  14.2646   C.2       1 RES1   0.0000
    15 C15     16.4818  24.8632  14.0608   C.2       1 RES1   0.0000
    16 C16     17.7165  24.5385  14.5755   C.2       1 RES1   0.0000
    17 C17     18.4751  25.4695  15.2618   C.2       1 RES1   0.0000
    18 C18     20.3608  29.7457  15.9448   C.3       1 RES1   0.0000
    19 O19     21.0394  29.2912  17.1145   O.3       1 RES1   0.0000
    20 C20     19.4333  30.9313  16.3089   C.3       1 RES1   0.0000
    21 N21     20.3097  32.0131  16.8171   N.3       1 RES1   0.0000
    22 C22     19.8056  32.6289  18.0642   C.3       1 RES1   0.0000
    23 C23     20.9786  32.7552  19.0403   C.3       1 RES1   0.0000
    24 C24     20.5013  34.0900  19.8734   C.3       1 RES1   0.0000
    25 C25     21.9095  33.9339  19.4253   C.3       1 RES1   0.0000
    26 S26     20.7883  33.0970  15.7007   S.o2      1 RES1   0.0000
    27 O27     21.4851  32.3881  14.6720   O.2       1 RES1   0.0000
    28 O28     21.6334  34.0343  16.3877   O.2       1 RES1   0.0000
    29 C29     19.5342  33.9442  15.0217   C.2       1 RES1   0.0000
    30 C30     19.0914  35.1447  15.5793   C.2       1 RES1   0.0000
    31 C31     18.0390  35.8497  14.9934   C.2       1 RES1   0.0000
    32 C32     17.4219  35.3538  13.8545   C.2       1 RES1   0.0000
    33 C33     17.8641  34.1559  13.2807   C.2       1 RES1   0.0000
    34 O34     17.2926  33.6118  12.1475   O.3       1 RES1   0.0000
    35 C35     16.2043  34.2046  11.4490   C.3       1 RES1   0.0000
    36 C36     18.9133  33.4616  13.8736   C.2       1 RES1   0.0000
@<TRIPOS>BOND
     1     1     2    1
     2     2     3   am
     3     3     4    2
     4     3     5    1
     5     5     6    1
     6     6     7    1
     7     7     8    2
     8     7     9   am
     9     9    10    1
    10    10    11    1
    11    11    12    1
    12    12    13    2
    13    13    14    1
    14    14    15    2
    15    15    16    1
    16    16    17    2
    17    10    18    1
    18    18    19    1
    19    18    20    1
    20    20    21    1
    21    21    22    1
    22    22    23    1
    23    23    24    1
    24    24    25    1
    25    21    26    1
    26    26    27    2
    27    26    28    2
    28    26    29    1
    29    29    30    2
    30    30    31    1
    31    31    32    2
    32    32    33    1
    33    33    34    1
    34    34    35    1
    35    33    36    2
    36    17    12    1
    37    25    23    1
    38    36    29    1
@<TRIPOS>SUBSTRUCTURE
     1 RES1        1 GROUP             0 ****  ****    0  
@<TRIPOS>MOLECULE
ligand_13
    36    38     1     0     0
SMALL
NO_CHARGES
****
Generated from the CSD

@<TRIPOS>ATOM
     1 C1      24.1115  24.8005   8.8661   C.3       1 RES1   0.0000
     2 N2      23.1037  25.6587   9.4671   N.am      1 RES1   0.0000
     3 C3      22.9454  25.7493  10.7891   C.2       1 RES1   0.0000
     4 O4      23.6440  25.1108  11.5865   O.2       1 RES1   0.0000
     5 C5      21.8641  26.6709  11.2937   C.3       1 RES1   0.0000
     6 C6      21.8663  26.6112  12.8020   C.3       1 RES1   0.0000
     7 C7      20.8005  27.5180  13.3398   C.2       1 RES1   0.0000
     8 O8      20.1342  28.1290  12.5244   O.2       1 RES1   0.0000
     9 N9      20.6384  27.6582  14.6619   N.am      1 RES1   0.0000
    10 C10     19.6460  28.5580  15.2718   C.3       1 RES1   0.0000
    11 C11     18.7733  27.7633  16.2459   C.3       1 RES1   0.0000
    12 C12     17.9767  26.7446  15.4686   C.2       1 RES1   0.0000
    13 C13     16.7178  27.0687  14.9640   C.2       1 RES1   0.0000
    14 C14     15.9703  26.1367  14.2646   C.2       1 RES1   0.0000
    15 C15     16.4818  24.8632  14.0608   C.2       1 RES1   0.0000
    16 C16     17.7165  24.5385  14.5755   C.2       1 RES1   0.0000
    17 C17     18.4751  25.4695  15.2618   C.2       1 RES1   0.0000
    18 C18     20.3608  29.7457  15.9448   C.3       1 RES1   0.0000
    19 O19     21.0394  29.2912  17.1145   O.3       1 RES1   0.0000
    20 C20     19.4333  30.9313  16.3089   C.3       1 RES1   0.0000
    21 N21     20.3132  32.0282  16.7769   N.3       1 RES1   0.0000
    22 C22     20.6512  31.9264  18.2137   C.3       1 RES1   0.0000
    23 C23     22.1618  32.1283  18.3624   C.3       1 RES1   0.0000
    24 C24     22.2034  32.8002  19.8625   C.3       1 RES1   0.0000
    25 C25     23.0298  33.3510  18.7570   C.3       1 RES1   0.0000
    26 S26     19.8596  33.5225  16.3171   S.o2      1 RES1   0.0000
    27 O27     19.8134  33.5461  14.8877   O.2       1 RES1   0.0000
    28 O28     20.8463  34.4225  16.8474   O.2       1 RES1   0.0000
    29 C29     18.3808  33.9777  16.9153   C.2       1 RES1   0.0000
    30 C30     17.2066  33.7159  16.2076   C.2       1 RES1   0.0000
    31 C31     15.9691  34.0995  16.7263   C.2       1 RES1   0.0000
    32 C32     15.9020  34.7516  17.9486   C.2       1 RES1   0.0000
    33 C33     17.0723  35.0106  18.6720   C.2       1 RES1   0.0000
    34 O34     17.0712  35.6539  19.8939   O.3       1 RES1   0.0000
    35 C35     15.8927  36.1176  20.5417   C.3       1 RES1   0.0000
    36 C36     18.3000  34.6243  18.1449   C.2       1 RES1   0.0000
@<TRIPOS>BOND
     1     1     2    1
     2     2     3   am
     3     3     4    2
     4     3     5    1
     5     5     6    1
     6     6     7    1
     7     7     8    2
     8     7     9   am
     9     9    10    1
    10    10    11    1
    11    11    12    1
    12    12    13    2
    13    13    14    1
    14    14    15    2
    15    15    16    1
    16    16    17    2
    17    10    18    1
    18    18    19    1
    19    18    20    1
    20    20    21    1
    21    21    22    1
    22    22    23    1
    23    23    24    1
    24    24    25    1
    25    21    26    1
    26    26    27    2
    27    26    28    2
    28    26    29    1
    29    29    30    2
    30    30    31    1
    31    31    32    2
    32    32    33    1
    33    33    34    1
    34    34    35    1
    35    33    36    2
    36    17    12    1
    37    25    23    1
    38    36    29    1
@<TRIPOS>SUBSTRUCTURE
     1 RES1        1 GROUP             0 ****  ****    0  
@<TRIPOS>MOLECULE
ligand_14
    36    38     1     0     0
SMALL
NO_CHARGES
****
Generated from the CSD

@<TRIPOS>ATOM
     1 C1      24.1115  24.8005   8.8661   C.3       1 RES1   0.0000
     2 N2      23.1037  25.6587   9.4671   N.am      1 RES1   0.0000
     3 C3      22.9454  25.7493  10.7891   C.2       1 RES1   0.0000
     4 O4      23.6440  25.1108  11.5865   O.2       1 RES1   0.0000
     5 C5      21.8641  26.6709  11.2937   C.3       1 RES1   0.0000
     6 C6      21.8663  26.6112  12.8020   C.3       1 RES1   0.0000
     7 C7      20.8005  27.5180  13.3398   C.2       1 RES1   0.0000
     8 O8      20.1342  28.1290  12.5244   O.2       1 RES1   0.0000
     9 N9      20.6384  27.6582  14.6619   N.am      1 RES1   0.0000
    10 C10     19.6460  28.5580  15.2718   C.3       1 RES1   0.0000
    11 C11     18.7733  27.7633  16.2459   C.3       1 RES1   0.0000
    12 C12     17.9767  26.7446  15.4686   C.2       1 RES1   0.0000
    13 C13     16.7178  27.0687  14.9640   C.2       1 RES1   0.0000
    14 C14     15.9703  26.1367  14.2646   C.2       1 RES1   0.0000
    15 C15     16.4818  24.8632  14.0608   C.2       1 RES1   0.0000
    16 C16     17.7165  24.5385  14.5755   C.2       1 RES1   0.0000
    17 C17     18.4751  25.4695  15.2618   C.2       1 RES1   0.0000
    18 C18     20.3608  29.7457  15.9448   C.3       1 RES1   0.0000
    19 O19     21.0394  29.2912  17.1145   O.3       1 RES1   0.0000
    20 C20     19.4333  30.9313  16.3089   C.3       1 RES1   0.0000
    21 N21     20.3132  32.0282  16.7769   N.3       1 RES1   0.0000
    22 C22     20.6512  31.9264  18.2137   C.3       1 RES1   0.0000
    23 C23     22.1618  32.1283  18.3624   C.3       1 RES1   0.0000
    24 C24     22.2034  32.8002  19.8625   C.3       1 RES1   0.0000
    25 C25     23.0298  33.3510  18.7570   C.3       1 RES1   0.0000
    26 S26     19.8596  33.5225  16.3171   S.o2      1 RES1   0.0000
    27 O27     19.8134  33.5461  14.8877   O.2       1 RES1   0.0000
    28 O28     20.8463  34.4225  16.8474   O.2       1 RES1   0.0000
    29 C29     18.3808  33.9777  16.9153   C.2       1 RES1   0.0000
    30 C30     18.2719  34.6345  18.1420   C.2       1 RES1   0.0000
    31 C31     17.0214  35.0169  18.6297   C.2       1 RES1   0.0000
    32 C32     15.8770  34.7377  17.8974   C.2       1 RES1   0.0000
    33 C33     15.9750  34.0883  16.6611   C.2       1 RES1   0.0000
    34 O34     14.8741  33.7843  15.8849   O.3       1 RES1   0.0000
    35 C35     13.5362  34.0952  16.2550   C.3       1 RES1   0.0000
    36 C36     17.2264  33.7114  16.1853   C.2       1 RES1   0.0000
@<TRIPOS>BOND
     1     1     2    1
     2     2     3   am
     3     3     4    2
     4     3     5    1
     5     5     6    1
     6     6     7    1
     7     7     8    2
     8     7     9   am
     9     9    10    1
    10    10    11    1
    11    11    12    1
    12    12    13    2
    13    13    14    1
    14    14    15    2
    15    15    16    1
    16    16    17    2
    17    10    18    1
    18    18    19    1
    19    18    20    1
    20    20    21    1
    21    21    22    1
    22    22    23    1
    23    23    24    1
    24    24    25    1
    25    21    26    1
    26    26    27    2
    27    26    28    2
    28    26    29    1
    29    29    30    2
    30    30    31    1
    31    31    32    2
    32    32    33    1
    33    33    34    1
    34    34    35    1
    35    33    36    2
    36    17    12    1
    37    25    23    1
    38    36    29    1
@<TRIPOS>SUBSTRUCTURE
     1 RES1        1 GROUP             0 ****  ****    0  
@<TRIPOS>MOLECULE
ligand_15
    36    38     1     0     0
SMALL
NO_CHARGES
****
Generated from the CSD

@<TRIPOS>ATOM
     1 C1      24.1129  24.7987   8.8681   C.3       1 RES1   0.0000
     2 N2      23.1051  25.6572   9.4686   N.am      1 RES1   0.0000
     3 C3      22.9463  25.7481  10.7905   C.2       1 RES1   0.0000
     4 O4      23.6445  25.1094  11.5883   O.2       1 RES1   0.0000
     5 C5      21.8650  26.6700  11.2947   C.3       1 RES1   0.0000
     6 C6      21.8667  26.6104  12.8030   C.3       1 RES1   0.0000
     7 C7      20.8010  27.5176  13.3403   C.2       1 RES1   0.0000
     8 O8      20.1352  28.1287  12.5247   O.2       1 RES1   0.0000
     9 N9      20.6384  27.6580  14.6624   N.am      1 RES1   0.0000
    10 C10     19.6460  28.5580  15.2718   C.3       1 RES1   0.0000
    11 C11     18.7729  27.7637  16.2458   C.3       1 RES1   0.0000
    12 C12     17.9765  26.7447  15.4684   C.2       1 RES1   0.0000
    13 C13     16.7178  27.0689  14.9633   C.2       1 RES1   0.0000
    14 C14     15.9705  26.1367  14.2639   C.2       1 RES1   0.0000
    15 C15     16.4819  24.8631  14.0606   C.2       1 RES1   0.0000
    16 C16     17.7164  24.5384  14.5759   C.2       1 RES1   0.0000
    17 C17     18.4749  25.4696  15.2622   C.2       1 RES1   0.0000
    18 C18     20.3608  29.7457  15.9448   C.3       1 RES1   0.0000
    19 O19     19.3952  30.5876  16.5728   O.3       1 RES1   0.0000
    20 C20     21.2439  30.5881  14.9914   C.3       1 RES1   0.0000
    21 N21     21.7708  31.7188  15.7917   N.3       1 RES1   0.0000
    22 C22     21.9426  31.3848  17.2227   C.3       1 RES1   0.0000
    23 C23     23.2322  32.0481  17.7145   C.3       1 RES1   0.0000
    24 C24     22.8692  32.2063  19.3103   C.3       1 RES1   0.0000
    25 C25     23.5104  33.3174  18.5603   C.3       1 RES1   0.0000
    26 S26     21.0334  33.1479  15.5387   S.o2      1 RES1   0.0000
    27 O27     21.1418  33.4566  14.1462   O.2       1 RES1   0.0000
    28 O28     21.7164  34.1040  16.3657   O.2       1 RES1   0.0000
    29 C29     19.4321  33.1512  15.9720   C.2       1 RES1   0.0000
    30 C30     18.4355  32.8362  15.0470   C.2       1 RES1   0.0000
    31 C31     17.0928  32.8373  15.4276   C.2       1 RES1   0.0000
    32 C32     16.7421  33.1601  16.7302   C.2       1 RES1   0.0000
    33 C33     17.7337  33.4679  17.6691   C.2       1 RES1   0.0000
    34 O34     17.4488  33.7953  18.9800   O.3       1 RES1   0.0000
    35 C35     16.1305  33.8542  19.5111   C.3       1 RES1   0.0000
    36 C36     19.0685  33.4643  17.2783   C.2       1 RES1   0.0000
@<TRIPOS>BOND
     1     1     2    1
     2     2     3   am
     3     3     4    2
     4     3     5    1
     5     5     6    1
     6     6     7    1
     7     7     8    2
     8     7     9   am
     9     9    10    1
    10    10    11    1
    11    11    12    1
    12    12    13    2
    13    13    14    1
    14    14    15    2
    15    15    16    1
    16    16    17    2
    17    10    18    1
    18    18    19    1
    19    18    20    1
    20    20    21    1
    21    21    22    1
    22    22    23    1
    23    23    24    1
    24    24    25    1
    25    21    26    1
    26    26    27    2
    27    26    28    2
    28    26    29    1
    29    29    30    2
    30    30    31    1
    31    31    32    2
    32    32    33    1
    33    33    34    1
    34    34    35    1
    35    33    36    2
    36    17    12    1
    37    25    23    1
    38    36    29    1
@<TRIPOS>SUBSTRUCTURE
     1 RES1        1 GROUP             0 ****  ****    0  
@<TRIPOS>MOLECULE
ligand_16
    36    38     1     0     0
SMALL
NO_CHARGES
****
Generated from the CSD

@<TRIPOS>ATOM
     1 C1      24.1124  24.7996   8.8672   C.3       1 RES1   0.0000
     2 N2      23.1045  25.6579   9.4679   N.am      1 RES1   0.0000
     3 C3      22.9459  25.7487  10.7899   C.2       1 RES1   0.0000
     4 O4      23.6443  25.1100  11.5875   O.2       1 RES1   0.0000
     5 C5      21.8647  26.6705  11.2942   C.3       1 RES1   0.0000
     6 C6      21.8666  26.6107  12.8026   C.3       1 RES1   0.0000
     7 C7      20.8008  27.5178  13.3401   C.2       1 RES1   0.0000
     8 O8      20.1348  28.1289  12.5246   O.2       1 RES1   0.0000
     9 N9      20.6384  27.6581  14.6622   N.am      1 RES1   0.0000
    10 C10     19.6460  28.5580  15.2718   C.3       1 RES1   0.0000
    11 C11     18.7731  27.7635  16.2459   C.3       1 RES1   0.0000
    12 C12     17.9766  26.7447  15.4685   C.2       1 RES1   0.0000
    13 C13     16.7178  27.0688  14.9636   C.2       1 RES1   0.0000
    14 C14     15.9704  26.1367  14.2642   C.2       1 RES1   0.0000
    15 C15     16.4818  24.8632  14.0606   C.2       1 RES1   0.0000
    16 C16     17.7164  24.5384  14.5757   C.2       1 RES1   0.0000
    17 C17     18.4750  25.4696  15.2620   C.2       1 RES1   0.0000
    18 C18     20.3608  29.7457  15.9448   C.3       1 RES1   0.0000
    19 O19     19.3952  30.5876  16.5728   O.3       1 RES1   0.0000
    20 C20     21.2439  30.5881  14.9914   C.3       1 RES1   0.0000
    21 N21     21.7706  31.7189  15.7917   N.3       1 RES1   0.0000
    22 C22     21.9447  31.3843  17.2222   C.3       1 RES1   0.0000
    23 C23     23.2341  32.0488  17.7127   C.3       1 RES1   0.0000
    24 C24     22.8733  32.2054  19.3092   C.3       1 RES1   0.0000
    25 C25     23.5120  33.3179  18.5591   C.3       1 RES1   0.0000
    26 S26     21.0312  33.1473  15.5404   S.o2      1 RES1   0.0000
    27 O27     21.1382  33.4574  14.1481   O.2       1 RES1   0.0000
    28 O28     21.7137  34.1036  16.3677   O.2       1 RES1   0.0000
    29 C29     19.4303  33.1483  15.9749   C.2       1 RES1   0.0000
    30 C30     19.0380  33.4642  17.2766   C.2       1 RES1   0.0000
    31 C31     17.6868  33.4669  17.6260   C.2       1 RES1   0.0000
    32 C32     16.7255  33.1469  16.6787   C.2       1 RES1   0.0000
    33 C33     17.1065  32.8382  15.3675   C.2       1 RES1   0.0000
    34 O34     16.1978  32.5135  14.3797   O.3       1 RES1   0.0000
    35 C35     14.7915  32.4586  14.5869   C.3       1 RES1   0.0000
    36 C36     18.4560  32.8382  15.0309   C.2       1 RES1   0.0000
@<TRIPOS>BOND
     1     1     2    1
     2     2     3   am
     3     3     4    2
     4     3     5    1
     5     5     6    1
     6     6     7    1
     7     7     8    2
     8     7     9   am
     9     9    10    1
    10    10    11    1
    11    11    12    1
    12    12    13    2
    13    13    14    1
    14    14    15    2
    15    15    16    1
    16    16    17    2
    17    10    18    1
    18    18    19    1
    19    18    20    1
    20    20    21    1
    21    21    22    1
    22    22    23    1
    23    23    24    1
    24    24    25    1
    25    21    26    1
    26    26    27    2
    27    26    28    2
    28    26    29    1
    29    29    30    2
    30    30    31    1
    31    31    32    2
    32    32    33    1
    33    33    34    1
    34    34    35    1
    35    33    36    2
    36    17    12    1
    37    25    23    1
    38    36    29    1
@<TRIPOS>SUBSTRUCTURE
     1 RES1        1 GROUP             0 ****  ****    0  
@<TRIPOS>MOLECULE
ligand_17
    36    38     1     0     0
SMALL
NO_CHARGES
****
Generated from the CSD

@<TRIPOS>ATOM
     1 C1      24.0314  24.7765   8.8258   C.3       1 RES1   0.0000
     2 N2      23.0082  25.6091   9.4367   N.am      1 RES1   0.0000
     3 C3      22.8926  25.7352  10.7602   C.2       1 RES1   0.0000
     4 O4      23.6466  25.1535  11.5508   O.2       1 RES1   0.0000
     5 C5      21.7898  26.6248  11.2757   C.3       1 RES1   0.0000
     6 C6      21.8478  26.6137  12.7840   C.3       1 RES1   0.0000
     7 C7      20.7623  27.4903  13.3325   C.2       1 RES1   0.0000
     8 O8      20.0412  28.0453  12.5237   O.2       1 RES1   0.0000
     9 N9      20.6407  27.6657  14.6548   N.am      1 RES1   0.0000
    10 C10     19.6460  28.5580  15.2718   C.3       1 RES1   0.0000
    11 C11     18.4723  27.7250  15.7919   C.3       1 RES1   0.0000
    12 C12     17.7723  27.0822  14.6199   C.2       1 RES1   0.0000
    13 C13     16.7235  27.7392  13.9775   C.2       1 RES1   0.0000
    14 C14     16.0622  27.1517  12.9125   C.2       1 RES1   0.0000
    15 C15     16.4498  25.8928  12.4769   C.2       1 RES1   0.0000
    16 C16     17.4728  25.2371  13.1238   C.2       1 RES1   0.0000
    17 C17     18.1479  25.8248  14.1785   C.2       1 RES1   0.0000
    18 C18     20.3133  29.4016  16.3752   C.3       1 RES1   0.0000
    19 O19     19.3349  30.2368  16.9921   O.3       1 RES1   0.0000
    20 C20     21.5046  30.2652  15.8919   C.3       1 RES1   0.0000
    21 N21     20.9237  31.4111  15.1530   N.3       1 RES1   0.0000
    22 C22     20.6842  31.1165  13.7231   C.3       1 RES1   0.0000
    23 C23     19.2684  31.5825  13.3720   C.3       1 RES1   0.0000
    24 C24     19.4888  31.9635  11.7878   C.3       1 RES1   0.0000
    25 C25     18.7167  32.8595  12.6873   C.3       1 RES1   0.0000
    26 S26     21.6547  32.8425  15.4112   S.o2      1 RES1   0.0000
    27 O27     21.5937  33.1192  16.8133   O.2       1 RES1   0.0000
    28 O28     20.9320  33.8089  14.6311   O.2       1 RES1   0.0000
    29 C29     23.2390  32.8736  14.9206   C.2       1 RES1   0.0000
    30 C30     24.2694  32.5164  15.7917   C.2       1 RES1   0.0000
    31 C31     25.5972  32.5416  15.3630   C.2       1 RES1   0.0000
    32 C32     25.8995  32.9306  14.0664   C.2       1 RES1   0.0000
    33 C33     24.8736  33.2814  13.1808   C.2       1 RES1   0.0000
    34 O34     25.1097  33.6751  11.8785   O.3       1 RES1   0.0000
    35 C35     26.4076  33.7655  11.3034   C.3       1 RES1   0.0000
    36 C36     23.5540  33.2531  13.6193   C.2       1 RES1   0.0000
@<TRIPOS>BOND
     1     1     2    1
     2     2     3   am
     3     3     4    2
     4     3     5    1
     5     5     6    1
     6     6     7    1
     7     7     8    2
     8     7     9   am
     9     9    10    1
    10    10    11    1
    11    11    12    1
    12    12    13    2
    13    13    14    1
    14    14    15    2
    15    15    16    1
    16    16    17    2
    17    10    18    1
    18    18    19    1
    19    18    20    1
    20    20    21    1
    21    21    22    1
    22    22    23    1
    23    23    24    1
    24    24    25    1
    25    21    26    1
    26    26    27    2
    27    26    28    2
    28    26    29    1
    29    29    30    2
    30    30    31    1
    31    31    32    2
    32    32    33    1
    33    33    34    1
    34    34    35    1
    35    33    36    2
    36    17    12    1
    37    25    23    1
    38    36    29    1
@<TRIPOS>SUBSTRUCTURE
     1 RES1        1 GROUP             0 ****  ****    0  
@<TRIPOS>MOLECULE
ligand_18
    36    38     1     0     0
SMALL
NO_CHARGES
****
Generated from the CSD

@<TRIPOS>ATOM
     1 C1      24.0314  24.7765   8.8258   C.3       1 RES1   0.0000
     2 N2      23.0082  25.6091   9.4367   N.am      1 RES1   0.0000
     3 C3      22.8926  25.7352  10.7602   C.2       1 RES1   0.0000
     4 O4      23.6466  25.1535  11.5508   O.2       1 RES1   0.0000
     5 C5      21.7898  26.6248  11.2757   C.3       1 RES1   0.0000
     6 C6      21.8478  26.6137  12.7840   C.3       1 RES1   0.0000
     7 C7      20.7623  27.4903  13.3325   C.2       1 RES1   0.0000
     8 O8      20.0412  28.0453  12.5237   O.2       1 RES1   0.0000
     9 N9      20.6407  27.6657  14.6548   N.am      1 RES1   0.0000
    10 C10     19.6460  28.5580  15.2718   C.3       1 RES1   0.0000
    11 C11     18.4723  27.7250  15.7919   C.3       1 RES1   0.0000
    12 C12     17.7723  27.0822  14.6199   C.2       1 RES1   0.0000
    13 C13     16.7235  27.7392  13.9775   C.2       1 RES1   0.0000
    14 C14     16.0622  27.1517  12.9125   C.2       1 RES1   0.0000
    15 C15     16.4498  25.8928  12.4769   C.2       1 RES1   0.0000
    16 C16     17.4728  25.2371  13.1238   C.2       1 RES1   0.0000
    17 C17     18.1479  25.8248  14.1785   C.2       1 RES1   0.0000
    18 C18     20.3133  29.4016  16.3752   C.3       1 RES1   0.0000
    19 O19     19.3349  30.2368  16.9921   O.3       1 RES1   0.0000
    20 C20     21.5046  30.2652  15.8919   C.3       1 RES1   0.0000
    21 N21     20.9237  31.4111  15.1530   N.3       1 RES1   0.0000
    22 C22     20.6842  31.1165  13.7231   C.3       1 RES1   0.0000
    23 C23     19.2684  31.5825  13.3720   C.3       1 RES1   0.0000
    24 C24     19.4888  31.9635  11.7878   C.3       1 RES1   0.0000
    25 C25     18.7167  32.8595  12.6873   C.3       1 RES1   0.0000
    26 S26     21.6547  32.8425  15.4112   S.o2      1 RES1   0.0000
    27 O27     21.5937  33.1192  16.8133   O.2       1 RES1   0.0000
    28 O28     20.9320  33.8089  14.6311   O.2       1 RES1   0.0000
    29 C29     23.2390  32.8736  14.9206   C.2       1 RES1   0.0000
    30 C30     23.5834  33.2578  13.6238   C.2       1 RES1   0.0000
    31 C31     24.9212  33.2850  13.2271   C.2       1 RES1   0.0000
    32 C32     25.9168  32.9215  14.1217   C.2       1 RES1   0.0000
    33 C33     25.5840  32.5440  15.4281   C.2       1 RES1   0.0000
    34 O34     26.5285  32.1735  16.3648   O.3       1 RES1   0.0000
    35 C35     27.9266  32.1360  16.1050   C.3       1 RES1   0.0000
    36 C36     24.2474  32.5201  15.8121   C.2       1 RES1   0.0000
@<TRIPOS>BOND
     1     1     2    1
     2     2     3   am
     3     3     4    2
     4     3     5    1
     5     5     6    1
     6     6     7    1
     7     7     8    2
     8     7     9   am
     9     9    10    1
    10    10    11    1
    11    11    12    1
    12    12    13    2
    13    13    14    1
    14    14    15    2
    15    15    16    1
    16    16    17    2
    17    10    18    1
    18    18    19    1
    19    18    20    1
    20    20    21    1
    21    21    22    1
    22    22    23    1
    23    23    24    1
    24    24    25    1
    25    21    26    1
    26    26    27    2
    27    26    28    2
    28    26    29    1
    29    29    30    2
    30    30    31    1
    31    31    32    2
    32    32    33    1
    33    33    34    1
    34    34    35    1
    35    33    36    2
    36    17    12    1
    37    25    23    1
    38    36    29    1
@<TRIPOS>SUBSTRUCTURE
     1 RES1        1 GROUP             0 ****  ****    0  
@<TRIPOS>MOLECULE
ligand_19
    36    38     1     0     0
SMALL
NO_CHARGES
****
Generated from the CSD

@<TRIPOS>ATOM
     1 C1      24.0160  24.6146   8.9033   C.3       1 RES1   0.0000
     2 N2      23.0630  25.5441   9.4875   N.am      1 RES1   0.0000
     3 C3      22.8943  25.6521  10.8069   C.2       1 RES1   0.0000
     4 O4      23.5362  24.9701  11.6161   O.2       1 RES1   0.0000
     5 C5      21.8738  26.6496  11.2934   C.3       1 RES1   0.0000
     6 C6      21.8659  26.6108  12.8025   C.3       1 RES1   0.0000
     7 C7      23.1149  27.2541  13.3256   C.2       1 RES1   0.0000
     8 O8      23.8917  27.6999  12.5010   O.2       1 RES1   0.0000
     9 N9      23.3556  27.2873  14.6427   N.am      1 RES1   0.0000
    10 C10     24.5744  27.8610  15.2357   C.3       1 RES1   0.0000
    11 C11     24.1842  28.9080  16.2813   C.3       1 RES1   0.0000
    12 C12     23.4887  30.0542  15.5890   C.2       1 RES1   0.0000
    13 C13     24.2222  31.1393  15.1105   C.2       1 RES1   0.0000
    14 C14     23.5931  32.2047  14.4895   C.2       1 RES1   0.0000
    15 C15     22.2139  32.1917  14.3390   C.2       1 RES1   0.0000
    16 C16     21.4889  31.1288  14.8285   C.2       1 RES1   0.0000
    17 C17     22.1126  30.0540  15.4361   C.2       1 RES1   0.0000
    18 C18     25.4524  26.7362  15.8174   C.3       1 RES1   0.0000
    19 O19     26.6083  27.3046  16.4309   O.3       1 RES1   0.0000
    20 C20     25.8844  25.6615  14.7894   C.3       1 RES1   0.0000
    21 N21     26.5997  24.6108  15.5515   N.3       1 RES1   0.0000
    22 C22     27.8677  24.1942  14.9132   C.3       1 RES1   0.0000
    23 C23     28.9486  24.1351  15.9963   C.3       1 RES1   0.0000
    24 C24     29.9014  22.9504  15.3701   C.3       1 RES1   0.0000
    25 C25     29.5591  22.9692  16.8161   C.3       1 RES1   0.0000
    26 S26     25.6762  23.3640  16.0440   S.o2      1 RES1   0.0000
    27 O27     24.6284  23.8911  16.8628   O.2       1 RES1   0.0000
    28 O28     26.5470  22.4818  16.7708   O.2       1 RES1   0.0000
    29 C29     25.0066  22.5031  14.7940   C.2       1 RES1   0.0000
    30 C30     23.7590  22.8463  14.2708   C.2       1 RES1   0.0000
    31 C31     23.2110  22.1165  13.2149   C.2       1 RES1   0.0000
    32 C32     23.9040  21.0384  12.6845   C.2       1 RES1   0.0000
    33 C33     25.1606  20.6912  13.1945   C.2       1 RES1   0.0000
    34 O34     25.8998  19.6309  12.7085   O.3       1 RES1   0.0000
    35 C35     25.4678  18.7866  11.6484   C.3       1 RES1   0.0000
    36 C36     25.6965  21.4253  14.2473   C.2       1 RES1   0.0000
@<TRIPOS>BOND
     1     1     2    1
     2     2     3   am
     3     3     4    2
     4     3     5    1
     5     5     6    1
     6     6     7    1
     7     7     8    2
     8     7     9   am
     9     9    10    1
    10    10    11    1
    11    11    12    1
    12    12    13    2
    13    13    14    1
    14    14    15    2
    15    15    16    1
    16    16    17    2
    17    10    18    1
    18    18    19    1
    19    18    20    1
    20    20    21    1
    21    21    22    1
    22    22    23    1
    23    23    24    1
    24    24    25    1
    25    21    26    1
    26    26    27    2
    27    26    28    2
    28    26    29    1
    29    29    30    2
    30    30    31    1
    31    31    32    2
    32    32    33    1
    33    33    34    1
    34    34    35    1
    35    33    36    2
    36    17    12    1
    37    25    23    1
    38    36    29    1
@<TRIPOS>SUBSTRUCTURE
     1 RES1        1 GROUP             0 ****  ****    0  
@<TRIPOS>MOLECULE
ligand_20
    36    38     1     0     0
SMALL
NO_CHARGES
****
Generated from the CSD

@<TRIPOS>ATOM
     1 C1      24.0159  24.6145   8.9035   C.3       1 RES1   0.0000
     2 N2      23.0629  25.5441   9.4876   N.am      1 RES1   0.0000
     3 C3      22.8942  25.6520  10.8070   C.2       1 RES1   0.0000
     4 O4      23.5361  24.9701  11.6162   O.2       1 RES1   0.0000
     5 C5      21.8736  26.6495  11.2936   C.3       1 RES1   0.0000
     6 C6      21.8658  26.6108  12.8026   C.3       1 RES1   0.0000
     7 C7      23.1148  27.2541  13.3256   C.2       1 RES1   0.0000
     8 O8      23.8916  27.6999  12.5010   O.2       1 RES1   0.0000
     9 N9      23.3555  27.2873  14.6428   N.am      1 RES1   0.0000
    10 C10     24.5744  27.8610  15.2357   C.3       1 RES1   0.0000
    11 C11     24.1843  28.9081  16.2813   C.3       1 RES1   0.0000
    12 C12     23.4888  30.0543  15.5890   C.2       1 RES1   0.0000
    13 C13     24.2224  31.1393  15.1104   C.2       1 RES1   0.0000
    14 C14     23.5933  32.2048  14.4894   C.2       1 RES1   0.0000
    15 C15     22.2142  32.1918  14.3389   C.2       1 RES1   0.0000
    16 C16     21.4891  31.1290  14.8285   C.2       1 RES1   0.0000
    17 C17     22.1128  30.0541  15.4361   C.2       1 RES1   0.0000
    18 C18     25.4524  26.7362  15.8174   C.3       1 RES1   0.0000
    19 O19     26.6083  27.3046  16.4309   O.3       1 RES1   0.0000
    20 C20     25.8844  25.6615  14.7894   C.3       1 RES1   0.0000
    21 N21     26.5998  24.6108  15.5515   N.3       1 RES1   0.0000
    22 C22     27.8678  24.1943  14.9133   C.3       1 RES1   0.0000
    23 C23     28.9486  24.1352  15.9964   C.3       1 RES1   0.0000
    24 C24     29.9016  22.9507  15.3703   C.3       1 RES1   0.0000
    25 C25     29.5592  22.9694  16.8162   C.3       1 RES1   0.0000
    26 S26     25.6762  23.3639  16.0439   S.o2      1 RES1   0.0000
    27 O27     24.6284  23.8909  16.8626   O.2       1 RES1   0.0000
    28 O28     26.5471  22.4817  16.7706   O.2       1 RES1   0.0000
    29 C29     25.0069  22.5031  14.7937   C.2       1 RES1   0.0000
    30 C30     25.6737  21.4131  14.2321   C.2       1 RES1   0.0000
    31 C31     25.0954  20.6946  13.1848   C.2       1 RES1   0.0000
    32 C32     23.8539  21.0675  12.6911   C.2       1 RES1   0.0000
    33 C33     23.1714  22.1528  13.2531   C.2       1 RES1   0.0000
    34 O34     21.9333  22.5716  12.8076   O.3       1 RES1   0.0000
    35 C35     21.2262  21.9511  11.7405   C.3       1 RES1   0.0000
    36 C36     23.7577  22.8618  14.2962   C.2       1 RES1   0.0000
@<TRIPOS>BOND
     1     1     2    1
     2     2     3   am
     3     3     4    2
     4     3     5    1
     5     5     6    1
     6     6     7    1
     7     7     8    2
     8     7     9   am
     9     9    10    1
    10    10    11    1
    11    11    12    1
    12    12    13    2
    13    13    14    1
    14    14    15    2
    15    15    16    1
    16    16    17    2
    17    10    18    1
    18    18    19    1
    19    18    20    1
    20    20    21    1
    21    21    22    1
    22    22    23    1
    23    23    24    1
    24    24    25    1
    25    21    26    1
    26    26    27    2
    27    26    28    2
    28    26    29    1
    29    29    30    2
    30    30    31    1
    31    31    32    2
    32    32    33    1
    33    33    34    1
    34    34    35    1
    35    33    36    2
    36    17    12    1
    37    25    23    1
    38    36    29    1
@<TRIPOS>SUBSTRUCTURE
     1 RES1        1 GROUP             0 ****  ****    0  
@<TRIPOS>MOLECULE
ligand_21
    36    38     1     0     0
SMALL
NO_CHARGES
****
Generated from the CSD

@<TRIPOS>ATOM
     1 C1      24.2737  24.9156   8.9110   C.3       1 RES1   0.0000
     2 N2      23.2044  25.7112   9.4915   N.am      1 RES1   0.0000
     3 C3      23.0295  25.8106  10.8107   C.2       1 RES1   0.0000
     4 O4      23.7639  25.2338  11.6230   O.2       1 RES1   0.0000
     5 C5      21.8833  26.6630  11.2933   C.3       1 RES1   0.0000
     6 C6      21.8659  26.6110  12.8018   C.3       1 RES1   0.0000
     7 C7      21.3833  25.2642  13.2500   C.2       1 RES1   0.0000
     8 O8      21.0798  24.4700  12.3788   O.2       1 RES1   0.0000
     9 N9      21.2653  24.9904  14.5558   N.am      1 RES1   0.0000
    10 C10     20.7607  23.7107  15.0792   C.3       1 RES1   0.0000
    11 C11     21.7814  23.1263  16.0582   C.3       1 RES1   0.0000
    12 C12     23.0441  22.7892  15.3041   C.2       1 RES1   0.0000
    13 C13     23.2104  21.5272  14.7345   C.2       1 RES1   0.0000
    14 C14     24.3719  21.2008  14.0556   C.2       1 RES1   0.0000
    15 C15     25.3835  22.1429  13.9382   C.2       1 RES1   0.0000
    16 C16     25.2262  23.3820  14.5170   C.2       1 RES1   0.0000
    17 C17     24.0620  23.7199  15.1833   C.2       1 RES1   0.0000
    18 C18     19.3733  23.9172  15.7172   C.3       1 RES1   0.0000
    19 O19     18.9124  22.6821  16.2627   O.3       1 RES1   0.0000
    20 C20     18.3037  24.4933  14.7568   C.3       1 RES1   0.0000
    21 N21     17.0921  24.7416  15.5735   N.3       1 RES1   0.0000
    22 C22     15.8526  24.2451  14.9365   C.3       1 RES1   0.0000
    23 C23     15.0417  23.4932  15.9957   C.3       1 RES1   0.0000
    24 C24     13.5232  23.7754  15.4317   C.3       1 RES1   0.0000
    25 C25     13.8328  23.8931  16.8804   C.3       1 RES1   0.0000
    26 S26     16.9594  26.2494  16.1729   S.o2      1 RES1   0.0000
    27 O27     18.1145  26.5046  16.9771   O.2       1 RES1   0.0000
    28 O28     15.7439  26.2713  16.9389   O.2       1 RES1   0.0000
    29 C29     16.8447  27.4185  15.0017   C.2       1 RES1   0.0000
    30 C30     17.9859  28.0340  14.4850   C.2       1 RES1   0.0000
    31 C31     17.8742  29.0118  13.4954   C.2       1 RES1   0.0000
    32 C32     16.6229  29.3823  13.0254   C.2       1 RES1   0.0000
    33 C33     15.4720  28.7647  13.5291   C.2       1 RES1   0.0000
    34 O34     14.1996  29.0881  13.1011   O.3       1 RES1   0.0000
    35 C35     13.9251  30.0735  12.1126   C.3       1 RES1   0.0000
    36 C36     15.5954  27.7920  14.5155   C.2       1 RES1   0.0000
@<TRIPOS>BOND
     1     1     2    1
     2     2     3   am
     3     3     4    2
     4     3     5    1
     5     5     6    1
     6     6     7    1
     7     7     8    2
     8     7     9   am
     9     9    10    1
    10    10    11    1
    11    11    12    1
    12    12    13    2
    13    13    14    1
    14    14    15    2
    15    15    16    1
    16    16    17    2
    17    10    18    1
    18    18    19    1
    19    18    20    1
    20    20    21    1
    21    21    22    1
    22    22    23    1
    23    23    24    1
    24    24    25    1
    25    21    26    1
    26    26    27    2
    27    26    28    2
    28    26    29    1
    29    29    30    2
    30    30    31    1
    31    31    32    2
    32    32    33    1
    33    33    34    1
    34    34    35    1
    35    33    36    2
    36    17    12    1
    37    25    23    1
    38    36    29    1
@<TRIPOS>SUBSTRUCTURE
     1 RES1        1 GROUP             0 ****  ****    0  
@<TRIPOS>MOLECULE
ligand_22
    36    38     1     0     0
SMALL
NO_CHARGES
****
Generated from the CSD

@<TRIPOS>ATOM
     1 C1      24.2737  24.9156   8.9110   C.3       1 RES1   0.0000
     2 N2      23.2044  25.7112   9.4915   N.am      1 RES1   0.0000
     3 C3      23.0295  25.8106  10.8107   C.2       1 RES1   0.0000
     4 O4      23.7639  25.2338  11.6230   O.2       1 RES1   0.0000
     5 C5      21.8833  26.6630  11.2933   C.3       1 RES1   0.0000
     6 C6      21.8659  26.6110  12.8018   C.3       1 RES1   0.0000
     7 C7      21.3833  25.2642  13.2500   C.2       1 RES1   0.0000
     8 O8      21.0798  24.4700  12.3788   O.2       1 RES1   0.0000
     9 N9      21.2653  24.9904  14.5558   N.am      1 RES1   0.0000
    10 C10     20.7607  23.7107  15.0792   C.3       1 RES1   0.0000
    11 C11     21.7814  23.1263  16.0582   C.3       1 RES1   0.0000
    12 C12     23.0441  22.7892  15.3041   C.2       1 RES1   0.0000
    13 C13     23.2104  21.5272  14.7345   C.2       1 RES1   0.0000
    14 C14     24.3719  21.2008  14.0556   C.2       1 RES1   0.0000
    15 C15     25.3835  22.1429  13.9382   C.2       1 RES1   0.0000
    16 C16     25.2262  23.3820  14.5170   C.2       1 RES1   0.0000
    17 C17     24.0620  23.7199  15.1833   C.2       1 RES1   0.0000
    18 C18     19.3733  23.9172  15.7172   C.3       1 RES1   0.0000
    19 O19     18.9124  22.6821  16.2627   O.3       1 RES1   0.0000
    20 C20     18.3037  24.4933  14.7568   C.3       1 RES1   0.0000
    21 N21     17.0921  24.7416  15.5735   N.3       1 RES1   0.0000
    22 C22     15.8526  24.2451  14.9365   C.3       1 RES1   0.0000
    23 C23     15.0417  23.4932  15.9957   C.3       1 RES1   0.0000
    24 C24     13.5232  23.7754  15.4317   C.3       1 RES1   0.0000
    25 C25     13.8328  23.8931  16.8804   C.3       1 RES1   0.0000
    26 S26     16.9594  26.2494  16.1729   S.o2      1 RES1   0.0000
    27 O27     18.1145  26.5046  16.9771   O.2       1 RES1   0.0000
    28 O28     15.7439  26.2713  16.9389   O.2       1 RES1   0.0000
    29 C29     16.8447  27.4185  15.0017   C.2       1 RES1   0.0000
    30 C30     15.6040  27.8176  14.5021   C.2       1 RES1   0.0000
    31 C31     15.5228  28.8069  13.5211   C.2       1 RES1   0.0000
    32 C32     16.6801  29.3941  13.0317   C.2       1 RES1   0.0000
    33 C33     17.9294  29.0091  13.5324   C.2       1 RES1   0.0000
    34 O34     19.1163  29.5569  13.0876   O.3       1 RES1   0.0000
    35 C35     19.1957  30.5610  12.0832   C.3       1 RES1   0.0000
    36 C36     17.9982  28.0217  14.5095   C.2       1 RES1   0.0000
@<TRIPOS>BOND
     1     1     2    1
     2     2     3   am
     3     3     4    2
     4     3     5    1
     5     5     6    1
     6     6     7    1
     7     7     8    2
     8     7     9   am
     9     9    10    1
    10    10    11    1
    11    11    12    1
    12    12    13    2
    13    13    14    1
    14    14    15    2
    15    15    16    1
    16    16    17    2
    17    10    18    1
    18    18    19    1
    19    18    20    1
    20    20    21    1
    21    21    22    1
    22    22    23    1
    23    23    24    1
    24    24    25    1
    25    21    26    1
    26    26    27    2
    27    26    28    2
    28    26    29    1
    29    29    30    2
    30    30    31    1
    31    31    32    2
    32    32    33    1
    33    33    34    1
    34    34    35    1
    35    33    36    2
    36    17    12    1
    37    25    23    1
    38    36    29    1
@<TRIPOS>SUBSTRUCTURE
     1 RES1        1 GROUP             0 ****  ****    0  
@<TRIPOS>MOLECULE
ligand_23
    36    38     1     0     0
SMALL
NO_CHARGES
****
Generated from the CSD

@<TRIPOS>ATOM
     1 C1      23.9773  24.7200   8.8443   C.3       1 RES1   0.0000
     2 N2      23.0257  25.6328   9.4562   N.am      1 RES1   0.0000
     3 C3      22.8701  25.7142  10.7792   C.2       1 RES1   0.0000
     4 O4      23.5239  25.0201  11.5683   O.2       1 RES1   0.0000
     5 C5      21.8495  26.6965  11.2956   C.3       1 RES1   0.0000
     6 C6      21.8571  26.6279  12.8035   C.3       1 RES1   0.0000
     7 C7      23.1073  27.2686  13.3268   C.2       1 RES1   0.0000
     8 O8      23.8781  27.7260  12.5030   O.2       1 RES1   0.0000
     9 N9      23.3555  27.2873  14.6429   N.am      1 RES1   0.0000
    10 C10     24.5744  27.8610  15.2357   C.3       1 RES1   0.0000
    11 C11     24.1844  28.9081  16.2813   C.3       1 RES1   0.0000
    12 C12     23.4892  30.0545  15.5889   C.2       1 RES1   0.0000
    13 C13     24.2231  31.1394  15.1105   C.2       1 RES1   0.0000
    14 C14     23.5943  32.2050  14.4894   C.2       1 RES1   0.0000
    15 C15     22.2152  32.1923  14.3387   C.2       1 RES1   0.0000
    16 C16     21.4898  31.1296  14.8282   C.2       1 RES1   0.0000
    17 C17     22.1132  30.0546  15.4358   C.2       1 RES1   0.0000
    18 C18     25.4524  26.7362  15.8174   C.3       1 RES1   0.0000
    19 O19     26.6083  27.3046  16.4309   O.3       1 RES1   0.0000
    20 C20     25.8844  25.6615  14.7894   C.3       1 RES1   0.0000
    21 N21     26.5713  24.5951  15.5559   N.3       1 RES1   0.0000
    22 C22     28.0065  24.8757  15.7798   C.3       1 RES1   0.0000
    23 C23     28.3172  24.6163  17.2566   C.3       1 RES1   0.0000
    24 C24     29.8904  24.1553  17.1302   C.3       1 RES1   0.0000
    25 C25     28.9470  23.4149  18.0078   C.3       1 RES1   0.0000
    26 S26     26.2742  23.0774  15.0477   S.o2      1 RES1   0.0000
    27 O27     24.8616  22.8620  15.1124   O.2       1 RES1   0.0000
    28 O28     27.0010  22.2085  15.9317   O.2       1 RES1   0.0000
    29 C29     26.7973  22.7840  13.5010   C.2       1 RES1   0.0000
    30 C30     25.9607  23.0008  12.4050   C.2       1 RES1   0.0000
    31 C31     26.4166  22.7553  11.1090   C.2       1 RES1   0.0000
    32 C32     27.7059  22.2859  10.9053   C.2       1 RES1   0.0000
    33 C33     28.5572  22.0744  11.9963   C.2       1 RES1   0.0000
    34 O34     29.8505  21.6105  11.8588   O.3       1 RES1   0.0000
    35 C35     30.4500  21.3010  10.6064   C.3       1 RES1   0.0000
    36 C36     28.0917  22.3219  13.2833   C.2       1 RES1   0.0000
@<TRIPOS>BOND
     1     1     2    1
     2     2     3   am
     3     3     4    2
     4     3     5    1
     5     5     6    1
     6     6     7    1
     7     7     8    2
     8     7     9   am
     9     9    10    1
    10    10    11    1
    11    11    12    1
    12    12    13    2
    13    13    14    1
    14    14    15    2
    15    15    16    1
    16    16    17    2
    17    10    18    1
    18    18    19    1
    19    18    20    1
    20    20    21    1
    21    21    22    1
    22    22    23    1
    23    23    24    1
    24    24    25    1
    25    21    26    1
    26    26    27    2
    27    26    28    2
    28    26    29    1
    29    29    30    2
    30    30    31    1
    31    31    32    2
    32    32    33    1
    33    33    34    1
    34    34    35    1
    35    33    36    2
    36    17    12    1
    37    25    23    1
    38    36    29    1
@<TRIPOS>SUBSTRUCTURE
     1 RES1        1 GROUP             0 ****  ****    0  
@<TRIPOS>MOLECULE
ligand_24
    36    38     1     0     0
SMALL
NO_CHARGES
****
Generated from the CSD

@<TRIPOS>ATOM
     1 C1      24.2742  24.9168   8.9116   C.3       1 RES1   0.0000
     2 N2      23.2050  25.7125   9.4922   N.am      1 RES1   0.0000
     3 C3      23.0300  25.8115  10.8115   C.2       1 RES1   0.0000
     4 O4      23.7643  25.2344  11.6236   O.2       1 RES1   0.0000
     5 C5      21.8839  26.6640  11.2942   C.3       1 RES1   0.0000
     6 C6      21.8664  26.6116  12.8027   C.3       1 RES1   0.0000
     7 C7      21.3836  25.2647  13.2505   C.2       1 RES1   0.0000
     8 O8      21.0800  24.4707  12.3790   O.2       1 RES1   0.0000
     9 N9      21.2655  24.9905  14.5562   N.am      1 RES1   0.0000
    10 C10     20.7607  23.7107  15.0792   C.3       1 RES1   0.0000
    11 C11     21.7813  23.1258  16.0581   C.3       1 RES1   0.0000
    12 C12     23.0440  22.7888  15.3039   C.2       1 RES1   0.0000
    13 C13     23.2100  21.5269  14.7340   C.2       1 RES1   0.0000
    14 C14     24.3715  21.2005  14.0550   C.2       1 RES1   0.0000
    15 C15     25.3833  22.1425  13.9379   C.2       1 RES1   0.0000
    16 C16     25.2261  23.3814  14.5171   C.2       1 RES1   0.0000
    17 C17     24.0620  23.7193  15.1834   C.2       1 RES1   0.0000
    18 C18     19.3733  23.9172  15.7172   C.3       1 RES1   0.0000
    19 O19     18.9124  22.6821  16.2627   O.3       1 RES1   0.0000
    20 C20     18.3037  24.4933  14.7568   C.3       1 RES1   0.0000
    21 N21     17.1065  24.7817  15.5815   N.3       1 RES1   0.0000
    22 C22     16.2286  23.6042  15.7595   C.3       1 RES1   0.0000
    23 C23     15.8705  23.4981  17.2446   C.3       1 RES1   0.0000
    24 C24     14.3858  22.8025  17.1208   C.3       1 RES1   0.0000
    25 C25     14.6254  23.9260  18.0635   C.3       1 RES1   0.0000
    26 S26     16.3034  26.1405  15.1831   S.o2      1 RES1   0.0000
    27 O27     17.2152  27.2371  15.2943   O.2       1 RES1   0.0000
    28 O28     15.2076  26.2446  16.1067   O.2       1 RES1   0.0000
    29 C29     15.6751  26.1110  13.6481   C.2       1 RES1   0.0000
    30 C30     16.4152  26.5725  12.5585   C.2       1 RES1   0.0000
    31 C31     15.8757  26.5358  11.2719   C.2       1 RES1   0.0000
    32 C32     14.5938  26.0455  11.0718   C.2       1 RES1   0.0000
    33 C33     13.8459  25.5707  12.1557   C.2       1 RES1   0.0000
    34 O34     12.5663  25.0693  12.0212   O.3       1 RES1   0.0000
    35 C35     11.8782  24.9827  10.7793   C.3       1 RES1   0.0000
    36 C36     14.3936  25.6127  13.4335   C.2       1 RES1   0.0000
@<TRIPOS>BOND
     1     1     2    1
     2     2     3   am
     3     3     4    2
     4     3     5    1
     5     5     6    1
     6     6     7    1
     7     7     8    2
     8     7     9   am
     9     9    10    1
    10    10    11    1
    11    11    12    1
    12    12    13    2
    13    13    14    1
    14    14    15    2
    15    15    16    1
    16    16    17    2
    17    10    18    1
    18    18    19    1
    19    18    20    1
    20    20    21    1
    21    21    22    1
    22    22    23    1
    23    23    24    1
    24    24    25    1
    25    21    26    1
    26    26    27    2
    27    26    28    2
    28    26    29    1
    29    29    30    2
    30    30    31    1
    31    31    32    2
    32    32    33    1
    33    33    34    1
    34    34    35    1
    35    33    36    2
    36    17    12    1
    37    25    23    1
    38    36    29    1
@<TRIPOS>SUBSTRUCTURE
     1 RES1        1 GROUP             0 ****  ****    0  
@<TRIPOS>MOLECULE
ligand_25
    36    38     1     0     0
SMALL
NO_CHARGES
****
Generated from the CSD

@<TRIPOS>ATOM
     1 C1      24.2742  24.9168   8.9116   C.3       1 RES1   0.0000
     2 N2      23.2050  25.7125   9.4922   N.am      1 RES1   0.0000
     3 C3      23.0300  25.8115  10.8115   C.2       1 RES1   0.0000
     4 O4      23.7643  25.2344  11.6236   O.2       1 RES1   0.0000
     5 C5      21.8839  26.6640  11.2942   C.3       1 RES1   0.0000
     6 C6      21.8664  26.6116  12.8027   C.3       1 RES1   0.0000
     7 C7      21.3836  25.2647  13.2505   C.2       1 RES1   0.0000
     8 O8      21.0800  24.4707  12.3790   O.2       1 RES1   0.0000
     9 N9      21.2655  24.9905  14.5562   N.am      1 RES1   0.0000
    10 C10     20.7607  23.7107  15.0792   C.3       1 RES1   0.0000
    11 C11     21.7813  23.1258  16.0581   C.3       1 RES1   0.0000
    12 C12     23.0440  22.7888  15.3039   C.2       1 RES1   0.0000
    13 C13     23.2100  21.5269  14.7340   C.2       1 RES1   0.0000
    14 C14     24.3715  21.2005  14.0550   C.2       1 RES1   0.0000
    15 C15     25.3833  22.1425  13.9379   C.2       1 RES1   0.0000
    16 C16     25.2261  23.3814  14.5171   C.2       1 RES1   0.0000
    17 C17     24.0620  23.7193  15.1834   C.2       1 RES1   0.0000
    18 C18     19.3733  23.9172  15.7172   C.3       1 RES1   0.0000
    19 O19     18.9124  22.6821  16.2627   O.3       1 RES1   0.0000
    20 C20     18.3037  24.4933  14.7568   C.3       1 RES1   0.0000
    21 N21     17.1065  24.7817  15.5815   N.3       1 RES1   0.0000
    22 C22     16.2286  23.6042  15.7595   C.3       1 RES1   0.0000
    23 C23     15.8705  23.4981  17.2446   C.3       1 RES1   0.0000
    24 C24     14.3858  22.8025  17.1208   C.3       1 RES1   0.0000
    25 C25     14.6254  23.9260  18.0635   C.3       1 RES1   0.0000
    26 S26     16.3034  26.1405  15.1831   S.o2      1 RES1   0.0000
    27 O27     17.2152  27.2371  15.2943   O.2       1 RES1   0.0000
    28 O28     15.2076  26.2446  16.1067   O.2       1 RES1   0.0000
    29 C29     15.6751  26.1110  13.6481   C.2       1 RES1   0.0000
    30 C30     14.3898  25.6239  13.4058   C.2       1 RES1   0.0000
    31 C31     13.8721  25.6109  12.1098   C.2       1 RES1   0.0000
    32 C32     14.6393  26.0771  11.0525   C.2       1 RES1   0.0000
    33 C33     15.9260  26.5772  11.2849   C.2       1 RES1   0.0000
    34 O34     16.7374  27.0566  10.2756   O.3       1 RES1   0.0000
    35 C35     16.3564  27.0930   8.9056   C.3       1 RES1   0.0000
    36 C36     16.4317  26.5847  12.5805   C.2       1 RES1   0.0000
@<TRIPOS>BOND
     1     1     2    1
     2     2     3   am
     3     3     4    2
     4     3     5    1
     5     5     6    1
     6     6     7    1
     7     7     8    2
     8     7     9   am
     9     9    10    1
    10    10    11    1
    11    11    12    1
    12    12    13    2
    13    13    14    1
    14    14    15    2
    15    15    16    1
    16    16    17    2
    17    10    18    1
    18    18    19    1
    19    18    20    1
    20    20    21    1
    21    21    22    1
    22    22    23    1
    23    23    24    1
    24    24    25    1
    25    21    26    1
    26    26    27    2
    27    26    28    2
    28    26    29    1
    29    29    30    2
    30    30    31    1
    31    31    32    2
    32    32    33    1
    33    33    34    1
    34    34    35    1
    35    33    36    2
    36    17    12    1
    37    25    23    1
    38    36    29    1
@<TRIPOS>SUBSTRUCTURE
     1 RES1        1 GROUP             0 ****  ****    0  
@<TRIPOS>MOLECULE
ligand_26
    36    38     1     0     0
SMALL
NO_CHARGES
****
Generated from the CSD

@<TRIPOS>ATOM
     1 C1      24.1169  24.8030   8.8675   C.3       1 RES1   0.0000
     2 N2      23.1082  25.6606   9.4679   N.am      1 RES1   0.0000
     3 C3      22.9489  25.7510  10.7898   C.2       1 RES1   0.0000
     4 O4      23.6473  25.1127  11.5877   O.2       1 RES1   0.0000
     5 C5      21.8667  26.6720  11.2938   C.3       1 RES1   0.0000
     6 C6      21.8680  26.6120  12.8021   C.3       1 RES1   0.0000
     7 C7      20.8013  27.5182  13.3393   C.2       1 RES1   0.0000
     8 O8      19.6883  27.0423  13.4693   O.2       1 RES1   0.0000
     9 N9      21.0811  28.7981  13.6176   N.am      1 RES1   0.0000
    10 C10     20.0841  29.7638  14.1075   C.3       1 RES1   0.0000
    11 C11     20.5907  30.4011  15.4033   C.3       1 RES1   0.0000
    12 C12     20.6843  29.3356  16.4676   C.2       1 RES1   0.0000
    13 C13     19.5946  29.0672  17.2953   C.2       1 RES1   0.0000
    14 C14     19.6747  28.1043  18.2868   C.2       1 RES1   0.0000
    15 C15     20.8546  27.3948  18.4577   C.2       1 RES1   0.0000
    16 C16     21.9357  27.6736  17.6525   C.2       1 RES1   0.0000
    17 C17     21.8575  28.6235  16.6500   C.2       1 RES1   0.0000
    18 C18     19.7801  30.8032  13.0112   C.3       1 RES1   0.0000
    19 O19     18.8491  31.7620  13.5105   O.3       1 RES1   0.0000
    20 C20     19.2487  30.2029  11.6862   C.3       1 RES1   0.0000
    21 N21     19.1829  31.3188  10.7130   N.3       1 RES1   0.0000
    22 C22     17.9237  32.0903  10.8009   C.3       1 RES1   0.0000
    23 C23     18.2785  33.5798  10.8174   C.3       1 RES1   0.0000
    24 C24     16.9346  34.1911  10.0936   C.3       1 RES1   0.0000
    25 C25     18.2891  34.6748   9.7197   C.3       1 RES1   0.0000
    26 S26     19.6076  30.9334   9.1894   S.o2      1 RES1   0.0000
    27 O27     20.9454  30.4279   9.2218   O.2       1 RES1   0.0000
    28 O28     19.4990  32.1445   8.4239   O.2       1 RES1   0.0000
    29 C29     18.6161  29.8000   8.4935   C.2       1 RES1   0.0000
    30 C30     18.8902  28.4363   8.6084   C.2       1 RES1   0.0000
    31 C31     18.0435  27.4941   8.0227   C.2       1 RES1   0.0000
    32 C32     16.9262  27.9116   7.3149   C.2       1 RES1   0.0000
    33 C33     16.6358  29.2764   7.2015   C.2       1 RES1   0.0000
    34 O34     15.5389  29.7546   6.5124   O.3       1 RES1   0.0000
    35 C35     14.5962  28.9198   5.8506   C.3       1 RES1   0.0000
    36 C36     17.4870  30.2064   7.7889   C.2       1 RES1   0.0000
@<TRIPOS>BOND
     1     1     2    1
     2     2     3   am
     3     3     4    2
     4     3     5    1
     5     5     6    1
     6     6     7    1
     7     7     8    2
     8     7     9   am
     9     9    10    1
    10    10    11    1
    11    11    12    1
    12    12    13    2
    13    13    14    1
    14    14    15    2
    15    15    16    1
    16    16    17    2
    17    10    18    1
    18    18    19    1
    19    18    20    1
    20    20    21    1
    21    21    22    1
    22    22    23    1
    23    23    24    1
    24    24    25    1
    25    21    26    1
    26    26    27    2
    27    26    28    2
    28    26    29    1
    29    29    30    2
    30    30    31    1
    31    31    32    2
    32    32    33    1
    33    33    34    1
    34    34    35    1
    35    33    36    2
    36    17    12    1
    37    25    23    1
    38    36    29    1
@<TRIPOS>SUBSTRUCTURE
     1 RES1        1 GROUP             0 ****  ****    0  
@<TRIPOS>MOLECULE
ligand_27
    36    38     1     0     0
SMALL
NO_CHARGES
****
Generated from the CSD

@<TRIPOS>ATOM
     1 C1      24.1126  24.8007   8.8665   C.3       1 RES1   0.0000
     2 N2      23.1045  25.6587   9.4672   N.am      1 RES1   0.0000
     3 C3      22.9458  25.7494  10.7891   C.2       1 RES1   0.0000
     4 O4      23.6444  25.1109  11.5868   O.2       1 RES1   0.0000
     5 C5      21.8643  26.6709  11.2934   C.3       1 RES1   0.0000
     6 C6      21.8661  26.6111  12.8018   C.3       1 RES1   0.0000
     7 C7      20.8000  27.5178  13.3393   C.2       1 RES1   0.0000
     8 O8      19.6869  27.0423  13.4699   O.2       1 RES1   0.0000
     9 N9      21.0805  28.7976  13.6173   N.am      1 RES1   0.0000
    10 C10     20.0841  29.7638  14.1075   C.3       1 RES1   0.0000
    11 C11     20.5914  30.4010  15.4030   C.3       1 RES1   0.0000
    12 C12     20.6845  29.3357  16.4676   C.2       1 RES1   0.0000
    13 C13     19.5948  29.0684  17.2956   C.2       1 RES1   0.0000
    14 C14     19.6745  28.1056  18.2873   C.2       1 RES1   0.0000
    15 C15     20.8539  27.3953  18.4581   C.2       1 RES1   0.0000
    16 C16     21.9351  27.6731  17.6526   C.2       1 RES1   0.0000
    17 C17     21.8573  28.6228  16.6498   C.2       1 RES1   0.0000
    18 C18     19.7801  30.8032  13.0112   C.3       1 RES1   0.0000
    19 O19     18.8491  31.7620  13.5105   O.3       1 RES1   0.0000
    20 C20     19.2487  30.2029  11.6862   C.3       1 RES1   0.0000
    21 N21     19.1824  31.3189  10.7132   N.3       1 RES1   0.0000
    22 C22     17.9227  32.0897  10.8011   C.3       1 RES1   0.0000
    23 C23     18.2767  33.5794  10.8174   C.3       1 RES1   0.0000
    24 C24     16.9326  34.1898  10.0932   C.3       1 RES1   0.0000
    25 C25     18.2869  34.6742   9.7195   C.3       1 RES1   0.0000
    26 S26     19.6074  30.9340   9.1896   S.o2      1 RES1   0.0000
    27 O27     20.9454  30.4293   9.2219   O.2       1 RES1   0.0000
    28 O28     19.4980  32.1452   8.4242   O.2       1 RES1   0.0000
    29 C29     18.6166  29.8001   8.4935   C.2       1 RES1   0.0000
    30 C30     17.4820  30.1798   7.7747   C.2       1 RES1   0.0000
    31 C31     16.6611  29.2148   7.1894   C.2       1 RES1   0.0000
    32 C32     16.9671  27.8689   7.3269   C.2       1 RES1   0.0000
    33 C33     18.1080  27.4767   8.0371   C.2       1 RES1   0.0000
    34 O34     18.4669  26.1543   8.2075   O.3       1 RES1   0.0000
    35 C35     17.7232  25.0600   7.6850   C.3       1 RES1   0.0000
    36 C36     18.9184  28.4472   8.6166   C.2       1 RES1   0.0000
@<TRIPOS>BOND
     1     1     2    1
     2     2     3   am
     3     3     4    2
     4     3     5    1
     5     5     6    1
     6     6     7    1
     7     7     8    2
     8     7     9   am
     9     9    10    1
    10    10    11    1
    11    11    12    1
    12    12    13    2
    13    13    14    1
    14    14    15    2
    15    15    16    1
    16    16    17    2
    17    10    18    1
    18    18    19    1
    19    18    20    1
    20    20    21    1
    21    21    22    1
    22    22    23    1
    23    23    24    1
    24    24    25    1
    25    21    26    1
    26    26    27    2
    27    26    28    2
    28    26    29    1
    29    29    30    2
    30    30    31    1
    31    31    32    2
    32    32    33    1
    33    33    34    1
    34    34    35    1
    35    33    36    2
    36    17    12    1
    37    25    23    1
    38    36    29    1
@<TRIPOS>SUBSTRUCTURE
     1 RES1        1 GROUP             0 ****  ****    0  
@<TRIPOS>MOLECULE
ligand_28
    36    38     1     0     0
SMALL
NO_CHARGES
****
Generated from the CSD

@<TRIPOS>ATOM
     1 C1      24.0782  24.8112   8.8366   C.3       1 RES1   0.0000
     2 N2      23.0704  25.6647   9.4442   N.am      1 RES1   0.0000
     3 C3      22.9233  25.7582  10.7673   C.2       1 RES1   0.0000
     4 O4      23.6331  25.1264  11.5603   O.2       1 RES1   0.0000
     5 C5      21.8408  26.6744  11.2790   C.3       1 RES1   0.0000
     6 C6      21.8569  26.6190  12.7875   C.3       1 RES1   0.0000
     7 C7      20.7913  27.5219  13.3323   C.2       1 RES1   0.0000
     8 O8      20.1168  28.1298  12.5213   O.2       1 RES1   0.0000
     9 N9      20.6380  27.6622  14.6554   N.am      1 RES1   0.0000
    10 C10     19.6460  28.5580  15.2718   C.3       1 RES1   0.0000
    11 C11     18.7794  27.7588  16.2476   C.3       1 RES1   0.0000
    12 C12     17.9878  26.7348  15.4719   C.2       1 RES1   0.0000
    13 C13     16.7262  27.0512  14.9689   C.2       1 RES1   0.0000
    14 C14     15.9834  26.1144  14.2711   C.2       1 RES1   0.0000
    15 C15     16.5021  24.8438  14.0673   C.2       1 RES1   0.0000
    16 C16     17.7394  24.5267  14.5805   C.2       1 RES1   0.0000
    17 C17     18.4934  25.4626  15.2652   C.2       1 RES1   0.0000
    18 C18     20.3608  29.7457  15.9448   C.3       1 RES1   0.0000
    19 O19     19.4658  30.3868  16.8522   O.3       1 RES1   0.0000
    20 C20     20.9386  30.7906  14.9584   C.3       1 RES1   0.0000
    21 N21     21.9740  31.5466  15.7020   N.3       1 RES1   0.0000
    22 C22     21.8684  33.0104  15.5148   C.3       1 RES1   0.0000
    23 C23     22.0017  33.6763  16.8872   C.3       1 RES1   0.0000
    24 C24     22.6834  35.1029  16.4360   C.3       1 RES1   0.0000
    25 C25     23.1864  34.3579  17.6193   C.3       1 RES1   0.0000
    26 S26     23.4909  30.9763  15.5478   S.o2      1 RES1   0.0000
    27 O27     23.4956  29.6170  15.9933   O.2       1 RES1   0.0000
    28 O28     24.3219  31.8211  16.3604   O.2       1 RES1   0.0000
    29 C29     24.0659  31.0395  13.9930   C.2       1 RES1   0.0000
    30 C30     24.7460  32.1638  13.5224   C.2       1 RES1   0.0000
    31 C31     25.2294  32.2003  12.2137   C.2       1 RES1   0.0000
    32 C32     25.0283  31.1177  11.3703   C.2       1 RES1   0.0000
    33 C33     24.3564  29.9806  11.8345   C.2       1 RES1   0.0000
    34 O34     24.1266  28.8713  11.0449   O.3       1 RES1   0.0000
    35 C35     24.5439  28.7664   9.6890   C.3       1 RES1   0.0000
    36 C36     23.8785  29.9558  13.1404   C.2       1 RES1   0.0000
@<TRIPOS>BOND
     1     1     2    1
     2     2     3   am
     3     3     4    2
     4     3     5    1
     5     5     6    1
     6     6     7    1
     7     7     8    2
     8     7     9   am
     9     9    10    1
    10    10    11    1
    11    11    12    1
    12    12    13    2
    13    13    14    1
    14    14    15    2
    15    15    16    1
    16    16    17    2
    17    10    18    1
    18    18    19    1
    19    18    20    1
    20    20    21    1
    21    21    22    1
    22    22    23    1
    23    23    24    1
    24    24    25    1
    25    21    26    1
    26    26    27    2
    27    26    28    2
    28    26    29    1
    29    29    30    2
    30    30    31    1
    31    31    32    2
    32    32    33    1
    33    33    34    1
    34    34    35    1
    35    33    36    2
    36    17    12    1
    37    25    23    1
    38    36    29    1
@<TRIPOS>SUBSTRUCTURE
     1 RES1        1 GROUP             0 ****  ****    0  
@<TRIPOS>MOLECULE
ligand_29
    36    38     1     0     0
SMALL
NO_CHARGES
****
Generated from the CSD

@<TRIPOS>ATOM
     1 C1      24.1113  24.8002   8.8660   C.3       1 RES1   0.0000
     2 N2      23.1033  25.6583   9.4670   N.am      1 RES1   0.0000
     3 C3      22.9452  25.7492  10.7890   C.2       1 RES1   0.0000
     4 O4      23.6441  25.1109  11.5865   O.2       1 RES1   0.0000
     5 C5      21.8638  26.6706  11.2937   C.3       1 RES1   0.0000
     6 C6      21.8662  26.6111  12.8020   C.3       1 RES1   0.0000
     7 C7      20.8003  27.5178  13.3398   C.2       1 RES1   0.0000
     8 O8      20.1339  28.1286  12.5244   O.2       1 RES1   0.0000
     9 N9      20.6384  27.6582  14.6619   N.am      1 RES1   0.0000
    10 C10     19.6460  28.5580  15.2718   C.3       1 RES1   0.0000
    11 C11     18.7733  27.7633  16.2459   C.3       1 RES1   0.0000
    12 C12     17.9767  26.7446  15.4686   C.2       1 RES1   0.0000
    13 C13     16.7178  27.0687  14.9640   C.2       1 RES1   0.0000
    14 C14     15.9703  26.1367  14.2646   C.2       1 RES1   0.0000
    15 C15     16.4818  24.8632  14.0608   C.2       1 RES1   0.0000
    16 C16     17.7165  24.5385  14.5755   C.2       1 RES1   0.0000
    17 C17     18.4751  25.4695  15.2618   C.2       1 RES1   0.0000
    18 C18     20.3608  29.7457  15.9448   C.3       1 RES1   0.0000
    19 O19     19.4055  30.7559  16.2648   O.3       1 RES1   0.0000
    20 C20     21.5094  30.3620  15.1085   C.3       1 RES1   0.0000
    21 N21     21.9107  31.6114  15.7974   N.3       1 RES1   0.0000
    22 C22     22.0936  32.7503  14.8711   C.3       1 RES1   0.0000
    23 C23     21.3948  33.9717  15.4751   C.3       1 RES1   0.0000
    24 C24     22.3453  35.1645  14.8611   C.3       1 RES1   0.0000
    25 C25     21.9102  35.1914  16.2818   C.3       1 RES1   0.0000
    26 S26     23.1173  31.4482  16.8779   S.o2      1 RES1   0.0000
    27 O27     22.7015  30.4935  17.8586   O.2       1 RES1   0.0000
    28 O28     23.3313  32.7528  17.4409   O.2       1 RES1   0.0000
    29 C29     24.5461  30.9443  16.2021   C.2       1 RES1   0.0000
    30 C30     25.4820  31.8647  15.7279   C.2       1 RES1   0.0000
    31 C31     26.6824  31.4261  15.1673   C.2       1 RES1   0.0000
    32 C32     26.9474  30.0679  15.0721   C.2       1 RES1   0.0000
    33 C33     26.0205  29.1358  15.5535   C.2       1 RES1   0.0000
    34 O34     26.2266  27.7719  15.4892   O.3       1 RES1   0.0000
    35 C35     27.3913  27.1743  14.9325   C.3       1 RES1   0.0000
    36 C36     24.8272  29.5845  16.1097   C.2       1 RES1   0.0000
@<TRIPOS>BOND
     1     1     2    1
     2     2     3   am
     3     3     4    2
     4     3     5    1
     5     5     6    1
     6     6     7    1
     7     7     8    2
     8     7     9   am
     9     9    10    1
    10    10    11    1
    11    11    12    1
    12    12    13    2
    13    13    14    1
    14    14    15    2
    15    15    16    1
    16    16    17    2
    17    10    18    1
    18    18    19    1
    19    18    20    1
    20    20    21    1
    21    21    22    1
    22    22    23    1
    23    23    24    1
    24    24    25    1
    25    21    26    1
    26    26    27    2
    27    26    28    2
    28    26    29    1
    29    29    30    2
    30    30    31    1
    31    31    32    2
    32    32    33    1
    33    33    34    1
    34    34    35    1
    35    33    36    2
    36    17    12    1
    37    25    23    1
    38    36    29    1
@<TRIPOS>SUBSTRUCTURE
     1 RES1        1 GROUP             0 ****  ****    0  
@<TRIPOS>MOLECULE
ligand_30
    36    38     1     0     0
SMALL
NO_CHARGES
****
Generated from the CSD

@<TRIPOS>ATOM
     1 C1      24.1113  24.8003   8.8661   C.3       1 RES1   0.0000
     2 N2      23.1034  25.6584   9.4670   N.am      1 RES1   0.0000
     3 C3      22.9452  25.7492  10.7890   C.2       1 RES1   0.0000
     4 O4      23.6441  25.1108  11.5865   O.2       1 RES1   0.0000
     5 C5      21.8639  26.6707  11.2937   C.3       1 RES1   0.0000
     6 C6      21.8663  26.6111  12.8020   C.3       1 RES1   0.0000
     7 C7      20.8004  27.5179  13.3398   C.2       1 RES1   0.0000
     8 O8      20.1340  28.1288  12.5244   O.2       1 RES1   0.0000
     9 N9      20.6384  27.6582  14.6619   N.am      1 RES1   0.0000
    10 C10     19.6460  28.5580  15.2718   C.3       1 RES1   0.0000
    11 C11     18.7733  27.7633  16.2459   C.3       1 RES1   0.0000
    12 C12     17.9767  26.7446  15.4686   C.2       1 RES1   0.0000
    13 C13     16.7178  27.0687  14.9640   C.2       1 RES1   0.0000
    14 C14     15.9703  26.1367  14.2646   C.2       1 RES1   0.0000
    15 C15     16.4818  24.8632  14.0608   C.2       1 RES1   0.0000
    16 C16     17.7165  24.5385  14.5755   C.2       1 RES1   0.0000
    17 C17     18.4751  25.4695  15.2618   C.2       1 RES1   0.0000
    18 C18     20.3608  29.7457  15.9448   C.3       1 RES1   0.0000
    19 O19     21.2544  30.3526  15.0128   O.3       1 RES1   0.0000
    20 C20     21.1276  29.3837  17.2407   C.3       1 RES1   0.0000
    21 N21     21.6303  30.6588  17.8046   N.3       1 RES1   0.0000
    22 C22     23.0483  30.5888  18.2207   C.3       1 RES1   0.0000
    23 C23     23.7592  31.8412  17.7001   C.3       1 RES1   0.0000
    24 C24     24.9080  32.0097  18.8643   C.3       1 RES1   0.0000
    25 C25     24.1502  33.1864  18.3647   C.3       1 RES1   0.0000
    26 S26     20.6593  31.3567  18.9093   S.o2      1 RES1   0.0000
    27 O27     19.3927  31.5976  18.2899   O.2       1 RES1   0.0000
    28 O28     21.3134  32.5725  19.3077   O.2       1 RES1   0.0000
    29 C29     20.4318  30.4319  20.2676   C.2       1 RES1   0.0000
    30 C30     19.3822  29.5153  20.3467   C.2       1 RES1   0.0000
    31 C31     19.2068  28.7397  21.4936   C.2       1 RES1   0.0000
    32 C32     20.0742  28.8831  22.5664   C.2       1 RES1   0.0000
    33 C33     21.1365  29.7920  22.4945   C.2       1 RES1   0.0000
    34 O34     22.0340  29.9791  23.5271   O.3       1 RES1   0.0000
    35 C35     21.9756  29.2753  24.7619   C.3       1 RES1   0.0000
    36 C36     21.3011  30.5600  21.3467   C.2       1 RES1   0.0000
@<TRIPOS>BOND
     1     1     2    1
     2     2     3   am
     3     3     4    2
     4     3     5    1
     5     5     6    1
     6     6     7    1
     7     7     8    2
     8     7     9   am
     9     9    10    1
    10    10    11    1
    11    11    12    1
    12    12    13    2
    13    13    14    1
    14    14    15    2
    15    15    16    1
    16    16    17    2
    17    10    18    1
    18    18    19    1
    19    18    20    1
    20    20    21    1
    21    21    22    1
    22    22    23    1
    23    23    24    1
    24    24    25    1
    25    21    26    1
    26    26    27    2
    27    26    28    2
    28    26    29    1
    29    29    30    2
    30    30    31    1
    31    31    32    2
    32    32    33    1
    33    33    34    1
    34    34    35    1
    35    33    36    2
    36    17    12    1
    37    25    23    1
    38    36    29    1
@<TRIPOS>SUBSTRUCTURE
     1 RES1        1 GROUP             0 ****  ****    0  
@<TRIPOS>MOLECULE
ligand_31
    36    38     1     0     0
SMALL
NO_CHARGES
****
Generated from the CSD

@<TRIPOS>ATOM
     1 C1      24.1113  24.8003   8.8661   C.3       1 RES1   0.0000
     2 N2      23.1034  25.6584   9.4670   N.am      1 RES1   0.0000
     3 C3      22.9452  25.7492  10.7890   C.2       1 RES1   0.0000
     4 O4      23.6441  25.1108  11.5865   O.2       1 RES1   0.0000
     5 C5      21.8639  26.6707  11.2937   C.3       1 RES1   0.0000
     6 C6      21.8663  26.6111  12.8020   C.3       1 RES1   0.0000
     7 C7      20.8004  27.5179  13.3398   C.2       1 RES1   0.0000
     8 O8      20.1340  28.1288  12.5244   O.2       1 RES1   0.0000
     9 N9      20.6384  27.6582  14.6619   N.am      1 RES1   0.0000
    10 C10     19.6460  28.5580  15.2718   C.3       1 RES1   0.0000
    11 C11     18.7733  27.7633  16.2459   C.3       1 RES1   0.0000
    12 C12     17.9767  26.7446  15.4686   C.2       1 RES1   0.0000
    13 C13     16.7178  27.0687  14.9640   C.2       1 RES1   0.0000
    14 C14     15.9703  26.1367  14.2646   C.2       1 RES1   0.0000
    15 C15     16.4818  24.8632  14.0608   C.2       1 RES1   0.0000
    16 C16     17.7165  24.5385  14.5755   C.2       1 RES1   0.0000
    17 C17     18.4751  25.4695  15.2618   C.2       1 RES1   0.0000
    18 C18     20.3608  29.7457  15.9448   C.3       1 RES1   0.0000
    19 O19     21.2544  30.3526  15.0128   O.3       1 RES1   0.0000
    20 C20     21.1276  29.3837  17.2407   C.3       1 RES1   0.0000
    21 N21     21.6303  30.6588  17.8046   N.3       1 RES1   0.0000
    22 C22     23.0483  30.5888  18.2207   C.3       1 RES1   0.0000
    23 C23     23.7592  31.8412  17.7001   C.3       1 RES1   0.0000
    24 C24     24.9080  32.0097  18.8643   C.3       1 RES1   0.0000
    25 C25     24.1502  33.1864  18.3647   C.3       1 RES1   0.0000
    26 S26     20.6593  31.3567  18.9093   S.o2      1 RES1   0.0000
    27 O27     19.3927  31.5976  18.2899   O.2       1 RES1   0.0000
    28 O28     21.3134  32.5725  19.3077   O.2       1 RES1   0.0000
    29 C29     20.4318  30.4319  20.2676   C.2       1 RES1   0.0000
    30 C30     21.2840  30.5460  21.3671   C.2       1 RES1   0.0000
    31 C31     21.0765  29.7657  22.5054   C.2       1 RES1   0.0000
    32 C32     20.0226  28.8648  22.5453   C.2       1 RES1   0.0000
    33 C33     19.1555  28.7489  21.4524   C.2       1 RES1   0.0000
    34 O34     18.0884  27.8727  21.4319   O.3       1 RES1   0.0000
    35 C35     17.7596  27.0028  22.5083   C.3       1 RES1   0.0000
    36 C36     19.3724  29.5313  20.3231   C.2       1 RES1   0.0000
@<TRIPOS>BOND
     1     1     2    1
     2     2     3   am
     3     3     4    2
     4     3     5    1
     5     5     6    1
     6     6     7    1
     7     7     8    2
     8     7     9   am
     9     9    10    1
    10    10    11    1
    11    11    12    1
    12    12    13    2
    13    13    14    1
    14    14    15    2
    15    15    16    1
    16    16    17    2
    17    10    18    1
    18    18    19    1
    19    18    20    1
    20    20    21    1
    21    21    22    1
    22    22    23    1
    23    23    24    1
    24    24    25    1
    25    21    26    1
    26    26    27    2
    27    26    28    2
    28    26    29    1
    29    29    30    2
    30    30    31    1
    31    31    32    2
    32    32    33    1
    33    33    34    1
    34    34    35    1
    35    33    36    2
    36    17    12    1
    37    25    23    1
    38    36    29    1
@<TRIPOS>SUBSTRUCTURE
     1 RES1        1 GROUP             0 ****  ****    0  
@<TRIPOS>MOLECULE
ligand_32
    36    38     1     0     0
SMALL
NO_CHARGES
****
Generated from the CSD

@<TRIPOS>ATOM
     1 C1      24.1115  24.8005   8.8661   C.3       1 RES1   0.0000
     2 N2      23.1037  25.6587   9.4671   N.am      1 RES1   0.0000
     3 C3      22.9454  25.7493  10.7891   C.2       1 RES1   0.0000
     4 O4      23.6440  25.1108  11.5865   O.2       1 RES1   0.0000
     5 C5      21.8641  26.6709  11.2937   C.3       1 RES1   0.0000
     6 C6      21.8663  26.6112  12.8020   C.3       1 RES1   0.0000
     7 C7      20.8005  27.5180  13.3398   C.2       1 RES1   0.0000
     8 O8      20.1342  28.1290  12.5244   O.2       1 RES1   0.0000
     9 N9      20.6384  27.6582  14.6619   N.am      1 RES1   0.0000
    10 C10     19.6460  28.5580  15.2718   C.3       1 RES1   0.0000
    11 C11     18.7733  27.7633  16.2459   C.3       1 RES1   0.0000
    12 C12     17.9767  26.7446  15.4686   C.2       1 RES1   0.0000
    13 C13     16.7178  27.0687  14.9640   C.2       1 RES1   0.0000
    14 C14     15.9703  26.1367  14.2646   C.2       1 RES1   0.0000
    15 C15     16.4818  24.8632  14.0608   C.2       1 RES1   0.0000
    16 C16     17.7165  24.5385  14.5755   C.2       1 RES1   0.0000
    17 C17     18.4751  25.4695  15.2618   C.2       1 RES1   0.0000
    18 C18     20.3608  29.7457  15.9448   C.3       1 RES1   0.0000
    19 O19     21.2544  30.3526  15.0128   O.3       1 RES1   0.0000
    20 C20     21.1276  29.3837  17.2407   C.3       1 RES1   0.0000
    21 N21     21.5938  30.6625  17.8272   N.3       1 RES1   0.0000
    22 C22     22.8814  31.1230  17.2627   C.3       1 RES1   0.0000
    23 C23     22.7411  32.6053  16.9051   C.3       1 RES1   0.0000
    24 C24     24.2963  33.0906  17.1269   C.3       1 RES1   0.0000
    25 C25     23.1628  33.9104  17.6284   C.3       1 RES1   0.0000
    26 S26     21.5270  30.7431  19.4518   S.o2      1 RES1   0.0000
    27 O27     20.1698  30.5223  19.8461   O.2       1 RES1   0.0000
    28 O28     21.9936  32.0545  19.8081   O.2       1 RES1   0.0000
    29 C29     22.4994  29.6329  20.2092   C.2       1 RES1   0.0000
    30 C30     22.0211  28.3641  20.5399   C.2       1 RES1   0.0000
    31 C31     22.8527  27.4383  21.1716   C.2       1 RES1   0.0000
    32 C32     24.1609  27.7801  21.4811   C.2       1 RES1   0.0000
    33 C33     24.6546  29.0463  21.1452   C.2       1 RES1   0.0000
    34 O34     25.9467  29.4452  21.4248   O.3       1 RES1   0.0000
    35 C35     26.9046  28.6206  22.0773   C.3       1 RES1   0.0000
    36 C36     23.8165  29.9609  20.5164   C.2       1 RES1   0.0000
@<TRIPOS>BOND
     1     1     2    1
     2     2     3   am
     3     3     4    2
     4     3     5    1
     5     5     6    1
     6     6     7    1
     7     7     8    2
     8     7     9   am
     9     9    10    1
    10    10    11    1
    11    11    12    1
    12    12    13    2
    13    13    14    1
    14    14    15    2
    15    15    16    1
    16    16    17    2
    17    10    18    1
    18    18    19    1
    19    18    20    1
    20    20    21    1
    21    21    22    1
    22    22    23    1
    23    23    24    1
    24    24    25    1
    25    21    26    1
    26    26    27    2
    27    26    28    2
    28    26    29    1
    29    29    30    2
    30    30    31    1
    31    31    32    2
    32    32    33    1
    33    33    34    1
    34    34    35    1
    35    33    36    2
    36    17    12    1
    37    25    23    1
    38    36    29    1
@<TRIPOS>SUBSTRUCTURE
     1 RES1        1 GROUP             0 ****  ****    0  
@<TRIPOS>MOLECULE
ligand_33
    36    38     1     0     0
SMALL
NO_CHARGES
****
Generated from the CSD

@<TRIPOS>ATOM
     1 C1      24.1115  24.8005   8.8661   C.3       1 RES1   0.0000
     2 N2      23.1037  25.6587   9.4671   N.am      1 RES1   0.0000
     3 C3      22.9454  25.7493  10.7891   C.2       1 RES1   0.0000
     4 O4      23.6440  25.1108  11.5865   O.2       1 RES1   0.0000
     5 C5      21.8641  26.6709  11.2937   C.3       1 RES1   0.0000
     6 C6      21.8663  26.6112  12.8020   C.3       1 RES1   0.0000
     7 C7      20.8005  27.5180  13.3398   C.2       1 RES1   0.0000
     8 O8      20.1342  28.1290  12.5244   O.2       1 RES1   0.0000
     9 N9      20.6384  27.6582  14.6619   N.am      1 RES1   0.0000
    10 C10     19.6460  28.5580  15.2718   C.3       1 RES1   0.0000
    11 C11     18.7733  27.7633  16.2459   C.3       1 RES1   0.0000
    12 C12     17.9767  26.7446  15.4686   C.2       1 RES1   0.0000
    13 C13     16.7178  27.0687  14.9640   C.2       1 RES1   0.0000
    14 C14     15.9703  26.1367  14.2646   C.2       1 RES1   0.0000
    15 C15     16.4818  24.8632  14.0608   C.2       1 RES1   0.0000
    16 C16     17.7165  24.5385  14.5755   C.2       1 RES1   0.0000
    17 C17     18.4751  25.4695  15.2618   C.2       1 RES1   0.0000
    18 C18     20.3608  29.7457  15.9448   C.3       1 RES1   0.0000
    19 O19     21.2544  30.3526  15.0128   O.3       1 RES1   0.0000
    20 C20     21.1276  29.3837  17.2407   C.3       1 RES1   0.0000
    21 N21     21.5938  30.6625  17.8272   N.3       1 RES1   0.0000
    22 C22     22.8814  31.1230  17.2627   C.3       1 RES1   0.0000
    23 C23     22.7411  32.6053  16.9051   C.3       1 RES1   0.0000
    24 C24     24.2963  33.0906  17.1269   C.3       1 RES1   0.0000
    25 C25     23.1628  33.9104  17.6284   C.3       1 RES1   0.0000
    26 S26     21.5270  30.7431  19.4518   S.o2      1 RES1   0.0000
    27 O27     20.1698  30.5223  19.8461   O.2       1 RES1   0.0000
    28 O28     21.9936  32.0545  19.8081   O.2       1 RES1   0.0000
    29 C29     22.4994  29.6329  20.2092   C.2       1 RES1   0.0000
    30 C30     23.8216  29.9385  20.5358   C.2       1 RES1   0.0000
    31 C31     24.6260  28.9964  21.1785   C.2       1 RES1   0.0000
    32 C32     24.1145  27.7452  21.4895   C.2       1 RES1   0.0000
    33 C33     22.7868  27.4311  21.1758   C.2       1 RES1   0.0000
    34 O34     22.2194  26.2048  21.4607   O.3       1 RES1   0.0000
    35 C35     22.9162  25.1404  22.0970   C.3       1 RES1   0.0000
    36 C36     21.9947  28.3776  20.5347   C.2       1 RES1   0.0000
@<TRIPOS>BOND
     1     1     2    1
     2     2     3   am
     3     3     4    2
     4     3     5    1
     5     5     6    1
     6     6     7    1
     7     7     8    2
     8     7     9   am
     9     9    10    1
    10    10    11    1
    11    11    12    1
    12    12    13    2
    13    13    14    1
    14    14    15    2
    15    15    16    1
    16    16    17    2
    17    10    18    1
    18    18    19    1
    19    18    20    1
    20    20    21    1
    21    21    22    1
    22    22    23    1
    23    23    24    1
    24    24    25    1
    25    21    26    1
    26    26    27    2
    27    26    28    2
    28    26    29    1
    29    29    30    2
    30    30    31    1
    31    31    32    2
    32    32    33    1
    33    33    34    1
    34    34    35    1
    35    33    36    2
    36    17    12    1
    37    25    23    1
    38    36    29    1
@<TRIPOS>SUBSTRUCTURE
     1 RES1        1 GROUP             0 ****  ****    0  
@<TRIPOS>MOLECULE
ligand_34
    36    38     1     0     0
SMALL
NO_CHARGES
****
Generated from the CSD

@<TRIPOS>ATOM
     1 C1      24.1117  24.8005   8.8662   C.3       1 RES1   0.0000
     2 N2      23.1039  25.6588   9.4672   N.am      1 RES1   0.0000
     3 C3      22.9455  25.7494  10.7891   C.2       1 RES1   0.0000
     4 O4      23.6440  25.1107  11.5866   O.2       1 RES1   0.0000
     5 C5      21.8642  26.6710  11.2937   C.3       1 RES1   0.0000
     6 C6      21.8664  26.6112  12.8021   C.3       1 RES1   0.0000
     7 C7      20.8006  27.5181  13.3398   C.2       1 RES1   0.0000
     8 O8      20.1345  28.1292  12.5244   O.2       1 RES1   0.0000
     9 N9      20.6384  27.6582  14.6619   N.am      1 RES1   0.0000
    10 C10     19.6460  28.5580  15.2718   C.3       1 RES1   0.0000
    11 C11     18.7733  27.7634  16.2459   C.3       1 RES1   0.0000
    12 C12     17.9766  26.7447  15.4685   C.2       1 RES1   0.0000
    13 C13     16.7177  27.0689  14.9641   C.2       1 RES1   0.0000
    14 C14     15.9702  26.1370  14.2646   C.2       1 RES1   0.0000
    15 C15     16.4815  24.8635  14.0607   C.2       1 RES1   0.0000
    16 C16     17.7162  24.5386  14.5754   C.2       1 RES1   0.0000
    17 C17     18.4749  25.4696  15.2617   C.2       1 RES1   0.0000
    18 C18     20.3608  29.7457  15.9448   C.3       1 RES1   0.0000
    19 O19     19.3952  30.5876  16.5728   O.3       1 RES1   0.0000
    20 C20     21.2439  30.5881  14.9914   C.3       1 RES1   0.0000
    21 N21     21.5571  31.8474  15.7074   N.3       1 RES1   0.0000
    22 C22     21.9523  32.9467  14.7997   C.3       1 RES1   0.0000
    23 C23     21.1972  34.2092  15.2247   C.3       1 RES1   0.0000
    24 C24     22.2894  35.3503  14.7681   C.3       1 RES1   0.0000
    25 C25     21.5953  35.4404  16.0790   C.3       1 RES1   0.0000
    26 S26     22.5346  31.6836  16.9989   S.o2      1 RES1   0.0000
    27 O27     21.8348  30.9182  17.9841   O.2       1 RES1   0.0000
    28 O28     22.8306  33.0155  17.4498   O.2       1 RES1   0.0000
    29 C29     23.9719  30.9329  16.6490   C.2       1 RES1   0.0000
    30 C30     24.0997  29.5459  16.7379   C.2       1 RES1   0.0000
    31 C31     25.3136  28.9277  16.4346   C.2       1 RES1   0.0000
    32 C32     26.4040  29.6935  16.0493   C.2       1 RES1   0.0000
    33 C33     26.2848  31.0845  15.9470   C.2       1 RES1   0.0000
    34 O34     27.3320  31.9007  15.5675   O.3       1 RES1   0.0000
    35 C35     28.6310  31.4199  15.2432   C.3       1 RES1   0.0000
    36 C36     25.0703  31.6897  16.2524   C.2       1 RES1   0.0000
@<TRIPOS>BOND
     1     1     2    1
     2     2     3   am
     3     3     4    2
     4     3     5    1
     5     5     6    1
     6     6     7    1
     7     7     8    2
     8     7     9   am
     9     9    10    1
    10    10    11    1
    11    11    12    1
    12    12    13    2
    13    13    14    1
    14    14    15    2
    15    15    16    1
    16    16    17    2
    17    10    18    1
    18    18    19    1
    19    18    20    1
    20    20    21    1
    21    21    22    1
    22    22    23    1
    23    23    24    1
    24    24    25    1
    25    21    26    1
    26    26    27    2
    27    26    28    2
    28    26    29    1
    29    29    30    2
    30    30    31    1
    31    31    32    2
    32    32    33    1
    33    33    34    1
    34    34    35    1
    35    33    36    2
    36    17    12    1
    37    25    23    1
    38    36    29    1
@<TRIPOS>SUBSTRUCTURE
     1 RES1        1 GROUP             0 ****  ****    0  
@<TRIPOS>MOLECULE
ligand_35
    36    38     1     0     0
SMALL
NO_CHARGES
****
Generated from the CSD

@<TRIPOS>ATOM
     1 C1      24.1110  24.8000   8.8660   C.3       1 RES1   0.0000
     2 N2      23.1030  25.6580   9.4670   N.am      1 RES1   0.0000
     3 C3      22.9450  25.7490  10.7890   C.2       1 RES1   0.0000
     4 O4      23.6441  25.1109  11.5865   O.2       1 RES1   0.0000
     5 C5      21.8635  26.6704  11.2936   C.3       1 RES1   0.0000
     6 C6      21.8662  26.6110  12.8020   C.3       1 RES1   0.0000
     7 C7      20.8002  27.5177  13.3398   C.2       1 RES1   0.0000
     8 O8      20.8342  28.6808  12.9817   O.2       1 RES1   0.0000
     9 N9      19.8893  27.0497  14.2030   N.am      1 RES1   0.0000
    10 C10     18.8371  27.8808  14.8099   C.3       1 RES1   0.0000
    11 C11     17.5015  27.5887  14.1223   C.3       1 RES1   0.0000
    12 C12     17.5876  28.0279  12.6813   C.2       1 RES1   0.0000
    13 C13     17.2299  29.3253  12.3164   C.2       1 RES1   0.0000
    14 C14     17.2880  29.7340  10.9950   C.2       1 RES1   0.0000
    15 C15     17.7101  28.8412  10.0206   C.2       1 RES1   0.0000
    16 C16     18.0449  27.5550  10.3793   C.2       1 RES1   0.0000
    17 C17     18.0040  27.1448  11.6997   C.2       1 RES1   0.0000
    18 C18     18.7903  27.6372  16.3308   C.3       1 RES1   0.0000
    19 O19     18.2622  26.3370  16.5878   O.3       1 RES1   0.0000
    20 C20     17.9836  28.6931  17.1262   C.3       1 RES1   0.0000
    21 N21     18.1615  28.3681  18.5612   N.3       1 RES1   0.0000
    22 C22     16.8926  28.3902  19.3216   C.3       1 RES1   0.0000
    23 C23     16.8434  27.1378  20.2013   C.3       1 RES1   0.0000
    24 C24     15.9473  27.7155  21.4530   C.3       1 RES1   0.0000
    25 C25     17.1559  26.8867  21.6991   C.3       1 RES1   0.0000
    26 S26     19.3804  29.1529  19.3019   S.o2      1 RES1   0.0000
    27 O27     20.5906  28.8380  18.6074   O.2       1 RES1   0.0000
    28 O28     19.3920  28.6853  20.6606   O.2       1 RES1   0.0000
    29 C29     19.1847  30.7999  19.3316   C.2       1 RES1   0.0000
    30 C30     19.6776  31.6019  18.3010   C.2       1 RES1   0.0000
    31 C31     19.5001  32.9857  18.3366   C.2       1 RES1   0.0000
    32 C32     18.8370  33.5721  19.4044   C.2       1 RES1   0.0000
    33 C33     18.3296  32.7768  20.4387   C.2       1 RES1   0.0000
    34 O34     17.6595  33.3001  21.5268   O.3       1 RES1   0.0000
    35 C35     17.4157  34.6894  21.7112   C.3       1 RES1   0.0000
    36 C36     18.5129  31.3988  20.3930   C.2       1 RES1   0.0000
@<TRIPOS>BOND
     1     1     2    1
     2     2     3   am
     3     3     4    2
     4     3     5    1
     5     5     6    1
     6     6     7    1
     7     7     8    2
     8     7     9   am
     9     9    10    1
    10    10    11    1
    11    11    12    1
    12    12    13    2
    13    13    14    1
    14    14    15    2
    15    15    16    1
    16    16    17    2
    17    10    18    1
    18    18    19    1
    19    18    20    1
    20    20    21    1
    21    21    22    1
    22    22    23    1
    23    23    24    1
    24    24    25    1
    25    21    26    1
    26    26    27    2
    27    26    28    2
    28    26    29    1
    29    29    30    2
    30    30    31    1
    31    31    32    2
    32    32    33    1
    33    33    34    1
    34    34    35    1
    35    33    36    2
    36    17    12    1
    37    25    23    1
    38    36    29    1
@<TRIPOS>SUBSTRUCTURE
     1 RES1        1 GROUP             0 ****  ****    0  
@<TRIPOS>MOLECULE
ligand_36
    36    38     1     0     0
SMALL
NO_CHARGES
****
Generated from the CSD

@<TRIPOS>ATOM
     1 C1      24.1110  24.8000   8.8660   C.3       1 RES1   0.0000
     2 N2      23.1030  25.6580   9.4670   N.am      1 RES1   0.0000
     3 C3      22.9450  25.7490  10.7890   C.2       1 RES1   0.0000
     4 O4      23.6441  25.1109  11.5865   O.2       1 RES1   0.0000
     5 C5      21.8635  26.6704  11.2936   C.3       1 RES1   0.0000
     6 C6      21.8662  26.6110  12.8020   C.3       1 RES1   0.0000
     7 C7      20.8002  27.5177  13.3398   C.2       1 RES1   0.0000
     8 O8      20.8342  28.6808  12.9817   O.2       1 RES1   0.0000
     9 N9      19.8893  27.0497  14.2030   N.am      1 RES1   0.0000
    10 C10     18.8371  27.8808  14.8099   C.3       1 RES1   0.0000
    11 C11     17.5015  27.5887  14.1223   C.3       1 RES1   0.0000
    12 C12     17.5876  28.0279  12.6813   C.2       1 RES1   0.0000
    13 C13     18.0259  27.1412  11.6984   C.2       1 RES1   0.0000
    14 C14     18.1258  27.5382  10.3759   C.2       1 RES1   0.0000
    15 C15     17.7830  28.8355  10.0232   C.2       1 RES1   0.0000
    16 C16     17.3686  29.7155  10.9972   C.2       1 RES1   0.0000
    17 C17     17.2516  29.3209  12.3179   C.2       1 RES1   0.0000
    18 C18     18.7903  27.6372  16.3308   C.3       1 RES1   0.0000
    19 O19     18.2622  26.3370  16.5878   O.3       1 RES1   0.0000
    20 C20     17.9836  28.6931  17.1262   C.3       1 RES1   0.0000
    21 N21     18.1615  28.3681  18.5612   N.3       1 RES1   0.0000
    22 C22     16.8926  28.3902  19.3216   C.3       1 RES1   0.0000
    23 C23     16.8434  27.1378  20.2013   C.3       1 RES1   0.0000
    24 C24     15.9473  27.7155  21.4530   C.3       1 RES1   0.0000
    25 C25     17.1559  26.8867  21.6991   C.3       1 RES1   0.0000
    26 S26     19.3804  29.1529  19.3019   S.o2      1 RES1   0.0000
    27 O27     20.5906  28.8380  18.6074   O.2       1 RES1   0.0000
    28 O28     19.3920  28.6853  20.6606   O.2       1 RES1   0.0000
    29 C29     19.1847  30.7999  19.3316   C.2       1 RES1   0.0000
    30 C30     18.5220  31.4271  20.3878   C.2       1 RES1   0.0000
    31 C31     18.3703  32.8143  20.4021   C.2       1 RES1   0.0000
    32 C32     18.8731  33.5772  19.3585   C.2       1 RES1   0.0000
    33 C33     19.5484  32.9600  18.2988   C.2       1 RES1   0.0000
    34 O34     20.0726  33.6640  17.2328   O.3       1 RES1   0.0000
    35 C35     19.9835  35.0774  17.0988   C.3       1 RES1   0.0000
    36 C36     19.6930  31.5768  18.2949   C.2       1 RES1   0.0000
@<TRIPOS>BOND
     1     1     2    1
     2     2     3   am
     3     3     4    2
     4     3     5    1
     5     5     6    1
     6     6     7    1
     7     7     8    2
     8     7     9   am
     9     9    10    1
    10    10    11    1
    11    11    12    1
    12    12    13    2
    13    13    14    1
    14    14    15    2
    15    15    16    1
    16    16    17    2
    17    10    18    1
    18    18    19    1
    19    18    20    1
    20    20    21    1
    21    21    22    1
    22    22    23    1
    23    23    24    1
    24    24    25    1
    25    21    26    1
    26    26    27    2
    27    26    28    2
    28    26    29    1
    29    29    30    2
    30    30    31    1
    31    31    32    2
    32    32    33    1
    33    33    34    1
    34    34    35    1
    35    33    36    2
    36    17    12    1
    37    25    23    1
    38    36    29    1
@<TRIPOS>SUBSTRUCTURE
     1 RES1        1 GROUP             0 ****  ****    0  
@<TRIPOS>MOLECULE
ligand_37
    36    38     1     0     0
SMALL
NO_CHARGES
****
Generated from the CSD

@<TRIPOS>ATOM
     1 C1      24.0152  24.6181   8.9017   C.3       1 RES1   0.0000
     2 N2      23.0620  25.5469   9.4867   N.am      1 RES1   0.0000
     3 C3      22.8938  25.6542  10.8062   C.2       1 RES1   0.0000
     4 O4      23.5363  24.9721  11.6148   O.2       1 RES1   0.0000
     5 C5      21.8729  26.6509  11.2936   C.3       1 RES1   0.0000
     6 C6      21.8655  26.6113  12.8026   C.3       1 RES1   0.0000
     7 C7      23.1145  27.2548  13.3257   C.2       1 RES1   0.0000
     8 O8      23.8909  27.7012  12.5011   O.2       1 RES1   0.0000
     9 N9      23.3555  27.2874  14.6428   N.am      1 RES1   0.0000
    10 C10     24.5744  27.8610  15.2357   C.3       1 RES1   0.0000
    11 C11     24.2487  29.2295  15.8383   C.3       1 RES1   0.0000
    12 C12     23.8535  30.1709  14.7272   C.2       1 RES1   0.0000
    13 C13     24.8180  30.9415  14.0787   C.2       1 RES1   0.0000
    14 C14     24.4648  31.8216  13.0701   C.2       1 RES1   0.0000
    15 C15     23.1333  31.9368  12.6977   C.2       1 RES1   0.0000
    16 C16     22.1798  31.1896  13.3514   C.2       1 RES1   0.0000
    17 C17     22.5276  30.2970  14.3493   C.2       1 RES1   0.0000
    18 C18     25.1653  26.8808  16.2675   C.3       1 RES1   0.0000
    19 O19     26.3191  27.4641  16.8707   O.3       1 RES1   0.0000
    20 C20     25.5250  25.4868  15.6968   C.3       1 RES1   0.0000
    21 N21     25.9068  24.6422  16.8533   N.3       1 RES1   0.0000
    22 C22     27.3290  24.7893  17.2334   C.3       1 RES1   0.0000
    23 C23     27.3986  24.9779  18.7514   C.3       1 RES1   0.0000
    24 C24     28.8669  24.2990  19.0462   C.3       1 RES1   0.0000
    25 C25     27.7026  24.0087  19.9229   C.3       1 RES1   0.0000
    26 S26     25.4090  23.0943  16.7733   S.o2      1 RES1   0.0000
    27 O27     23.9835  23.0978  16.6553   O.2       1 RES1   0.0000
    28 O28     25.8559  22.4657  17.9857   O.2       1 RES1   0.0000
    29 C29     26.0570  22.2568  15.4964   C.2       1 RES1   0.0000
    30 C30     27.2601  21.5616  15.6279   C.2       1 RES1   0.0000
    31 C31     27.7900  20.8564  14.5464   C.2       1 RES1   0.0000
    32 C32     27.1239  20.8502  13.3298   C.2       1 RES1   0.0000
    33 C33     25.9114  21.5356  13.1890   C.2       1 RES1   0.0000
    34 O34     25.2005  21.5657  12.0056   O.3       1 RES1   0.0000
    35 C35     25.6200  20.9101  10.8150   C.3       1 RES1   0.0000
    36 C36     25.3932  22.2354  14.2735   C.2       1 RES1   0.0000
@<TRIPOS>BOND
     1     1     2    1
     2     2     3   am
     3     3     4    2
     4     3     5    1
     5     5     6    1
     6     6     7    1
     7     7     8    2
     8     7     9   am
     9     9    10    1
    10    10    11    1
    11    11    12    1
    12    12    13    2
    13    13    14    1
    14    14    15    2
    15    15    16    1
    16    16    17    2
    17    10    18    1
    18    18    19    1
    19    18    20    1
    20    20    21    1
    21    21    22    1
    22    22    23    1
    23    23    24    1
    24    24    25    1
    25    21    26    1
    26    26    27    2
    27    26    28    2
    28    26    29    1
    29    29    30    2
    30    30    31    1
    31    31    32    2
    32    32    33    1
    33    33    34    1
    34    34    35    1
    35    33    36    2
    36    17    12    1
    37    25    23    1
    38    36    29    1
@<TRIPOS>SUBSTRUCTURE
     1 RES1        1 GROUP             0 ****  ****    0  
@<TRIPOS>MOLECULE
ligand_38
    36    38     1     0     0
SMALL
NO_CHARGES
****
Generated from the CSD

@<TRIPOS>ATOM
     1 C1      24.1113  24.8002   8.8660   C.3       1 RES1   0.0000
     2 N2      23.1033  25.6583   9.4670   N.am      1 RES1   0.0000
     3 C3      22.9452  25.7492  10.7890   C.2       1 RES1   0.0000
     4 O4      23.6441  25.1109  11.5865   O.2       1 RES1   0.0000
     5 C5      21.8638  26.6706  11.2937   C.3       1 RES1   0.0000
     6 C6      21.8662  26.6111  12.8020   C.3       1 RES1   0.0000
     7 C7      20.8003  27.5178  13.3398   C.2       1 RES1   0.0000
     8 O8      20.1339  28.1286  12.5244   O.2       1 RES1   0.0000
     9 N9      20.6384  27.6582  14.6619   N.am      1 RES1   0.0000
    10 C10     19.6460  28.5580  15.2718   C.3       1 RES1   0.0000
    11 C11     18.7733  27.7633  16.2459   C.3       1 RES1   0.0000
    12 C12     17.9767  26.7446  15.4686   C.2       1 RES1   0.0000
    13 C13     16.7178  27.0687  14.9640   C.2       1 RES1   0.0000
    14 C14     15.9703  26.1367  14.2646   C.2       1 RES1   0.0000
    15 C15     16.4818  24.8632  14.0608   C.2       1 RES1   0.0000
    16 C16     17.7165  24.5385  14.5755   C.2       1 RES1   0.0000
    17 C17     18.4751  25.4695  15.2618   C.2       1 RES1   0.0000
    18 C18     20.3608  29.7457  15.9448   C.3       1 RES1   0.0000
    19 O19     21.0394  29.2912  17.1145   O.3       1 RES1   0.0000
    20 C20     19.4333  30.9313  16.3089   C.3       1 RES1   0.0000
    21 N21     18.9371  31.4886  15.0284   N.3       1 RES1   0.0000
    22 C22     19.9245  32.3607  14.3551   C.3       1 RES1   0.0000
    23 C23     19.9669  31.9758  12.8736   C.3       1 RES1   0.0000
    24 C24     20.3645  33.4321  12.2220   C.3       1 RES1   0.0000
    25 C25     19.3122  32.5828  11.6059   C.3       1 RES1   0.0000
    26 S26     17.4381  32.1212  15.0843   S.o2      1 RES1   0.0000
    27 O27     16.5439  31.0921  15.5170   O.2       1 RES1   0.0000
    28 O28     17.1448  32.5767  13.7535   O.2       1 RES1   0.0000
    29 C29     17.3066  33.4199  16.1080   C.2       1 RES1   0.0000
    30 C30     16.9719  33.2461  17.4518   C.2       1 RES1   0.0000
    31 C31     16.8708  34.3477  18.3027   C.2       1 RES1   0.0000
    32 C32     17.0962  35.6253  17.8119   C.2       1 RES1   0.0000
    33 C33     17.4424  35.8109  16.4683   C.2       1 RES1   0.0000
    34 O34     17.6806  37.0560  15.9208   O.3       1 RES1   0.0000
    35 C35     17.6006  38.2710  16.6564   C.3       1 RES1   0.0000
    36 C36     17.5396  34.7057  15.6295   C.2       1 RES1   0.0000
@<TRIPOS>BOND
     1     1     2    1
     2     2     3   am
     3     3     4    2
     4     3     5    1
     5     5     6    1
     6     6     7    1
     7     7     8    2
     8     7     9   am
     9     9    10    1
    10    10    11    1
    11    11    12    1
    12    12    13    2
    13    13    14    1
    14    14    15    2
    15    15    16    1
    16    16    17    2
    17    10    18    1
    18    18    19    1
    19    18    20    1
    20    20    21    1
    21    21    22    1
    22    22    23    1
    23    23    24    1
    24    24    25    1
    25    21    26    1
    26    26    27    2
    27    26    28    2
    28    26    29    1
    29    29    30    2
    30    30    31    1
    31    31    32    2
    32    32    33    1
    33    33    34    1
    34    34    35    1
    35    33    36    2
    36    17    12    1
    37    25    23    1
    38    36    29    1
@<TRIPOS>SUBSTRUCTURE
     1 RES1        1 GROUP             0 ****  ****    0  
@<TRIPOS>MOLECULE
ligand_39
    36    38     1     0     0
SMALL
NO_CHARGES
****
Generated from the CSD

@<TRIPOS>ATOM
     1 C1      24.1113  24.8002   8.8660   C.3       1 RES1   0.0000
     2 N2      23.1033  25.6583   9.4670   N.am      1 RES1   0.0000
     3 C3      22.9452  25.7492  10.7890   C.2       1 RES1   0.0000
     4 O4      23.6441  25.1109  11.5865   O.2       1 RES1   0.0000
     5 C5      21.8638  26.6706  11.2937   C.3       1 RES1   0.0000
     6 C6      21.8662  26.6111  12.8020   C.3       1 RES1   0.0000
     7 C7      20.8003  27.5178  13.3398   C.2       1 RES1   0.0000
     8 O8      20.1339  28.1286  12.5244   O.2       1 RES1   0.0000
     9 N9      20.6384  27.6582  14.6619   N.am      1 RES1   0.0000
    10 C10     19.6460  28.5580  15.2718   C.3       1 RES1   0.0000
    11 C11     18.7733  27.7633  16.2459   C.3       1 RES1   0.0000
    12 C12     17.9767  26.7446  15.4686   C.2       1 RES1   0.0000
    13 C13     16.7178  27.0687  14.9640   C.2       1 RES1   0.0000
    14 C14     15.9703  26.1367  14.2646   C.2       1 RES1   0.0000
    15 C15     16.4818  24.8632  14.0608   C.2       1 RES1   0.0000
    16 C16     17.7165  24.5385  14.5755   C.2       1 RES1   0.0000
    17 C17     18.4751  25.4695  15.2618   C.2       1 RES1   0.0000
    18 C18     20.3608  29.7457  15.9448   C.3       1 RES1   0.0000
    19 O19     21.0394  29.2912  17.1145   O.3       1 RES1   0.0000
    20 C20     19.4333  30.9313  16.3089   C.3       1 RES1   0.0000
    21 N21     18.9371  31.4886  15.0284   N.3       1 RES1   0.0000
    22 C22     19.9245  32.3607  14.3551   C.3       1 RES1   0.0000
    23 C23     19.9669  31.9758  12.8736   C.3       1 RES1   0.0000
    24 C24     20.3645  33.4321  12.2220   C.3       1 RES1   0.0000
    25 C25     19.3122  32.5828  11.6059   C.3       1 RES1   0.0000
    26 S26     17.4381  32.1212  15.0843   S.o2      1 RES1   0.0000
    27 O27     16.5439  31.0921  15.5170   O.2       1 RES1   0.0000
    28 O28     17.1448  32.5767  13.7535   O.2       1 RES1   0.0000
    29 C29     17.3066  33.4199  16.1080   C.2       1 RES1   0.0000
    30 C30     17.5271  34.7206  15.6525   C.2       1 RES1   0.0000
    31 C31     17.4069  35.8040  16.5240   C.2       1 RES1   0.0000
    32 C32     17.0737  35.5903  17.8534   C.2       1 RES1   0.0000
    33 C33     16.8404  34.2909  18.3191   C.2       1 RES1   0.0000
    34 O34     16.5041  34.0135  19.6294   O.3       1 RES1   0.0000
    35 C35     16.3602  35.0085  20.6358   C.3       1 RES1   0.0000
    36 C36     16.9637  33.2189  17.4417   C.2       1 RES1   0.0000
@<TRIPOS>BOND
     1     1     2    1
     2     2     3   am
     3     3     4    2
     4     3     5    1
     5     5     6    1
     6     6     7    1
     7     7     8    2
     8     7     9   am
     9     9    10    1
    10    10    11    1
    11    11    12    1
    12    12    13    2
    13    13    14    1
    14    14    15    2
    15    15    16    1
    16    16    17    2
    17    10    18    1
    18    18    19    1
    19    18    20    1
    20    20    21    1
    21    21    22    1
    22    22    23    1
    23    23    24    1
    24    24    25    1
    25    21    26    1
    26    26    27    2
    27    26    28    2
    28    26    29    1
    29    29    30    2
    30    30    31    1
    31    31    32    2
    32    32    33    1
    33    33    34    1
    34    34    35    1
    35    33    36    2
    36    17    12    1
    37    25    23    1
    38    36    29    1
@<TRIPOS>SUBSTRUCTURE
     1 RES1        1 GROUP             0 ****  ****    0  
@<TRIPOS>MOLECULE
ligand_40
    36    38     1     0     0
SMALL
NO_CHARGES
****
Generated from the CSD

@<TRIPOS>ATOM
     1 C1      24.0890  24.7724   8.8609   C.3       1 RES1   0.0000
     2 N2      23.0862  25.6357   9.4629   N.am      1 RES1   0.0000
     3 C3      22.9298  25.7274  10.7851   C.2       1 RES1   0.0000
     4 O4      23.6262  25.0854  11.5819   O.2       1 RES1   0.0000
     5 C5      21.8538  26.6545  11.2908   C.3       1 RES1   0.0000
     6 C6      21.8575  26.5949  12.7991   C.3       1 RES1   0.0000
     7 C7      20.7969  27.5073  13.3381   C.2       1 RES1   0.0000
     8 O8      20.8369  28.6702  12.9801   O.2       1 RES1   0.0000
     9 N9      19.8842  27.0441  14.2020   N.am      1 RES1   0.0000
    10 C10     18.8371  27.8808  14.8099   C.3       1 RES1   0.0000
    11 C11     17.4993  27.5961  14.1235   C.3       1 RES1   0.0000
    12 C12     17.5899  28.0258  12.6799   C.2       1 RES1   0.0000
    13 C13     17.2436  29.3241  12.3070   C.2       1 RES1   0.0000
    14 C14     17.3057  29.7243  10.9831   C.2       1 RES1   0.0000
    15 C15     17.7206  28.8220  10.0143   C.2       1 RES1   0.0000
    16 C16     18.0441  27.5352  10.3809   C.2       1 RES1   0.0000
    17 C17     17.9991  27.1332  11.7037   C.2       1 RES1   0.0000
    18 C18     18.7903  27.6372  16.3308   C.3       1 RES1   0.0000
    19 O19     17.5520  28.1180  16.8513   O.3       1 RES1   0.0000
    20 C20     19.9654  28.2668  17.1189   C.3       1 RES1   0.0000
    21 N21     21.1922  27.5549  16.6891   N.3       1 RES1   0.0000
    22 C22     21.3543  26.2361  17.3397   C.3       1 RES1   0.0000
    23 C23     21.7406  25.2186  16.2625   C.3       1 RES1   0.0000
    24 C24     22.6393  24.1838  17.1707   C.3       1 RES1   0.0000
    25 C25     23.0972  24.6101  15.8228   C.3       1 RES1   0.0000
    26 S26     22.5493  28.4541  16.6888   S.o2      1 RES1   0.0000
    27 O27     22.3353  29.5704  15.8204   O.2       1 RES1   0.0000
    28 O28     23.6013  27.5930  16.2236   O.2       1 RES1   0.0000
    29 C29     22.9738  29.0105  18.1929   C.2       1 RES1   0.0000
    30 C30     22.5049  30.2374  18.6651   C.2       1 RES1   0.0000
    31 C31     22.8656  30.6898  19.9351   C.2       1 RES1   0.0000
    32 C32     23.7010  29.9219  20.7329   C.2       1 RES1   0.0000
    33 C33     24.1693  28.6851  20.2737   C.2       1 RES1   0.0000
    34 O34     25.0012  27.8745  21.0204   O.3       1 RES1   0.0000
    35 C35     25.4667  28.2063  22.3231   C.3       1 RES1   0.0000
    36 C36     23.8037  28.2447  19.0061   C.2       1 RES1   0.0000
@<TRIPOS>BOND
     1     1     2    1
     2     2     3   am
     3     3     4    2
     4     3     5    1
     5     5     6    1
     6     6     7    1
     7     7     8    2
     8     7     9   am
     9     9    10    1
    10    10    11    1
    11    11    12    1
    12    12    13    2
    13    13    14    1
    14    14    15    2
    15    15    16    1
    16    16    17    2
    17    10    18    1
    18    18    19    1
    19    18    20    1
    20    20    21    1
    21    21    22    1
    22    22    23    1
    23    23    24    1
    24    24    25    1
    25    21    26    1
    26    26    27    2
    27    26    28    2
    28    26    29    1
    29    29    30    2
    30    30    31    1
    31    31    32    2
    32    32    33    1
    33    33    34    1
    34    34    35    1
    35    33    36    2
    36    17    12    1
    37    25    23    1
    38    36    29    1
@<TRIPOS>SUBSTRUCTURE
     1 RES1        1 GROUP             0 ****  ****    0  
@<TRIPOS>MOLECULE
ligand_41
    36    38     1     0     0
SMALL
NO_CHARGES
****
Generated from the CSD

@<TRIPOS>ATOM
     1 C1      24.0890  24.7724   8.8609   C.3       1 RES1   0.0000
     2 N2      23.0862  25.6357   9.4629   N.am      1 RES1   0.0000
     3 C3      22.9298  25.7274  10.7851   C.2       1 RES1   0.0000
     4 O4      23.6262  25.0854  11.5819   O.2       1 RES1   0.0000
     5 C5      21.8538  26.6545  11.2908   C.3       1 RES1   0.0000
     6 C6      21.8575  26.5949  12.7991   C.3       1 RES1   0.0000
     7 C7      20.7969  27.5073  13.3381   C.2       1 RES1   0.0000
     8 O8      20.8369  28.6702  12.9801   O.2       1 RES1   0.0000
     9 N9      19.8842  27.0441  14.2020   N.am      1 RES1   0.0000
    10 C10     18.8371  27.8808  14.8099   C.3       1 RES1   0.0000
    11 C11     17.4993  27.5961  14.1235   C.3       1 RES1   0.0000
    12 C12     17.5899  28.0258  12.6799   C.2       1 RES1   0.0000
    13 C13     17.2436  29.3241  12.3070   C.2       1 RES1   0.0000
    14 C14     17.3057  29.7243  10.9831   C.2       1 RES1   0.0000
    15 C15     17.7206  28.8220  10.0143   C.2       1 RES1   0.0000
    16 C16     18.0441  27.5352  10.3809   C.2       1 RES1   0.0000
    17 C17     17.9991  27.1332  11.7037   C.2       1 RES1   0.0000
    18 C18     18.7903  27.6372  16.3308   C.3       1 RES1   0.0000
    19 O19     17.5520  28.1180  16.8513   O.3       1 RES1   0.0000
    20 C20     19.9654  28.2668  17.1189   C.3       1 RES1   0.0000
    21 N21     21.1922  27.5549  16.6891   N.3       1 RES1   0.0000
    22 C22     21.3543  26.2361  17.3397   C.3       1 RES1   0.0000
    23 C23     21.7406  25.2186  16.2625   C.3       1 RES1   0.0000
    24 C24     22.6393  24.1838  17.1707   C.3       1 RES1   0.0000
    25 C25     23.0972  24.6101  15.8228   C.3       1 RES1   0.0000
    26 S26     22.5493  28.4541  16.6888   S.o2      1 RES1   0.0000
    27 O27     22.3353  29.5704  15.8204   O.2       1 RES1   0.0000
    28 O28     23.6013  27.5930  16.2236   O.2       1 RES1   0.0000
    29 C29     22.9738  29.0105  18.1929   C.2       1 RES1   0.0000
    30 C30     23.8110  28.2664  19.0256   C.2       1 RES1   0.0000
    31 C31     24.1645  28.7502  20.2861   C.2       1 RES1   0.0000
    32 C32     23.6768  29.9739  20.7204   C.2       1 RES1   0.0000
    33 C33     22.8445  30.7335  19.8898   C.2       1 RES1   0.0000
    34 O34     22.3289  31.9587  20.2638   O.3       1 RES1   0.0000
    35 C35     22.5858  32.5737  21.5205   C.3       1 RES1   0.0000
    36 C36     22.4984  30.2411  18.6360   C.2       1 RES1   0.0000
@<TRIPOS>BOND
     1     1     2    1
     2     2     3   am
     3     3     4    2
     4     3     5    1
     5     5     6    1
     6     6     7    1
     7     7     8    2
     8     7     9   am
     9     9    10    1
    10    10    11    1
    11    11    12    1
    12    12    13    2
    13    13    14    1
    14    14    15    2
    15    15    16    1
    16    16    17    2
    17    10    18    1
    18    18    19    1
    19    18    20    1
    20    20    21    1
    21    21    22    1
    22    22    23    1
    23    23    24    1
    24    24    25    1
    25    21    26    1
    26    26    27    2
    27    26    28    2
    28    26    29    1
    29    29    30    2
    30    30    31    1
    31    31    32    2
    32    32    33    1
    33    33    34    1
    34    34    35    1
    35    33    36    2
    36    17    12    1
    37    25    23    1
    38    36    29    1
@<TRIPOS>SUBSTRUCTURE
     1 RES1        1 GROUP             0 ****  ****    0  
@<TRIPOS>MOLECULE
ligand_42
    36    38     1     0     0
SMALL
NO_CHARGES
****
Generated from the CSD

@<TRIPOS>ATOM
     1 C1      24.1283  24.6834   8.9568   C.3       1 RES1   0.0000
     2 N2      23.1171  25.5522   9.5364   N.am      1 RES1   0.0000
     3 C3      22.9643  25.6818  10.8558   C.2       1 RES1   0.0000
     4 O4      23.6692  25.0703  11.6688   O.2       1 RES1   0.0000
     5 C5      21.8814  26.6137  11.3375   C.3       1 RES1   0.0000
     6 C6      21.8840  26.5915  12.8469   C.3       1 RES1   0.0000
     7 C7      20.8139  27.5064  13.3621   C.2       1 RES1   0.0000
     8 O8      19.6843  27.3211  12.9478   O.2       1 RES1   0.0000
     9 N9      21.1238  28.4971  14.2085   N.am      1 RES1   0.0000
    10 C10     20.1398  29.4531  14.7416   C.3       1 RES1   0.0000
    11 C11     20.1952  29.4368  16.2709   C.3       1 RES1   0.0000
    12 C12     19.7528  28.0801  16.7612   C.2       1 RES1   0.0000
    13 C13     18.4082  27.8330  17.0359   C.2       1 RES1   0.0000
    14 C14     17.9932  26.5977  17.5032   C.2       1 RES1   0.0000
    15 C15     18.9275  25.5909  17.6986   C.2       1 RES1   0.0000
    16 C16     20.2571  25.8418  17.4451   C.2       1 RES1   0.0000
    17 C17     20.6765  27.0687  16.9634   C.2       1 RES1   0.0000
    18 C18     20.3973  30.8528  14.1508   C.3       1 RES1   0.0000
    19 O19     19.2850  31.7002  14.4341   O.3       1 RES1   0.0000
    20 C20     20.6862  30.8649  12.6293   C.3       1 RES1   0.0000
    21 N21     21.0348  32.2614  12.2763   N.3       1 RES1   0.0000
    22 C22     19.8722  33.0481  11.8094   C.3       1 RES1   0.0000
    23 C23     19.9055  34.4086  12.5113   C.3       1 RES1   0.0000
    24 C24     19.1883  35.3324  11.3556   C.3       1 RES1   0.0000
    25 C25     20.3989  35.8114  12.0721   C.3       1 RES1   0.0000
    26 S26     22.3553  32.4286  11.3389   S.o2      1 RES1   0.0000
    27 O27     23.4522  31.8036  12.0114   O.2       1 RES1   0.0000
    28 O28     22.5511  33.8420  11.1698   O.2       1 RES1   0.0000
    29 C29     22.1865  31.7537   9.8329   C.2       1 RES1   0.0000
    30 C30     21.6779  32.4947   8.7651   C.2       1 RES1   0.0000
    31 C31     21.5473  31.9153   7.5022   C.2       1 RES1   0.0000
    32 C32     21.9172  30.5931   7.3048   C.2       1 RES1   0.0000
    33 C33     22.4379  29.8432   8.3660   C.2       1 RES1   0.0000
    34 O34     22.8253  28.5245   8.2328   O.3       1 RES1   0.0000
    35 C35     22.7412  27.7956   7.0141   C.3       1 RES1   0.0000
    36 C36     22.5629  30.4310   9.6204   C.2       1 RES1   0.0000
@<TRIPOS>BOND
     1     1     2    1
     2     2     3   am
     3     3     4    2
     4     3     5    1
     5     5     6    1
     6     6     7    1
     7     7     8    2
     8     7     9   am
     9     9    10    1
    10    10    11    1
    11    11    12    1
    12    12    13    2
    13    13    14    1
    14    14    15    2
    15    15    16    1
    16    16    17    2
    17    10    18    1
    18    18    19    1
    19    18    20    1
    20    20    21    1
    21    21    22    1
    22    22    23    1
    23    23    24    1
    24    24    25    1
    25    21    26    1
    26    26    27    2
    27    26    28    2
    28    26    29    1
    29    29    30    2
    30    30    31    1
    31    31    32    2
    32    32    33    1
    33    33    34    1
    34    34    35    1
    35    33    36    2
    36    17    12    1
    37    25    23    1
    38    36    29    1
@<TRIPOS>SUBSTRUCTURE
     1 RES1        1 GROUP             0 ****  ****    0  
@<TRIPOS>MOLECULE
ligand_43
    36    38     1     0     0
SMALL
NO_CHARGES
****
Generated from the CSD

@<TRIPOS>ATOM
     1 C1      24.1330  24.7559   8.9301   C.3       1 RES1   0.0000
     2 N2      23.1048  25.5873   9.5343   N.am      1 RES1   0.0000
     3 C3      22.9859  25.7202  10.8568   C.2       1 RES1   0.0000
     4 O4      23.7408  25.1462  11.6521   O.2       1 RES1   0.0000
     5 C5      21.8781  26.6077  11.3650   C.3       1 RES1   0.0000
     6 C6      21.9329  26.6052  12.8735   C.3       1 RES1   0.0000
     7 C7      20.8424  27.4800  13.4149   C.2       1 RES1   0.0000
     8 O8      19.7069  27.2329  13.0520   O.2       1 RES1   0.0000
     9 N9      21.1390  28.5024  14.2276   N.am      1 RES1   0.0000
    10 C10     20.1398  29.4531  14.7416   C.3       1 RES1   0.0000
    11 C11     20.1702  29.4417  16.2716   C.3       1 RES1   0.0000
    12 C12     19.7406  28.0797  16.7586   C.2       1 RES1   0.0000
    13 C13     18.3956  27.8127  17.0118   C.2       1 RES1   0.0000
    14 C14     17.9918  26.5724  17.4757   C.2       1 RES1   0.0000
    15 C15     18.9380  25.5806  17.6895   C.2       1 RES1   0.0000
    16 C16     20.2676  25.8512  17.4572   C.2       1 RES1   0.0000
    17 C17     20.6761  27.0832  16.9789   C.2       1 RES1   0.0000
    18 C18     20.3973  30.8528  14.1508   C.3       1 RES1   0.0000
    19 O19     19.7358  31.8341  14.9477   O.3       1 RES1   0.0000
    20 C20     19.9732  31.0131  12.6699   C.3       1 RES1   0.0000
    21 N21     18.5046  31.2122  12.6699   N.3       1 RES1   0.0000
    22 C22     17.7485  29.9454  12.5583   C.3       1 RES1   0.0000
    23 C23     16.6747  29.9347  13.6498   C.3       1 RES1   0.0000
    24 C24     15.5274  29.0276  12.8986   C.3       1 RES1   0.0000
    25 C25     15.1587  30.2599  13.6427   C.3       1 RES1   0.0000
    26 S26     17.9657  32.3839  11.6765   S.o2      1 RES1   0.0000
    27 O27     18.5972  33.6087  12.0602   O.2       1 RES1   0.0000
    28 O28     16.5393  32.4280  11.8444   O.2       1 RES1   0.0000
    29 C29     18.2814  32.0895  10.0748   C.2       1 RES1   0.0000
    30 C30     19.4657  32.5299   9.4818   C.2       1 RES1   0.0000
    31 C31     19.7203  32.2694   8.1346   C.2       1 RES1   0.0000
    32 C32     18.7899  31.5756   7.3750   C.2       1 RES1   0.0000
    33 C33     17.6031  31.1203   7.9615   C.2       1 RES1   0.0000
    34 O34     16.6396  30.4234   7.2596   O.3       1 RES1   0.0000
    35 C35     16.7488  30.0969   5.8794   C.3       1 RES1   0.0000
    36 C36     17.3598  31.3862   9.3048   C.2       1 RES1   0.0000
@<TRIPOS>BOND
     1     1     2    1
     2     2     3   am
     3     3     4    2
     4     3     5    1
     5     5     6    1
     6     6     7    1
     7     7     8    2
     8     7     9   am
     9     9    10    1
    10    10    11    1
    11    11    12    1
    12    12    13    2
    13    13    14    1
    14    14    15    2
    15    15    16    1
    16    16    17    2
    17    10    18    1
    18    18    19    1
    19    18    20    1
    20    20    21    1
    21    21    22    1
    22    22    23    1
    23    23    24    1
    24    24    25    1
    25    21    26    1
    26    26    27    2
    27    26    28    2
    28    26    29    1
    29    29    30    2
    30    30    31    1
    31    31    32    2
    32    32    33    1
    33    33    34    1
    34    34    35    1
    35    33    36    2
    36    17    12    1
    37    25    23    1
    38    36    29    1
@<TRIPOS>SUBSTRUCTURE
     1 RES1        1 GROUP             0 ****  ****    0  
@<TRIPOS>MOLECULE
ligand_44
    36    38     1     0     0
SMALL
NO_CHARGES
****
Generated from the CSD

@<TRIPOS>ATOM
     1 C1      24.1330  24.7559   8.9301   C.3       1 RES1   0.0000
     2 N2      23.1048  25.5873   9.5343   N.am      1 RES1   0.0000
     3 C3      22.9859  25.7202  10.8568   C.2       1 RES1   0.0000
     4 O4      23.7408  25.1462  11.6521   O.2       1 RES1   0.0000
     5 C5      21.8781  26.6077  11.3650   C.3       1 RES1   0.0000
     6 C6      21.9329  26.6052  12.8735   C.3       1 RES1   0.0000
     7 C7      20.8424  27.4800  13.4149   C.2       1 RES1   0.0000
     8 O8      19.7069  27.2329  13.0520   O.2       1 RES1   0.0000
     9 N9      21.1390  28.5024  14.2276   N.am      1 RES1   0.0000
    10 C10     20.1398  29.4531  14.7416   C.3       1 RES1   0.0000
    11 C11     20.1702  29.4417  16.2716   C.3       1 RES1   0.0000
    12 C12     19.7406  28.0797  16.7586   C.2       1 RES1   0.0000
    13 C13     18.3956  27.8127  17.0118   C.2       1 RES1   0.0000
    14 C14     17.9918  26.5724  17.4757   C.2       1 RES1   0.0000
    15 C15     18.9380  25.5806  17.6895   C.2       1 RES1   0.0000
    16 C16     20.2676  25.8512  17.4572   C.2       1 RES1   0.0000
    17 C17     20.6761  27.0832  16.9789   C.2       1 RES1   0.0000
    18 C18     20.3973  30.8528  14.1508   C.3       1 RES1   0.0000
    19 O19     19.7358  31.8341  14.9477   O.3       1 RES1   0.0000
    20 C20     19.9732  31.0131  12.6699   C.3       1 RES1   0.0000
    21 N21     18.5046  31.2122  12.6699   N.3       1 RES1   0.0000
    22 C22     17.7485  29.9454  12.5583   C.3       1 RES1   0.0000
    23 C23     16.6747  29.9347  13.6498   C.3       1 RES1   0.0000
    24 C24     15.5274  29.0276  12.8986   C.3       1 RES1   0.0000
    25 C25     15.1587  30.2599  13.6427   C.3       1 RES1   0.0000
    26 S26     17.9657  32.3839  11.6765   S.o2      1 RES1   0.0000
    27 O27     18.5972  33.6087  12.0602   O.2       1 RES1   0.0000
    28 O28     16.5393  32.4280  11.8444   O.2       1 RES1   0.0000
    29 C29     18.2814  32.0895  10.0748   C.2       1 RES1   0.0000
    30 C30     17.3710  31.3936   9.2779   C.2       1 RES1   0.0000
    31 C31     17.6475  31.1586   7.9303   C.2       1 RES1   0.0000
    32 C32     18.8365  31.6112   7.3777   C.2       1 RES1   0.0000
    33 C33     19.7526  32.3190   8.1648   C.2       1 RES1   0.0000
    34 O34     20.9514  32.7965   7.6732   O.3       1 RES1   0.0000
    35 C35     21.3793  32.6220   6.3278   C.3       1 RES1   0.0000
    36 C36     19.4666  32.5467   9.5067   C.2       1 RES1   0.0000
@<TRIPOS>BOND
     1     1     2    1
     2     2     3   am
     3     3     4    2
     4     3     5    1
     5     5     6    1
     6     6     7    1
     7     7     8    2
     8     7     9   am
     9     9    10    1
    10    10    11    1
    11    11    12    1
    12    12    13    2
    13    13    14    1
    14    14    15    2
    15    15    16    1
    16    16    17    2
    17    10    18    1
    18    18    19    1
    19    18    20    1
    20    20    21    1
    21    21    22    1
    22    22    23    1
    23    23    24    1
    24    24    25    1
    25    21    26    1
    26    26    27    2
    27    26    28    2
    28    26    29    1
    29    29    30    2
    30    30    31    1
    31    31    32    2
    32    32    33    1
    33    33    34    1
    34    34    35    1
    35    33    36    2
    36    17    12    1
    37    25    23    1
    38    36    29    1
@<TRIPOS>SUBSTRUCTURE
     1 RES1        1 GROUP             0 ****  ****    0  
@<TRIPOS>MOLECULE
ligand_45
    36    38     1     0     0
SMALL
NO_CHARGES
****
Generated from the CSD

@<TRIPOS>ATOM
     1 C1      24.1110  24.8000   8.8660   C.3       1 RES1   0.0000
     2 N2      23.1030  25.6580   9.4670   N.am      1 RES1   0.0000
     3 C3      22.9450  25.7490  10.7890   C.2       1 RES1   0.0000
     4 O4      23.6441  25.1109  11.5865   O.2       1 RES1   0.0000
     5 C5      21.8635  26.6704  11.2936   C.3       1 RES1   0.0000
     6 C6      21.8662  26.6110  12.8020   C.3       1 RES1   0.0000
     7 C7      20.8002  27.5177  13.3398   C.2       1 RES1   0.0000
     8 O8      20.8342  28.6808  12.9817   O.2       1 RES1   0.0000
     9 N9      19.8893  27.0497  14.2030   N.am      1 RES1   0.0000
    10 C10     18.8371  27.8808  14.8099   C.3       1 RES1   0.0000
    11 C11     17.5015  27.5887  14.1223   C.3       1 RES1   0.0000
    12 C12     17.5876  28.0279  12.6813   C.2       1 RES1   0.0000
    13 C13     17.2299  29.3253  12.3164   C.2       1 RES1   0.0000
    14 C14     17.2880  29.7340  10.9950   C.2       1 RES1   0.0000
    15 C15     17.7101  28.8412  10.0206   C.2       1 RES1   0.0000
    16 C16     18.0449  27.5550  10.3793   C.2       1 RES1   0.0000
    17 C17     18.0040  27.1448  11.6997   C.2       1 RES1   0.0000
    18 C18     18.7903  27.6372  16.3308   C.3       1 RES1   0.0000
    19 O19     18.2622  26.3370  16.5878   O.3       1 RES1   0.0000
    20 C20     17.9836  28.6931  17.1262   C.3       1 RES1   0.0000
    21 N21     17.8666  28.1801  18.5117   N.3       1 RES1   0.0000
    22 C22     16.7142  27.2711  18.6973   C.3       1 RES1   0.0000
    23 C23     17.2014  26.0346  19.4580   C.3       1 RES1   0.0000
    24 C24     15.8189  25.6396  20.2556   C.3       1 RES1   0.0000
    25 C25     17.1325  25.6178  20.9499   C.3       1 RES1   0.0000
    26 S26     18.0053  29.3055  19.6798   S.o2      1 RES1   0.0000
    27 O27     19.2785  29.9396  19.5286   O.2       1 RES1   0.0000
    28 O28     17.8882  28.6045  20.9286   O.2       1 RES1   0.0000
    29 C29     16.8150  30.4599  19.6299   C.2       1 RES1   0.0000
    30 C30     16.9767  31.6287  18.8843   C.2       1 RES1   0.0000
    31 C31     15.9641  32.5883  18.8469   C.2       1 RES1   0.0000
    32 C32     14.7915  32.3864  19.5597   C.2       1 RES1   0.0000
    33 C33     14.6140  31.2135  20.3030   C.2       1 RES1   0.0000
    34 O34     13.4701  30.9537  21.0315   O.3       1 RES1   0.0000
    35 C35     12.3608  31.8412  21.1039   C.3       1 RES1   0.0000
    36 C36     15.6303  30.2644  20.3334   C.2       1 RES1   0.0000
@<TRIPOS>BOND
     1     1     2    1
     2     2     3   am
     3     3     4    2
     4     3     5    1
     5     5     6    1
     6     6     7    1
     7     7     8    2
     8     7     9   am
     9     9    10    1
    10    10    11    1
    11    11    12    1
    12    12    13    2
    13    13    14    1
    14    14    15    2
    15    15    16    1
    16    16    17    2
    17    10    18    1
    18    18    19    1
    19    18    20    1
    20    20    21    1
    21    21    22    1
    22    22    23    1
    23    23    24    1
    24    24    25    1
    25    21    26    1
    26    26    27    2
    27    26    28    2
    28    26    29    1
    29    29    30    2
    30    30    31    1
    31    31    32    2
    32    32    33    1
    33    33    34    1
    34    34    35    1
    35    33    36    2
    36    17    12    1
    37    25    23    1
    38    36    29    1
@<TRIPOS>SUBSTRUCTURE
     1 RES1        1 GROUP             0 ****  ****    0  
@<TRIPOS>MOLECULE
ligand_46
    36    38     1     0     0
SMALL
NO_CHARGES
****
Generated from the CSD

@<TRIPOS>ATOM
     1 C1      24.1110  24.8000   8.8660   C.3       1 RES1   0.0000
     2 N2      23.1030  25.6580   9.4670   N.am      1 RES1   0.0000
     3 C3      22.9450  25.7490  10.7890   C.2       1 RES1   0.0000
     4 O4      23.6441  25.1109  11.5865   O.2       1 RES1   0.0000
     5 C5      21.8635  26.6704  11.2936   C.3       1 RES1   0.0000
     6 C6      21.8662  26.6110  12.8020   C.3       1 RES1   0.0000
     7 C7      20.8002  27.5177  13.3398   C.2       1 RES1   0.0000
     8 O8      20.8342  28.6808  12.9817   O.2       1 RES1   0.0000
     9 N9      19.8893  27.0497  14.2030   N.am      1 RES1   0.0000
    10 C10     18.8371  27.8808  14.8099   C.3       1 RES1   0.0000
    11 C11     17.5015  27.5887  14.1223   C.3       1 RES1   0.0000
    12 C12     17.5876  28.0279  12.6813   C.2       1 RES1   0.0000
    13 C13     17.2299  29.3253  12.3164   C.2       1 RES1   0.0000
    14 C14     17.2880  29.7340  10.9950   C.2       1 RES1   0.0000
    15 C15     17.7101  28.8412  10.0206   C.2       1 RES1   0.0000
    16 C16     18.0449  27.5550  10.3793   C.2       1 RES1   0.0000
    17 C17     18.0040  27.1448  11.6997   C.2       1 RES1   0.0000
    18 C18     18.7903  27.6372  16.3308   C.3       1 RES1   0.0000
    19 O19     18.2622  26.3370  16.5878   O.3       1 RES1   0.0000
    20 C20     17.9836  28.6931  17.1262   C.3       1 RES1   0.0000
    21 N21     17.8666  28.1801  18.5117   N.3       1 RES1   0.0000
    22 C22     16.7142  27.2711  18.6973   C.3       1 RES1   0.0000
    23 C23     17.2014  26.0346  19.4580   C.3       1 RES1   0.0000
    24 C24     15.8189  25.6396  20.2556   C.3       1 RES1   0.0000
    25 C25     17.1325  25.6178  20.9499   C.3       1 RES1   0.0000
    26 S26     18.0053  29.3055  19.6798   S.o2      1 RES1   0.0000
    27 O27     19.2785  29.9396  19.5286   O.2       1 RES1   0.0000
    28 O28     17.8882  28.6045  20.9286   O.2       1 RES1   0.0000
    29 C29     16.8150  30.4599  19.6299   C.2       1 RES1   0.0000
    30 C30     15.6205  30.2929  20.3323   C.2       1 RES1   0.0000
    31 C31     14.6306  31.2755  20.2858   C.2       1 RES1   0.0000
    32 C32     14.8281  32.4230  19.5321   C.2       1 RES1   0.0000
    33 C33     16.0263  32.6060  18.8316   C.2       1 RES1   0.0000
    34 O34     16.2833  33.7261  18.0659   O.3       1 RES1   0.0000
    35 C35     15.3672  34.8029  17.9088   C.3       1 RES1   0.0000
    36 C36     17.0054  31.6197  18.8848   C.2       1 RES1   0.0000
@<TRIPOS>BOND
     1     1     2    1
     2     2     3   am
     3     3     4    2
     4     3     5    1
     5     5     6    1
     6     6     7    1
     7     7     8    2
     8     7     9   am
     9     9    10    1
    10    10    11    1
    11    11    12    1
    12    12    13    2
    13    13    14    1
    14    14    15    2
    15    15    16    1
    16    16    17    2
    17    10    18    1
    18    18    19    1
    19    18    20    1
    20    20    21    1
    21    21    22    1
    22    22    23    1
    23    23    24    1
    24    24    25    1
    25    21    26    1
    26    26    27    2
    27    26    28    2
    28    26    29    1
    29    29    30    2
    30    30    31    1
    31    31    32    2
    32    32    33    1
    33    33    34    1
    34    34    35    1
    35    33    36    2
    36    17    12    1
    37    25    23    1
    38    36    29    1
@<TRIPOS>SUBSTRUCTURE
     1 RES1        1 GROUP             0 ****  ****    0  
@<TRIPOS>MOLECULE
ligand_47
    36    38     1     0     0
SMALL
NO_CHARGES
****
Generated from the CSD

@<TRIPOS>ATOM
     1 C1      24.1110  24.7998   8.8661   C.3       1 RES1   0.0000
     2 N2      23.1030  25.6578   9.4671   N.am      1 RES1   0.0000
     3 C3      22.9450  25.7489  10.7891   C.2       1 RES1   0.0000
     4 O4      23.6442  25.1109  11.5866   O.2       1 RES1   0.0000
     5 C5      21.8635  26.6703  11.2937   C.3       1 RES1   0.0000
     6 C6      21.8662  26.6110  12.8021   C.3       1 RES1   0.0000
     7 C7      20.8002  27.5176  13.3399   C.2       1 RES1   0.0000
     8 O8      19.6675  27.3390  12.9312   O.2       1 RES1   0.0000
     9 N9      21.1166  28.4947  14.1996   N.am      1 RES1   0.0000
    10 C10     20.1398  29.4531  14.7416   C.3       1 RES1   0.0000
    11 C11     20.4526  29.7153  16.2165   C.3       1 RES1   0.0000
    12 C12     20.2460  28.4387  16.9941   C.2       1 RES1   0.0000
    13 C13     19.0007  28.1433  17.5477   C.2       1 RES1   0.0000
    14 C14     18.8041  26.9838  18.2780   C.2       1 RES1   0.0000
    15 C15     19.8600  26.1023  18.4597   C.2       1 RES1   0.0000
    16 C16     21.0937  26.4040  17.9288   C.2       1 RES1   0.0000
    17 C17     21.2930  27.5531  17.1850   C.2       1 RES1   0.0000
    18 C18     20.1437  30.7398  13.8937   C.3       1 RES1   0.0000
    19 O19     19.0048  31.5319  14.2268   O.3       1 RES1   0.0000
    20 C20     20.1821  30.5011  12.3640   C.3       1 RES1   0.0000
    21 N21     20.3123  31.8350  11.7311   N.3       1 RES1   0.0000
    22 C22     19.3825  32.0312  10.5973   C.3       1 RES1   0.0000
    23 C23     18.7344  33.4105  10.7469   C.3       1 RES1   0.0000
    24 C24     18.4822  33.7697   9.1623   C.3       1 RES1   0.0000
    25 C25     19.0237  34.7889  10.0985   C.3       1 RES1   0.0000
    26 S26     21.8386  32.3030  11.4124   S.o2      1 RES1   0.0000
    27 O27     22.5621  32.3088  12.6464   O.2       1 RES1   0.0000
    28 O28     21.7433  33.6123  10.8282   O.2       1 RES1   0.0000
    29 C29     22.6197  31.3177  10.3303   C.2       1 RES1   0.0000
    30 C30     23.3548  30.2131  10.7633   C.2       1 RES1   0.0000
    31 C31     24.0016  29.3896   9.8408   C.2       1 RES1   0.0000
    32 C32     23.9222  29.6716   8.4850   C.2       1 RES1   0.0000
    33 C33     23.1796  30.7711   8.0384   C.2       1 RES1   0.0000
    34 O34     23.0611  31.1029   6.7032   O.3       1 RES1   0.0000
    35 C35     23.6748  30.3704   5.6495   C.3       1 RES1   0.0000
    36 C36     22.5397  31.5851   8.9670   C.2       1 RES1   0.0000
@<TRIPOS>BOND
     1     1     2    1
     2     2     3   am
     3     3     4    2
     4     3     5    1
     5     5     6    1
     6     6     7    1
     7     7     8    2
     8     7     9   am
     9     9    10    1
    10    10    11    1
    11    11    12    1
    12    12    13    2
    13    13    14    1
    14    14    15    2
    15    15    16    1
    16    16    17    2
    17    10    18    1
    18    18    19    1
    19    18    20    1
    20    20    21    1
    21    21    22    1
    22    22    23    1
    23    23    24    1
    24    24    25    1
    25    21    26    1
    26    26    27    2
    27    26    28    2
    28    26    29    1
    29    29    30    2
    30    30    31    1
    31    31    32    2
    32    32    33    1
    33    33    34    1
    34    34    35    1
    35    33    36    2
    36    17    12    1
    37    25    23    1
    38    36    29    1
@<TRIPOS>SUBSTRUCTURE
     1 RES1        1 GROUP             0 ****  ****    0  
@<TRIPOS>MOLECULE
ligand_48
    36    38     1     0     0
SMALL
NO_CHARGES
****
Generated from the CSD

@<TRIPOS>ATOM
     1 C1      23.9822  24.7043   8.8458   C.3       1 RES1   0.0000
     2 N2      22.9992  25.5870   9.4524   N.am      1 RES1   0.0000
     3 C3      22.8622  25.6941  10.7755   C.2       1 RES1   0.0000
     4 O4      23.5639  25.0545  11.5695   O.2       1 RES1   0.0000
     5 C5      21.8015  26.6362  11.2861   C.3       1 RES1   0.0000
     6 C6      21.8238  26.5905  12.7948   C.3       1 RES1   0.0000
     7 C7      20.7709  27.5090  13.3384   C.2       1 RES1   0.0000
     8 O8      19.6326  27.3377  12.9421   O.2       1 RES1   0.0000
     9 N9      21.1042  28.4880  14.1894   N.am      1 RES1   0.0000
    10 C10     20.1398  29.4531  14.7416   C.3       1 RES1   0.0000
    11 C11     20.4698  29.7130  16.2132   C.3       1 RES1   0.0000
    12 C12     20.2626  28.4379  16.9928   C.2       1 RES1   0.0000
    13 C13     19.0212  28.1510  17.5595   C.2       1 RES1   0.0000
    14 C14     18.8242  26.9928  18.2918   C.2       1 RES1   0.0000
    15 C15     19.8758  26.1040  18.4624   C.2       1 RES1   0.0000
    16 C16     21.1059  26.3973  17.9186   C.2       1 RES1   0.0000
    17 C17     21.3054  27.5451  17.1727   C.2       1 RES1   0.0000
    18 C18     20.1437  30.7398  13.8937   C.3       1 RES1   0.0000
    19 O19     19.0048  31.5319  14.2268   O.3       1 RES1   0.0000
    20 C20     20.1821  30.5011  12.3640   C.3       1 RES1   0.0000
    21 N21     20.2922  31.8364  11.7304   N.3       1 RES1   0.0000
    22 C22     19.3623  32.0165  10.5939   C.3       1 RES1   0.0000
    23 C23     18.6919  33.3854  10.7401   C.3       1 RES1   0.0000
    24 C24     18.4389  33.7389   9.1544   C.3       1 RES1   0.0000
    25 C25     18.9611  34.7676  10.0911   C.3       1 RES1   0.0000
    26 S26     21.8114  32.3292  11.4155   S.o2      1 RES1   0.0000
    27 O27     22.5308  32.3494  12.6517   O.2       1 RES1   0.0000
    28 O28     21.6961  33.6357  10.8285   O.2       1 RES1   0.0000
    29 C29     22.6122  31.3551  10.3377   C.2       1 RES1   0.0000
    30 C30     22.5507  31.5981   8.9647   C.2       1 RES1   0.0000
    31 C31     23.2347  30.7736   8.0703   C.2       1 RES1   0.0000
    32 C32     23.9751  29.7007   8.5443   C.2       1 RES1   0.0000
    33 C33     24.0523  29.4533   9.9200   C.2       1 RES1   0.0000
    34 O34     24.7735  28.4035  10.4534   O.3       1 RES1   0.0000
    35 C35     25.5104  27.4724   9.6701   C.3       1 RES1   0.0000
    36 C36     23.3659  30.2813  10.8019   C.2       1 RES1   0.0000
@<TRIPOS>BOND
     1     1     2    1
     2     2     3   am
     3     3     4    2
     4     3     5    1
     5     5     6    1
     6     6     7    1
     7     7     8    2
     8     7     9   am
     9     9    10    1
    10    10    11    1
    11    11    12    1
    12    12    13    2
    13    13    14    1
    14    14    15    2
    15    15    16    1
    16    16    17    2
    17    10    18    1
    18    18    19    1
    19    18    20    1
    20    20    21    1
    21    21    22    1
    22    22    23    1
    23    23    24    1
    24    24    25    1
    25    21    26    1
    26    26    27    2
    27    26    28    2
    28    26    29    1
    29    29    30    2
    30    30    31    1
    31    31    32    2
    32    32    33    1
    33    33    34    1
    34    34    35    1
    35    33    36    2
    36    17    12    1
    37    25    23    1
    38    36    29    1
@<TRIPOS>SUBSTRUCTURE
     1 RES1        1 GROUP             0 ****  ****    0  
@<TRIPOS>MOLECULE
ligand_49
    36    38     1     0     0
SMALL
NO_CHARGES
****
Generated from the CSD

@<TRIPOS>ATOM
     1 C1      24.0023  24.9597   8.7016   C.3       1 RES1   0.0000
     2 N2      22.9980  25.7945   9.3402   N.am      1 RES1   0.0000
     3 C3      22.8713  25.8632  10.6669   C.2       1 RES1   0.0000
     4 O4      23.5983  25.2229  11.4371   O.2       1 RES1   0.0000
     5 C5      21.7903  26.7619  11.2120   C.3       1 RES1   0.0000
     6 C6      21.8309  26.6797  12.7187   C.3       1 RES1   0.0000
     7 C7      20.7664  27.5633  13.2964   C.2       1 RES1   0.0000
     8 O8      20.0717  28.1769  12.5070   O.2       1 RES1   0.0000
     9 N9      20.6353  27.6816  14.6240   N.am      1 RES1   0.0000
    10 C10     19.6460  28.5580  15.2718   C.3       1 RES1   0.0000
    11 C11     18.8090  27.7367  16.2551   C.3       1 RES1   0.0000
    12 C12     17.5546  28.5057  16.5898   C.2       1 RES1   0.0000
    13 C13     16.6523  28.8555  15.5858   C.2       1 RES1   0.0000
    14 C14     15.5071  29.5762  15.8784   C.2       1 RES1   0.0000
    15 C15     15.2523  29.9536  17.1889   C.2       1 RES1   0.0000
    16 C16     16.1531  29.6241  18.1763   C.2       1 RES1   0.0000
    17 C17     17.2914  28.8908  17.8933   C.2       1 RES1   0.0000
    18 C18     20.3608  29.7457  15.9448   C.3       1 RES1   0.0000
    19 O19     19.3952  30.5876  16.5728   O.3       1 RES1   0.0000
    20 C20     21.2439  30.5881  14.9914   C.3       1 RES1   0.0000
    21 N21     21.9417  31.5877  15.8342   N.3       1 RES1   0.0000
    22 C22     21.8976  32.9540  15.2685   C.3       1 RES1   0.0000
    23 C23     21.5284  33.9236  16.3947   C.3       1 RES1   0.0000
    24 C24     22.3135  35.2690  15.8683   C.3       1 RES1   0.0000
    25 C25     22.3694  34.8634  17.2968   C.3       1 RES1   0.0000
    26 S26     23.4191  31.1435  16.3539   S.o2      1 RES1   0.0000
    27 O27     23.2748  29.9333  17.1027   O.2       1 RES1   0.0000
    28 O28     23.9051  32.2300  17.1588   O.2       1 RES1   0.0000
    29 C29     24.5049  30.8946  15.1246   C.2       1 RES1   0.0000
    30 C30     24.6498  29.6374  14.5360   C.2       1 RES1   0.0000
    31 C31     25.5631  29.4445  13.4985   C.2       1 RES1   0.0000
    32 C32     26.3387  30.5042  13.0520   C.2       1 RES1   0.0000
    33 C33     26.1947  31.7719  13.6281   C.2       1 RES1   0.0000
    34 O34     26.9355  32.8660  13.2268   O.3       1 RES1   0.0000
    35 C35     27.9143  32.8223  12.1955   C.3       1 RES1   0.0000
    36 C36     25.2818  31.9523  14.6617   C.2       1 RES1   0.0000
@<TRIPOS>BOND
     1     1     2    1
     2     2     3   am
     3     3     4    2
     4     3     5    1
     5     5     6    1
     6     6     7    1
     7     7     8    2
     8     7     9   am
     9     9    10    1
    10    10    11    1
    11    11    12    1
    12    12    13    2
    13    13    14    1
    14    14    15    2
    15    15    16    1
    16    16    17    2
    17    10    18    1
    18    18    19    1
    19    18    20    1
    20    20    21    1
    21    21    22    1
    22    22    23    1
    23    23    24    1
    24    24    25    1
    25    21    26    1
    26    26    27    2
    27    26    28    2
    28    26    29    1
    29    29    30    2
    30    30    31    1
    31    31    32    2
    32    32    33    1
    33    33    34    1
    34    34    35    1
    35    33    36    2
    36    17    12    1
    37    25    23    1
    38    36    29    1
@<TRIPOS>SUBSTRUCTURE
     1 RES1        1 GROUP             0 ****  ****    0  
@<TRIPOS>MOLECULE
ligand_50
    36    38     1     0     0
SMALL
NO_CHARGES
****
Generated from the CSD

@<TRIPOS>ATOM
     1 C1      24.0023  24.9597   8.7016   C.3       1 RES1   0.0000
     2 N2      22.9980  25.7945   9.3402   N.am      1 RES1   0.0000
     3 C3      22.8713  25.8632  10.6669   C.2       1 RES1   0.0000
     4 O4      23.5983  25.2229  11.4371   O.2       1 RES1   0.0000
     5 C5      21.7903  26.7619  11.2120   C.3       1 RES1   0.0000
     6 C6      21.8309  26.6797  12.7187   C.3       1 RES1   0.0000
     7 C7      20.7664  27.5633  13.2964   C.2       1 RES1   0.0000
     8 O8      20.0717  28.1769  12.5070   O.2       1 RES1   0.0000
     9 N9      20.6353  27.6816  14.6240   N.am      1 RES1   0.0000
    10 C10     19.6460  28.5580  15.2718   C.3       1 RES1   0.0000
    11 C11     18.8090  27.7367  16.2551   C.3       1 RES1   0.0000
    12 C12     17.5546  28.5057  16.5898   C.2       1 RES1   0.0000
    13 C13     16.6523  28.8555  15.5858   C.2       1 RES1   0.0000
    14 C14     15.5071  29.5762  15.8784   C.2       1 RES1   0.0000
    15 C15     15.2523  29.9536  17.1889   C.2       1 RES1   0.0000
    16 C16     16.1531  29.6241  18.1763   C.2       1 RES1   0.0000
    17 C17     17.2914  28.8908  17.8933   C.2       1 RES1   0.0000
    18 C18     20.3608  29.7457  15.9448   C.3       1 RES1   0.0000
    19 O19     19.3952  30.5876  16.5728   O.3       1 RES1   0.0000
    20 C20     21.2439  30.5881  14.9914   C.3       1 RES1   0.0000
    21 N21     21.9417  31.5877  15.8342   N.3       1 RES1   0.0000
    22 C22     21.8976  32.9540  15.2685   C.3       1 RES1   0.0000
    23 C23     21.5284  33.9236  16.3947   C.3       1 RES1   0.0000
    24 C24     22.3135  35.2690  15.8683   C.3       1 RES1   0.0000
    25 C25     22.3694  34.8634  17.2968   C.3       1 RES1   0.0000
    26 S26     23.4191  31.1435  16.3539   S.o2      1 RES1   0.0000
    27 O27     23.2748  29.9333  17.1027   O.2       1 RES1   0.0000
    28 O28     23.9051  32.2300  17.1588   O.2       1 RES1   0.0000
    29 C29     24.5049  30.8946  15.1246   C.2       1 RES1   0.0000
    30 C30     25.3020  31.9358  14.6467   C.2       1 RES1   0.0000
    31 C31     26.2155  31.7100  13.6160   C.2       1 RES1   0.0000
    32 C32     26.3295  30.4463  13.0556   C.2       1 RES1   0.0000
    33 C33     25.5423  29.3921  13.5336   C.2       1 RES1   0.0000
    34 O34     25.6105  28.1125  13.0189   O.3       1 RES1   0.0000
    35 C35     26.4794  27.7327  11.9585   C.3       1 RES1   0.0000
    36 C36     24.6349  29.6290  14.5607   C.2       1 RES1   0.0000
@<TRIPOS>BOND
     1     1     2    1
     2     2     3   am
     3     3     4    2
     4     3     5    1
     5     5     6    1
     6     6     7    1
     7     7     8    2
     8     7     9   am
     9     9    10    1
    10    10    11    1
    11    11    12    1
    12    12    13    2
    13    13    14    1
    14    14    15    2
    15    15    16    1
    16    16    17    2
    17    10    18    1
    18    18    19    1
    19    18    20    1
    20    20    21    1
    21    21    22    1
    22    22    23    1
    23    23    24    1
    24    24    25    1
    25    21    26    1
    26    26    27    2
    27    26    28    2
    28    26    29    1
    29    29    30    2
    30    30    31    1
    31    31    32    2
    32    32    33    1
    33    33    34    1
    34    34    35    1
    35    33    36    2
    36    17    12    1
    37    25    23    1
    38    36    29    1
@<TRIPOS>SUBSTRUCTURE
     1 RES1        1 GROUP             0 ****  ****    0  
@<TRIPOS>MOLECULE
ligand_51
    36    38     1     0     0
SMALL
NO_CHARGES
****
Generated from the CSD

@<TRIPOS>ATOM
     1 C1      24.0041  24.9570   8.7042   C.3       1 RES1   0.0000
     2 N2      22.9997  25.7922   9.3423   N.am      1 RES1   0.0000
     3 C3      22.8726  25.8613  10.6689   C.2       1 RES1   0.0000
     4 O4      23.5991  25.2210  11.4396   O.2       1 RES1   0.0000
     5 C5      21.7915  26.7603  11.2133   C.3       1 RES1   0.0000
     6 C6      21.8315  26.6786  12.7201   C.3       1 RES1   0.0000
     7 C7      20.7669  27.5625  13.2971   C.2       1 RES1   0.0000
     8 O8      20.0727  28.1760  12.5073   O.2       1 RES1   0.0000
     9 N9      20.6353  27.6812  14.6247   N.am      1 RES1   0.0000
    10 C10     19.6460  28.5580  15.2718   C.3       1 RES1   0.0000
    11 C11     18.8084  27.7371  16.2549   C.3       1 RES1   0.0000
    12 C12     17.5542  28.5066  16.5892   C.2       1 RES1   0.0000
    13 C13     16.6529  28.8576  15.5848   C.2       1 RES1   0.0000
    14 C14     15.5079  29.5788  15.8770   C.2       1 RES1   0.0000
    15 C15     15.2524  29.9556  17.1876   C.2       1 RES1   0.0000
    16 C16     16.1523  29.6249  18.1754   C.2       1 RES1   0.0000
    17 C17     17.2903  28.8912  17.8928   C.2       1 RES1   0.0000
    18 C18     20.3608  29.7457  15.9448   C.3       1 RES1   0.0000
    19 O19     19.3952  30.5876  16.5728   O.3       1 RES1   0.0000
    20 C20     21.2439  30.5881  14.9914   C.3       1 RES1   0.0000
    21 N21     21.9738  31.5600  15.8395   N.3       1 RES1   0.0000
    22 C22     21.1969  32.7892  16.1115   C.3       1 RES1   0.0000
    23 C23     21.2831  33.0843  17.6116   C.3       1 RES1   0.0000
    24 C24     21.1615  34.7236  17.5773   C.3       1 RES1   0.0000
    25 C25     22.1598  34.0511  18.4487   C.3       1 RES1   0.0000
    26 S26     23.5136  31.8457  15.3951   S.o2      1 RES1   0.0000
    27 O27     24.2142  30.5988  15.4149   O.2       1 RES1   0.0000
    28 O28     24.0392  32.7836  16.3485   O.2       1 RES1   0.0000
    29 C29     23.6516  32.5215  13.8863   C.2       1 RES1   0.0000
    30 C30     23.7746  31.7226  12.7485   C.2       1 RES1   0.0000
    31 C31     23.8836  32.3053  11.4850   C.2       1 RES1   0.0000
    32 C32     23.8777  33.6863  11.3559   C.2       1 RES1   0.0000
    33 C33     23.7448  34.4974  12.4891   C.2       1 RES1   0.0000
    34 O34     23.7303  35.8767  12.4260   O.3       1 RES1   0.0000
    35 C35     23.8478  36.6135  11.2149   C.3       1 RES1   0.0000
    36 C36     23.6374  33.9056  13.7432   C.2       1 RES1   0.0000
@<TRIPOS>BOND
     1     1     2    1
     2     2     3   am
     3     3     4    2
     4     3     5    1
     5     5     6    1
     6     6     7    1
     7     7     8    2
     8     7     9   am
     9     9    10    1
    10    10    11    1
    11    11    12    1
    12    12    13    2
    13    13    14    1
    14    14    15    2
    15    15    16    1
    16    16    17    2
    17    10    18    1
    18    18    19    1
    19    18    20    1
    20    20    21    1
    21    21    22    1
    22    22    23    1
    23    23    24    1
    24    24    25    1
    25    21    26    1
    26    26    27    2
    27    26    28    2
    28    26    29    1
    29    29    30    2
    30    30    31    1
    31    31    32    2
    32    32    33    1
    33    33    34    1
    34    34    35    1
    35    33    36    2
    36    17    12    1
    37    25    23    1
    38    36    29    1
@<TRIPOS>SUBSTRUCTURE
     1 RES1        1 GROUP             0 ****  ****    0  
@<TRIPOS>MOLECULE
ligand_52
    36    38     1     0     0
SMALL
NO_CHARGES
****
Generated from the CSD

@<TRIPOS>ATOM
     1 C1      24.0041  24.9570   8.7042   C.3       1 RES1   0.0000
     2 N2      22.9997  25.7922   9.3423   N.am      1 RES1   0.0000
     3 C3      22.8726  25.8613  10.6689   C.2       1 RES1   0.0000
     4 O4      23.5991  25.2210  11.4396   O.2       1 RES1   0.0000
     5 C5      21.7915  26.7603  11.2133   C.3       1 RES1   0.0000
     6 C6      21.8315  26.6786  12.7201   C.3       1 RES1   0.0000
     7 C7      20.7669  27.5625  13.2971   C.2       1 RES1   0.0000
     8 O8      20.0727  28.1760  12.5073   O.2       1 RES1   0.0000
     9 N9      20.6353  27.6812  14.6247   N.am      1 RES1   0.0000
    10 C10     19.6460  28.5580  15.2718   C.3       1 RES1   0.0000
    11 C11     18.8084  27.7371  16.2549   C.3       1 RES1   0.0000
    12 C12     17.5542  28.5066  16.5892   C.2       1 RES1   0.0000
    13 C13     16.6529  28.8576  15.5848   C.2       1 RES1   0.0000
    14 C14     15.5079  29.5788  15.8770   C.2       1 RES1   0.0000
    15 C15     15.2524  29.9556  17.1876   C.2       1 RES1   0.0000
    16 C16     16.1523  29.6249  18.1754   C.2       1 RES1   0.0000
    17 C17     17.2903  28.8912  17.8928   C.2       1 RES1   0.0000
    18 C18     20.3608  29.7457  15.9448   C.3       1 RES1   0.0000
    19 O19     19.3952  30.5876  16.5728   O.3       1 RES1   0.0000
    20 C20     21.2439  30.5881  14.9914   C.3       1 RES1   0.0000
    21 N21     21.9738  31.5600  15.8395   N.3       1 RES1   0.0000
    22 C22     21.1969  32.7892  16.1115   C.3       1 RES1   0.0000
    23 C23     21.2831  33.0843  17.6116   C.3       1 RES1   0.0000
    24 C24     21.1615  34.7236  17.5773   C.3       1 RES1   0.0000
    25 C25     22.1598  34.0511  18.4487   C.3       1 RES1   0.0000
    26 S26     23.5136  31.8457  15.3951   S.o2      1 RES1   0.0000
    27 O27     24.2142  30.5988  15.4149   O.2       1 RES1   0.0000
    28 O28     24.0392  32.7836  16.3485   O.2       1 RES1   0.0000
    29 C29     23.6516  32.5215  13.8863   C.2       1 RES1   0.0000
    30 C30     23.6482  33.9066  13.7151   C.2       1 RES1   0.0000
    31 C31     23.7712  34.4609  12.4402   C.2       1 RES1   0.0000
    32 C32     23.8901  33.6335  11.3334   C.2       1 RES1   0.0000
    33 C33     23.9048  32.2429  11.4940   C.2       1 RES1   0.0000
    34 O34     24.0220  31.3671  10.4329   O.3       1 RES1   0.0000
    35 C35     24.1393  31.7801   9.0767   C.3       1 RES1   0.0000
    36 C36     23.7809  31.7018  12.7692   C.2       1 RES1   0.0000
@<TRIPOS>BOND
     1     1     2    1
     2     2     3   am
     3     3     4    2
     4     3     5    1
     5     5     6    1
     6     6     7    1
     7     7     8    2
     8     7     9   am
     9     9    10    1
    10    10    11    1
    11    11    12    1
    12    12    13    2
    13    13    14    1
    14    14    15    2
    15    15    16    1
    16    16    17    2
    17    10    18    1
    18    18    19    1
    19    18    20    1
    20    20    21    1
    21    21    22    1
    22    22    23    1
    23    23    24    1
    24    24    25    1
    25    21    26    1
    26    26    27    2
    27    26    28    2
    28    26    29    1
    29    29    30    2
    30    30    31    1
    31    31    32    2
    32    32    33    1
    33    33    34    1
    34    34    35    1
    35    33    36    2
    36    17    12    1
    37    25    23    1
    38    36    29    1
@<TRIPOS>SUBSTRUCTURE
     1 RES1        1 GROUP             0 ****  ****    0  
@<TRIPOS>MOLECULE
ligand_53
    36    38     1     0     0
SMALL
NO_CHARGES
****
Generated from the CSD

@<TRIPOS>ATOM
     1 C1      24.1109  24.7999   8.8660   C.3       1 RES1   0.0000
     2 N2      23.1029  25.6579   9.4670   N.am      1 RES1   0.0000
     3 C3      22.9450  25.7489  10.7890   C.2       1 RES1   0.0000
     4 O4      23.6440  25.1108  11.5865   O.2       1 RES1   0.0000
     5 C5      21.8635  26.6703  11.2936   C.3       1 RES1   0.0000
     6 C6      21.8661  26.6110  12.8020   C.3       1 RES1   0.0000
     7 C7      20.8002  27.5177  13.3398   C.2       1 RES1   0.0000
     8 O8      20.8342  28.6807  12.9817   O.2       1 RES1   0.0000
     9 N9      19.8893  27.0497  14.2030   N.am      1 RES1   0.0000
    10 C10     18.8371  27.8808  14.8099   C.3       1 RES1   0.0000
    11 C11     17.5015  27.5887  14.1223   C.3       1 RES1   0.0000
    12 C12     17.5876  28.0280  12.6814   C.2       1 RES1   0.0000
    13 C13     18.0258  27.1414  11.6983   C.2       1 RES1   0.0000
    14 C14     18.1258  27.5385  10.3759   C.2       1 RES1   0.0000
    15 C15     17.7829  28.8358  10.0233   C.2       1 RES1   0.0000
    16 C16     17.3685  29.7157  10.9974   C.2       1 RES1   0.0000
    17 C17     17.2515  29.3210  12.3180   C.2       1 RES1   0.0000
    18 C18     18.7903  27.6372  16.3308   C.3       1 RES1   0.0000
    19 O19     17.7378  28.4113  16.9040   O.3       1 RES1   0.0000
    20 C20     20.1178  27.9355  17.0705   C.3       1 RES1   0.0000
    21 N21     19.7944  27.9852  18.5160   N.3       1 RES1   0.0000
    22 C22     20.7979  28.7290  19.3087   C.3       1 RES1   0.0000
    23 C23     20.0516  29.6726  20.2560   C.3       1 RES1   0.0000
    24 C24     21.1264  29.7214  21.4993   C.3       1 RES1   0.0000
    25 C25     19.6697  29.5781  21.7558   C.3       1 RES1   0.0000
    26 S26     19.3646  26.5612  19.1776   S.o2      1 RES1   0.0000
    27 O27     18.1271  26.1579  18.5843   O.2       1 RES1   0.0000
    28 O28     19.2431  26.7953  20.5901   O.2       1 RES1   0.0000
    29 C29     20.4893  25.3624  18.9546   C.2       1 RES1   0.0000
    30 C30     20.4409  24.5293  17.8358   C.2       1 RES1   0.0000
    31 C31     21.3977  23.5289  17.6585   C.2       1 RES1   0.0000
    32 C32     22.3998  23.3534  18.6013   C.2       1 RES1   0.0000
    33 C33     22.4641  24.1895  19.7222   C.2       1 RES1   0.0000
    34 O34     23.4373  24.0665  20.6941   O.3       1 RES1   0.0000
    35 C35     24.4682  23.0868  20.6605   C.3       1 RES1   0.0000
    36 C36     21.5049  25.1828  19.8888   C.2       1 RES1   0.0000
@<TRIPOS>BOND
     1     1     2    1
     2     2     3   am
     3     3     4    2
     4     3     5    1
     5     5     6    1
     6     6     7    1
     7     7     8    2
     8     7     9   am
     9     9    10    1
    10    10    11    1
    11    11    12    1
    12    12    13    2
    13    13    14    1
    14    14    15    2
    15    15    16    1
    16    16    17    2
    17    10    18    1
    18    18    19    1
    19    18    20    1
    20    20    21    1
    21    21    22    1
    22    22    23    1
    23    23    24    1
    24    24    25    1
    25    21    26    1
    26    26    27    2
    27    26    28    2
    28    26    29    1
    29    29    30    2
    30    30    31    1
    31    31    32    2
    32    32    33    1
    33    33    34    1
    34    34    35    1
    35    33    36    2
    36    17    12    1
    37    25    23    1
    38    36    29    1
@<TRIPOS>SUBSTRUCTURE
     1 RES1        1 GROUP             0 ****  ****    0  
@<TRIPOS>MOLECULE
ligand_54
    36    38     1     0     0
SMALL
NO_CHARGES
****
Generated from the CSD

@<TRIPOS>ATOM
     1 C1      24.1109  24.7999   8.8660   C.3       1 RES1   0.0000
     2 N2      23.1029  25.6579   9.4670   N.am      1 RES1   0.0000
     3 C3      22.9450  25.7489  10.7890   C.2       1 RES1   0.0000
     4 O4      23.6440  25.1108  11.5865   O.2       1 RES1   0.0000
     5 C5      21.8635  26.6703  11.2936   C.3       1 RES1   0.0000
     6 C6      21.8661  26.6110  12.8020   C.3       1 RES1   0.0000
     7 C7      20.8002  27.5177  13.3398   C.2       1 RES1   0.0000
     8 O8      20.8342  28.6807  12.9817   O.2       1 RES1   0.0000
     9 N9      19.8893  27.0497  14.2030   N.am      1 RES1   0.0000
    10 C10     18.8371  27.8808  14.8099   C.3       1 RES1   0.0000
    11 C11     17.5015  27.5887  14.1223   C.3       1 RES1   0.0000
    12 C12     17.5876  28.0280  12.6814   C.2       1 RES1   0.0000
    13 C13     17.2299  29.3255  12.3166   C.2       1 RES1   0.0000
    14 C14     17.2879  29.7343  10.9952   C.2       1 RES1   0.0000
    15 C15     17.7100  28.8416  10.0207   C.2       1 RES1   0.0000
    16 C16     18.0449  27.5554  10.3793   C.2       1 RES1   0.0000
    17 C17     18.0040  27.1450  11.6996   C.2       1 RES1   0.0000
    18 C18     18.7903  27.6372  16.3308   C.3       1 RES1   0.0000
    19 O19     17.7378  28.4113  16.9040   O.3       1 RES1   0.0000
    20 C20     20.1178  27.9355  17.0705   C.3       1 RES1   0.0000
    21 N21     19.7944  27.9852  18.5160   N.3       1 RES1   0.0000
    22 C22     20.7979  28.7290  19.3087   C.3       1 RES1   0.0000
    23 C23     20.0516  29.6726  20.2560   C.3       1 RES1   0.0000
    24 C24     21.1264  29.7214  21.4993   C.3       1 RES1   0.0000
    25 C25     19.6697  29.5781  21.7558   C.3       1 RES1   0.0000
    26 S26     19.3646  26.5612  19.1776   S.o2      1 RES1   0.0000
    27 O27     18.1271  26.1579  18.5843   O.2       1 RES1   0.0000
    28 O28     19.2431  26.7953  20.5901   O.2       1 RES1   0.0000
    29 C29     20.4893  25.3624  18.9546   C.2       1 RES1   0.0000
    30 C30     21.5135  25.1553  19.8799   C.2       1 RES1   0.0000
    31 C31     22.4491  24.1388  19.6820   C.2       1 RES1   0.0000
    32 C32     22.3684  23.3323  18.5565   C.2       1 RES1   0.0000
    33 C33     21.3395  23.5242  17.6268   C.2       1 RES1   0.0000
    34 O34     21.2044  22.7540  16.4887   O.3       1 RES1   0.0000
    35 C35     22.0874  21.6937  16.1428   C.3       1 RES1   0.0000
    36 C36     20.4131  24.5407  17.8341   C.2       1 RES1   0.0000
@<TRIPOS>BOND
     1     1     2    1
     2     2     3   am
     3     3     4    2
     4     3     5    1
     5     5     6    1
     6     6     7    1
     7     7     8    2
     8     7     9   am
     9     9    10    1
    10    10    11    1
    11    11    12    1
    12    12    13    2
    13    13    14    1
    14    14    15    2
    15    15    16    1
    16    16    17    2
    17    10    18    1
    18    18    19    1
    19    18    20    1
    20    20    21    1
    21    21    22    1
    22    22    23    1
    23    23    24    1
    24    24    25    1
    25    21    26    1
    26    26    27    2
    27    26    28    2
    28    26    29    1
    29    29    30    2
    30    30    31    1
    31    31    32    2
    32    32    33    1
    33    33    34    1
    34    34    35    1
    35    33    36    2
    36    17    12    1
    37    25    23    1
    38    36    29    1
@<TRIPOS>SUBSTRUCTURE
     1 RES1        1 GROUP             0 ****  ****    0  
@<TRIPOS>MOLECULE
ligand_55
    36    38     1     0     0
SMALL
NO_CHARGES
****
Generated from the CSD

@<TRIPOS>ATOM
     1 C1      24.1194  24.8240   8.8612   C.3       1 RES1   0.0000
     2 N2      23.1088  25.6780   9.4635   N.am      1 RES1   0.0000
     3 C3      22.9509  25.7669  10.7856   C.2       1 RES1   0.0000
     4 O4      23.6522  25.1301  11.5822   O.2       1 RES1   0.0000
     5 C5      21.8666  26.6843  11.2916   C.3       1 RES1   0.0000
     6 C6      21.8698  26.6231  12.7999   C.3       1 RES1   0.0000
     7 C7      20.8011  27.5257  13.3391   C.2       1 RES1   0.0000
     8 O8      20.8313  28.6893  12.9824   O.2       1 RES1   0.0000
     9 N9      19.8919  27.0538  14.2020   N.am      1 RES1   0.0000
    10 C10     18.8371  27.8808  14.8099   C.3       1 RES1   0.0000
    11 C11     17.4742  27.2357  14.5486   C.3       1 RES1   0.0000
    12 C12     17.2052  27.2469  13.0639   C.2       1 RES1   0.0000
    13 C13     17.6082  26.1769  12.2656   C.2       1 RES1   0.0000
    14 C14     17.3826  26.1841  10.8998   C.2       1 RES1   0.0000
    15 C15     16.7446  27.2697  10.3173   C.2       1 RES1   0.0000
    16 C16     16.3641  28.3337  11.1034   C.2       1 RES1   0.0000
    17 C17     16.5725  28.3262  12.4709   C.2       1 RES1   0.0000
    18 C18     19.1258  28.0765  16.3109   C.3       1 RES1   0.0000
    19 O19     17.9421  28.5268  16.9679   O.3       1 RES1   0.0000
    20 C20     20.2932  29.0463  16.6196   C.3       1 RES1   0.0000
    21 N21     20.3613  29.1698  18.0949   N.3       1 RES1   0.0000
    22 C22     19.9080  27.9505  18.7996   C.3       1 RES1   0.0000
    23 C23     20.8190  27.7350  20.0114   C.3       1 RES1   0.0000
    24 C24     19.7885  26.9037  20.9863   C.3       1 RES1   0.0000
    25 C25     20.6371  27.9964  21.5288   C.3       1 RES1   0.0000
    26 S26     19.7381  30.5452  18.7032   S.o2      1 RES1   0.0000
    27 O27     20.4278  31.6434  18.0996   O.2       1 RES1   0.0000
    28 O28     19.9433  30.4850  20.1241   O.2       1 RES1   0.0000
    29 C29     18.1103  30.7108  18.4299   C.2       1 RES1   0.0000
    30 C30     17.6344  31.3734  17.2974   C.2       1 RES1   0.0000
    31 C31     16.2620  31.4997  17.0777   C.2       1 RES1   0.0000
    32 C32     15.3624  30.9715  17.9918   C.2       1 RES1   0.0000
    33 C33     15.8281  30.2961  19.1261   C.2       1 RES1   0.0000
    34 O34     14.9838  29.7472  20.0710   O.3       1 RES1   0.0000
    35 C35     13.5648  29.8088  19.9934   C.3       1 RES1   0.0000
    36 C36     17.1980  30.1769  19.3350   C.2       1 RES1   0.0000
@<TRIPOS>BOND
     1     1     2    1
     2     2     3   am
     3     3     4    2
     4     3     5    1
     5     5     6    1
     6     6     7    1
     7     7     8    2
     8     7     9   am
     9     9    10    1
    10    10    11    1
    11    11    12    1
    12    12    13    2
    13    13    14    1
    14    14    15    2
    15    15    16    1
    16    16    17    2
    17    10    18    1
    18    18    19    1
    19    18    20    1
    20    20    21    1
    21    21    22    1
    22    22    23    1
    23    23    24    1
    24    24    25    1
    25    21    26    1
    26    26    27    2
    27    26    28    2
    28    26    29    1
    29    29    30    2
    30    30    31    1
    31    31    32    2
    32    32    33    1
    33    33    34    1
    34    34    35    1
    35    33    36    2
    36    17    12    1
    37    25    23    1
    38    36    29    1
@<TRIPOS>SUBSTRUCTURE
     1 RES1        1 GROUP             0 ****  ****    0  
@<TRIPOS>MOLECULE
ligand_56
    36    38     1     0     0
SMALL
NO_CHARGES
****
Generated from the CSD

@<TRIPOS>ATOM
     1 C1      24.1117  24.8006   8.8661   C.3       1 RES1   0.0000
     2 N2      23.1039  25.6588   9.4671   N.am      1 RES1   0.0000
     3 C3      22.9455  25.7494  10.7891   C.2       1 RES1   0.0000
     4 O4      23.6440  25.1107  11.5866   O.2       1 RES1   0.0000
     5 C5      21.8642  26.6711  11.2937   C.3       1 RES1   0.0000
     6 C6      21.8663  26.6112  12.8020   C.3       1 RES1   0.0000
     7 C7      20.8006  27.5181  13.3398   C.2       1 RES1   0.0000
     8 O8      20.1344  28.1292  12.5244   O.2       1 RES1   0.0000
     9 N9      20.6384  27.6582  14.6619   N.am      1 RES1   0.0000
    10 C10     19.6460  28.5580  15.2718   C.3       1 RES1   0.0000
    11 C11     18.7733  27.7633  16.2459   C.3       1 RES1   0.0000
    12 C12     17.9767  26.7446  15.4686   C.2       1 RES1   0.0000
    13 C13     16.7178  27.0687  14.9640   C.2       1 RES1   0.0000
    14 C14     15.9703  26.1367  14.2646   C.2       1 RES1   0.0000
    15 C15     16.4818  24.8632  14.0608   C.2       1 RES1   0.0000
    16 C16     17.7165  24.5385  14.5755   C.2       1 RES1   0.0000
    17 C17     18.4751  25.4695  15.2618   C.2       1 RES1   0.0000
    18 C18     20.3608  29.7457  15.9448   C.3       1 RES1   0.0000
    19 O19     21.0394  29.2912  17.1145   O.3       1 RES1   0.0000
    20 C20     19.4333  30.9313  16.3089   C.3       1 RES1   0.0000
    21 N21     20.2753  31.9251  17.0160   N.3       1 RES1   0.0000
    22 C22     21.6877  31.9049  16.5762   C.3       1 RES1   0.0000
    23 C23     22.1902  33.3504  16.5232   C.3       1 RES1   0.0000
    24 C24     23.7961  33.0927  16.7641   C.3       1 RES1   0.0000
    25 C25     23.0861  34.1920  17.4682   C.3       1 RES1   0.0000
    26 S26     20.0955  31.9577  18.6336   S.o2      1 RES1   0.0000
    27 O27     18.7170  32.2146  18.9164   O.2       1 RES1   0.0000
    28 O28     20.9562  33.0040  19.1122   O.2       1 RES1   0.0000
    29 C29     20.5478  30.5456  19.3775   C.2       1 RES1   0.0000
    30 C30     19.6220  29.5282  19.6141   C.2       1 RES1   0.0000
    31 C31     20.0185  28.3432  20.2355   C.2       1 RES1   0.0000
    32 C32     21.3379  28.1746  20.6286   C.2       1 RES1   0.0000
    33 C33     22.2774  29.1841  20.3874   C.2       1 RES1   0.0000
    34 O34     23.6045  29.0757  20.7529   O.3       1 RES1   0.0000
    35 C35     24.1535  27.9380  21.4070   C.3       1 RES1   0.0000
    36 C36     21.8707  30.3611  19.7679   C.2       1 RES1   0.0000
@<TRIPOS>BOND
     1     1     2    1
     2     2     3   am
     3     3     4    2
     4     3     5    1
     5     5     6    1
     6     6     7    1
     7     7     8    2
     8     7     9   am
     9     9    10    1
    10    10    11    1
    11    11    12    1
    12    12    13    2
    13    13    14    1
    14    14    15    2
    15    15    16    1
    16    16    17    2
    17    10    18    1
    18    18    19    1
    19    18    20    1
    20    20    21    1
    21    21    22    1
    22    22    23    1
    23    23    24    1
    24    24    25    1
    25    21    26    1
    26    26    27    2
    27    26    28    2
    28    26    29    1
    29    29    30    2
    30    30    31    1
    31    31    32    2
    32    32    33    1
    33    33    34    1
    34    34    35    1
    35    33    36    2
    36    17    12    1
    37    25    23    1
    38    36    29    1
@<TRIPOS>SUBSTRUCTURE
     1 RES1        1 GROUP             0 ****  ****    0  
@<TRIPOS>MOLECULE
ligand_57
    36    38     1     0     0
SMALL
NO_CHARGES
****
Generated from the CSD

@<TRIPOS>ATOM
     1 C1      24.1117  24.8006   8.8661   C.3       1 RES1   0.0000
     2 N2      23.1039  25.6588   9.4671   N.am      1 RES1   0.0000
     3 C3      22.9455  25.7494  10.7891   C.2       1 RES1   0.0000
     4 O4      23.6440  25.1107  11.5866   O.2       1 RES1   0.0000
     5 C5      21.8642  26.6711  11.2937   C.3       1 RES1   0.0000
     6 C6      21.8663  26.6112  12.8020   C.3       1 RES1   0.0000
     7 C7      20.8006  27.5181  13.3398   C.2       1 RES1   0.0000
     8 O8      20.1344  28.1292  12.5244   O.2       1 RES1   0.0000
     9 N9      20.6384  27.6582  14.6619   N.am      1 RES1   0.0000
    10 C10     19.6460  28.5580  15.2718   C.3       1 RES1   0.0000
    11 C11     18.7733  27.7633  16.2459   C.3       1 RES1   0.0000
    12 C12     17.9767  26.7446  15.4686   C.2       1 RES1   0.0000
    13 C13     16.7178  27.0687  14.9640   C.2       1 RES1   0.0000
    14 C14     15.9703  26.1367  14.2646   C.2       1 RES1   0.0000
    15 C15     16.4818  24.8632  14.0608   C.2       1 RES1   0.0000
    16 C16     17.7165  24.5385  14.5755   C.2       1 RES1   0.0000
    17 C17     18.4751  25.4695  15.2618   C.2       1 RES1   0.0000
    18 C18     20.3608  29.7457  15.9448   C.3       1 RES1   0.0000
    19 O19     21.0394  29.2912  17.1145   O.3       1 RES1   0.0000
    20 C20     19.4333  30.9313  16.3089   C.3       1 RES1   0.0000
    21 N21     20.2752  31.9250  17.0161   N.3       1 RES1   0.0000
    22 C22     21.6872  31.9065  16.5747   C.3       1 RES1   0.0000
    23 C23     22.1884  33.3525  16.5230   C.3       1 RES1   0.0000
    24 C24     23.7948  33.0958  16.7615   C.3       1 RES1   0.0000
    25 C25     23.0849  34.1936  17.4680   C.3       1 RES1   0.0000
    26 S26     20.0973  31.9556  18.6340   S.o2      1 RES1   0.0000
    27 O27     18.7191  32.2118  18.9186   O.2       1 RES1   0.0000
    28 O28     20.9583  33.0016  19.1129   O.2       1 RES1   0.0000
    29 C29     20.5508  30.5427  19.3757   C.2       1 RES1   0.0000
    30 C30     21.8696  30.3345  19.7823   C.2       1 RES1   0.0000
    31 C31     22.2352  29.1431  20.4106   C.2       1 RES1   0.0000
    32 C32     21.2866  28.1546  20.6272   C.2       1 RES1   0.0000
    33 C33     19.9587  28.3564  20.2327   C.2       1 RES1   0.0000
    34 O34     18.9689  27.4124  20.4219   O.3       1 RES1   0.0000
    35 C35     19.1905  26.1466  21.0319   C.3       1 RES1   0.0000
    36 C36     19.6061  29.5474  19.6069   C.2       1 RES1   0.0000
@<TRIPOS>BOND
     1     1     2    1
     2     2     3   am
     3     3     4    2
     4     3     5    1
     5     5     6    1
     6     6     7    1
     7     7     8    2
     8     7     9   am
     9     9    10    1
    10    10    11    1
    11    11    12    1
    12    12    13    2
    13    13    14    1
    14    14    15    2
    15    15    16    1
    16    16    17    2
    17    10    18    1
    18    18    19    1
    19    18    20    1
    20    20    21    1
    21    21    22    1
    22    22    23    1
    23    23    24    1
    24    24    25    1
    25    21    26    1
    26    26    27    2
    27    26    28    2
    28    26    29    1
    29    29    30    2
    30    30    31    1
    31    31    32    2
    32    32    33    1
    33    33    34    1
    34    34    35    1
    35    33    36    2
    36    17    12    1
    37    25    23    1
    38    36    29    1
@<TRIPOS>SUBSTRUCTURE
     1 RES1        1 GROUP             0 ****  ****    0  
@<TRIPOS>MOLECULE
ligand_58
    36    38     1     0     0
SMALL
NO_CHARGES
****
Generated from the CSD

@<TRIPOS>ATOM
     1 C1      24.0921  24.8146   8.8444   C.3       1 RES1   0.0000
     2 N2      23.0855  25.6707   9.4503   N.am      1 RES1   0.0000
     3 C3      22.9319  25.7593  10.7730   C.2       1 RES1   0.0000
     4 O4      23.6343  25.1205  11.5670   O.2       1 RES1   0.0000
     5 C5      21.8514  26.6789  11.2829   C.3       1 RES1   0.0000
     6 C6      21.8593  26.6171  12.7911   C.3       1 RES1   0.0000
     7 C7      20.7944  27.5219  13.3341   C.2       1 RES1   0.0000
     8 O8      20.1244  28.1333  12.5221   O.2       1 RES1   0.0000
     9 N9      20.6371  27.6601  14.6570   N.am      1 RES1   0.0000
    10 C10     19.6460  28.5580  15.2718   C.3       1 RES1   0.0000
    11 C11     19.0356  27.8748  16.4976   C.3       1 RES1   0.0000
    12 C12     18.2679  26.6567  16.0462   C.2       1 RES1   0.0000
    13 C13     16.9172  26.7567  15.7145   C.2       1 RES1   0.0000
    14 C14     16.1983  25.6426  15.3161   C.2       1 RES1   0.0000
    15 C15     16.8310  24.4100  15.2436   C.2       1 RES1   0.0000
    16 C16     18.1596  24.3090  15.5895   C.2       1 RES1   0.0000
    17 C17     18.8876  25.4207  15.9734   C.2       1 RES1   0.0000
    18 C18     20.3035  29.9102  15.6089   C.3       1 RES1   0.0000
    19 O19     19.4823  30.6204  16.5344   O.3       1 RES1   0.0000
    20 C20     20.5971  30.8060  14.3801   C.3       1 RES1   0.0000
    21 N21     21.6585  31.7546  14.7924   N.3       1 RES1   0.0000
    22 C22     21.1341  32.9262  15.5281   C.3       1 RES1   0.0000
    23 C23     22.0032  33.1353  16.7714   C.3       1 RES1   0.0000
    24 C24     21.8664  34.7659  16.9320   C.3       1 RES1   0.0000
    25 C25     23.1818  34.0921  17.0870   C.3       1 RES1   0.0000
    26 S26     22.7312  32.1400  13.6301   S.o2      1 RES1   0.0000
    27 O27     23.3446  30.9285  13.1806   O.2       1 RES1   0.0000
    28 O28     23.6746  33.0384  14.2363   O.2       1 RES1   0.0000
    29 C29     22.0492  32.9167  12.3325   C.2       1 RES1   0.0000
    30 C30     21.9477  34.3083  12.2987   C.2       1 RES1   0.0000
    31 C31     21.3770  34.9482  11.1976   C.2       1 RES1   0.0000
    32 C32     20.8998  34.1998  10.1317   C.2       1 RES1   0.0000
    33 C33     21.0053  32.8039  10.1502   C.2       1 RES1   0.0000
    34 O34     20.5510  32.0043   9.1202   O.3       1 RES1   0.0000
    35 C35     19.9335  32.5083   7.9420   C.3       1 RES1   0.0000
    36 C36     21.5753  32.1771  11.2532   C.2       1 RES1   0.0000
@<TRIPOS>BOND
     1     1     2    1
     2     2     3   am
     3     3     4    2
     4     3     5    1
     5     5     6    1
     6     6     7    1
     7     7     8    2
     8     7     9   am
     9     9    10    1
    10    10    11    1
    11    11    12    1
    12    12    13    2
    13    13    14    1
    14    14    15    2
    15    15    16    1
    16    16    17    2
    17    10    18    1
    18    18    19    1
    19    18    20    1
    20    20    21    1
    21    21    22    1
    22    22    23    1
    23    23    24    1
    24    24    25    1
    25    21    26    1
    26    26    27    2
    27    26    28    2
    28    26    29    1
    29    29    30    2
    30    30    31    1
    31    31    32    2
    32    32    33    1
    33    33    34    1
    34    34    35    1
    35    33    36    2
    36    17    12    1
    37    25    23    1
    38    36    29    1
@<TRIPOS>SUBSTRUCTURE
     1 RES1        1 GROUP             0 ****  ****    0  
@<TRIPOS>MOLECULE
ligand_59
    36    38     1     0     0
SMALL
NO_CHARGES
****
Generated from the CSD

@<TRIPOS>ATOM
     1 C1      24.2142  24.6432   9.0349   C.3       1 RES1   0.0000
     2 N2      23.2042  25.5243   9.5980   N.am      1 RES1   0.0000
     3 C3      23.0146  25.6369  10.9141   C.2       1 RES1   0.0000
     4 O4      23.6842  25.0007  11.7380   O.2       1 RES1   0.0000
     5 C5      21.9345  26.5809  11.3782   C.3       1 RES1   0.0000
     6 C6      21.8986  26.5437  12.8868   C.3       1 RES1   0.0000
     7 C7      20.8329  27.4733  13.3846   C.2       1 RES1   0.0000
     8 O8      20.1958  28.0812  12.5440   O.2       1 RES1   0.0000
     9 N9      20.6402  27.6355  14.7000   N.am      1 RES1   0.0000
    10 C10     19.6460  28.5580  15.2718   C.3       1 RES1   0.0000
    11 C11     18.7384  27.7902  16.2355   C.3       1 RES1   0.0000
    12 C12     17.9162  26.8000  15.4480   C.2       1 RES1   0.0000
    13 C13     16.6735  27.1665  14.9324   C.2       1 RES1   0.0000
    14 C14     15.9026  26.2612  14.2235   C.2       1 RES1   0.0000
    15 C15     16.3738  24.9720  14.0212   C.2       1 RES1   0.0000
    16 C16     17.5922  24.6057  14.5468   C.2       1 RES1   0.0000
    17 C17     18.3744  25.5097  15.2426   C.2       1 RES1   0.0000
    18 C18     20.3608  29.7457  15.9448   C.3       1 RES1   0.0000
    19 O19     21.2544  30.3526  15.0128   O.3       1 RES1   0.0000
    20 C20     21.1276  29.3837  17.2407   C.3       1 RES1   0.0000
    21 N21     20.1027  29.0966  18.2721   N.3       1 RES1   0.0000
    22 C22     19.4910  30.3196  18.8368   C.3       1 RES1   0.0000
    23 C23     17.9742  30.1146  18.8841   C.3       1 RES1   0.0000
    24 C24     17.6106  31.0488  20.1874   C.3       1 RES1   0.0000
    25 C25     16.9991  29.7050  20.0179   C.3       1 RES1   0.0000
    26 S26     20.5417  28.0063  19.3984   S.o2      1 RES1   0.0000
    27 O27     20.8836  26.7924  18.7235   O.2       1 RES1   0.0000
    28 O28     19.4084  27.8484  20.2675   O.2       1 RES1   0.0000
    29 C29     21.8294  28.4938  20.3237   C.2       1 RES1   0.0000
    30 C30     23.1402  28.2012  19.9440   C.2       1 RES1   0.0000
    31 C31     24.2139  28.6231  20.7294   C.2       1 RES1   0.0000
    32 C32     23.9807  29.3312  21.8990   C.2       1 RES1   0.0000
    33 C33     22.6707  29.6392  22.2847   C.2       1 RES1   0.0000
    34 O34     22.3738  30.3419  23.4357   O.3       1 RES1   0.0000
    35 C35     23.3576  30.8232  24.3435   C.3       1 RES1   0.0000
    36 C36     21.6085  29.2130  21.4944   C.2       1 RES1   0.0000
@<TRIPOS>BOND
     1     1     2    1
     2     2     3   am
     3     3     4    2
     4     3     5    1
     5     5     6    1
     6     6     7    1
     7     7     8    2
     8     7     9   am
     9     9    10    1
    10    10    11    1
    11    11    12    1
    12    12    13    2
    13    13    14    1
    14    14    15    2
    15    15    16    1
    16    16    17    2
    17    10    18    1
    18    18    19    1
    19    18    20    1
    20    20    21    1
    21    21    22    1
    22    22    23    1
    23    23    24    1
    24    24    25    1
    25    21    26    1
    26    26    27    2
    27    26    28    2
    28    26    29    1
    29    29    30    2
    30    30    31    1
    31    31    32    2
    32    32    33    1
    33    33    34    1
    34    34    35    1
    35    33    36    2
    36    17    12    1
    37    25    23    1
    38    36    29    1
@<TRIPOS>SUBSTRUCTURE
     1 RES1        1 GROUP             0 ****  ****    0  
@<TRIPOS>MOLECULE
ligand_60
    36    38     1     0     0
SMALL
NO_CHARGES
****
Generated from the CSD

@<TRIPOS>ATOM
     1 C1      24.2142  24.6432   9.0349   C.3       1 RES1   0.0000
     2 N2      23.2042  25.5243   9.5980   N.am      1 RES1   0.0000
     3 C3      23.0146  25.6369  10.9141   C.2       1 RES1   0.0000
     4 O4      23.6842  25.0007  11.7380   O.2       1 RES1   0.0000
     5 C5      21.9345  26.5809  11.3782   C.3       1 RES1   0.0000
     6 C6      21.8986  26.5437  12.8868   C.3       1 RES1   0.0000
     7 C7      20.8329  27.4733  13.3846   C.2       1 RES1   0.0000
     8 O8      20.1958  28.0812  12.5440   O.2       1 RES1   0.0000
     9 N9      20.6402  27.6355  14.7000   N.am      1 RES1   0.0000
    10 C10     19.6460  28.5580  15.2718   C.3       1 RES1   0.0000
    11 C11     18.7384  27.7902  16.2355   C.3       1 RES1   0.0000
    12 C12     17.9162  26.8000  15.4480   C.2       1 RES1   0.0000
    13 C13     16.6735  27.1665  14.9324   C.2       1 RES1   0.0000
    14 C14     15.9026  26.2612  14.2235   C.2       1 RES1   0.0000
    15 C15     16.3738  24.9720  14.0212   C.2       1 RES1   0.0000
    16 C16     17.5922  24.6057  14.5468   C.2       1 RES1   0.0000
    17 C17     18.3744  25.5097  15.2426   C.2       1 RES1   0.0000
    18 C18     20.3608  29.7457  15.9448   C.3       1 RES1   0.0000
    19 O19     21.2544  30.3526  15.0128   O.3       1 RES1   0.0000
    20 C20     21.1276  29.3837  17.2407   C.3       1 RES1   0.0000
    21 N21     20.1027  29.0966  18.2721   N.3       1 RES1   0.0000
    22 C22     19.4910  30.3196  18.8368   C.3       1 RES1   0.0000
    23 C23     17.9742  30.1146  18.8841   C.3       1 RES1   0.0000
    24 C24     17.6106  31.0488  20.1874   C.3       1 RES1   0.0000
    25 C25     16.9991  29.7050  20.0179   C.3       1 RES1   0.0000
    26 S26     20.5417  28.0063  19.3984   S.o2      1 RES1   0.0000
    27 O27     20.8836  26.7924  18.7235   O.2       1 RES1   0.0000
    28 O28     19.4084  27.8484  20.2675   O.2       1 RES1   0.0000
    29 C29     21.8294  28.4938  20.3237   C.2       1 RES1   0.0000
    30 C30     21.6359  29.2094  21.5063   C.2       1 RES1   0.0000
    31 C31     22.7287  29.6076  22.2776   C.2       1 RES1   0.0000
    32 C32     24.0168  29.2988  21.8660   C.2       1 RES1   0.0000
    33 C33     24.2225  28.5728  20.6868   C.2       1 RES1   0.0000
    34 O34     25.4789  28.2333  20.2253   O.3       1 RES1   0.0000
    35 C35     26.6863  28.5815  20.8919   C.3       1 RES1   0.0000
    36 C36     23.1259  28.1818  19.9259   C.2       1 RES1   0.0000
@<TRIPOS>BOND
     1     1     2    1
     2     2     3   am
     3     3     4    2
     4     3     5    1
     5     5     6    1
     6     6     7    1
     7     7     8    2
     8     7     9   am
     9     9    10    1
    10    10    11    1
    11    11    12    1
    12    12    13    2
    13    13    14    1
    14    14    15    2
    15    15    16    1
    16    16    17    2
    17    10    18    1
    18    18    19    1
    19    18    20    1
    20    20    21    1
    21    21    22    1
    22    22    23    1
    23    23    24    1
    24    24    25    1
    25    21    26    1
    26    26    27    2
    27    26    28    2
    28    26    29    1
    29    29    30    2
    30    30    31    1
    31    31    32    2
    32    32    33    1
    33    33    34    1
    34    34    35    1
    35    33    36    2
    36    17    12    1
    37    25    23    1
    38    36    29    1
@<TRIPOS>SUBSTRUCTURE
     1 RES1        1 GROUP             0 ****  ****    0  
@<TRIPOS>MOLECULE
ligand_61
    36    38     1     0     0
SMALL
NO_CHARGES
****
Generated from the CSD

@<TRIPOS>ATOM
     1 C1      24.3754  25.1592   8.9315   C.3       1 RES1   0.0000
     2 N2      23.3044  25.9471   9.5194   N.am      1 RES1   0.0000
     3 C3      23.1258  26.0291  10.8394   C.2       1 RES1   0.0000
     4 O4      23.8581  25.4417  11.6460   O.2       1 RES1   0.0000
     5 C5      21.9782  26.8751  11.3300   C.3       1 RES1   0.0000
     6 C6      21.9682  26.8184  12.8384   C.3       1 RES1   0.0000
     7 C7      20.8367  27.6507  13.3624   C.2       1 RES1   0.0000
     8 O8      20.7950  28.8128  13.0020   O.2       1 RES1   0.0000
     9 N9      19.9505  27.1228  14.2166   N.am      1 RES1   0.0000
    10 C10     18.8371  27.8808  14.8099   C.3       1 RES1   0.0000
    11 C11     17.5324  27.4966  14.1085   C.3       1 RES1   0.0000
    12 C12     17.6039  27.9385  12.6676   C.2       1 RES1   0.0000
    13 C13     18.1129  27.0826  11.6914   C.2       1 RES1   0.0000
    14 C14     18.1998  27.4836  10.3692   C.2       1 RES1   0.0000
    15 C15     17.7726  28.7537  10.0099   C.2       1 RES1   0.0000
    16 C16     17.2879  29.6046  10.9774   C.2       1 RES1   0.0000
    17 C17     17.1839  29.2048  12.2976   C.2       1 RES1   0.0000
    18 C18     18.7903  27.6372  16.3308   C.3       1 RES1   0.0000
    19 O19     17.5520  28.1180  16.8513   O.3       1 RES1   0.0000
    20 C20     19.9654  28.2668  17.1189   C.3       1 RES1   0.0000
    21 N21     19.7252  29.7292  17.1396   N.3       1 RES1   0.0000
    22 C22     20.3372  30.4328  15.9911   C.3       1 RES1   0.0000
    23 C23     19.2872  31.3756  15.3965   C.3       1 RES1   0.0000
    24 C24     20.2739  32.5563  14.8169   C.3       1 RES1   0.0000
    25 C25     19.0264  32.8964  15.5493   C.3       1 RES1   0.0000
    26 S26     19.9988  30.4546  18.5710   S.o2      1 RES1   0.0000
    27 O27     19.1546  29.8346  19.5452   O.2       1 RES1   0.0000
    28 O28     19.6874  31.8446  18.3826   O.2       1 RES1   0.0000
    29 C29     21.5760  30.3495  19.0745   C.2       1 RES1   0.0000
    30 C30     22.0113  29.2805  19.8592   C.2       1 RES1   0.0000
    31 C31     23.3427  29.2023  20.2702   C.2       1 RES1   0.0000
    32 C32     24.2401  30.1948  19.9050   C.2       1 RES1   0.0000
    33 C33     23.8172  31.2665  19.1098   C.2       1 RES1   0.0000
    34 O34     24.6620  32.2838  18.7121   O.3       1 RES1   0.0000
    35 C35     26.0386  32.3509  19.0644   C.3       1 RES1   0.0000
    36 C36     22.4878  31.3343  18.7066   C.2       1 RES1   0.0000
@<TRIPOS>BOND
     1     1     2    1
     2     2     3   am
     3     3     4    2
     4     3     5    1
     5     5     6    1
     6     6     7    1
     7     7     8    2
     8     7     9   am
     9     9    10    1
    10    10    11    1
    11    11    12    1
    12    12    13    2
    13    13    14    1
    14    14    15    2
    15    15    16    1
    16    16    17    2
    17    10    18    1
    18    18    19    1
    19    18    20    1
    20    20    21    1
    21    21    22    1
    22    22    23    1
    23    23    24    1
    24    24    25    1
    25    21    26    1
    26    26    27    2
    27    26    28    2
    28    26    29    1
    29    29    30    2
    30    30    31    1
    31    31    32    2
    32    32    33    1
    33    33    34    1
    34    34    35    1
    35    33    36    2
    36    17    12    1
    37    25    23    1
    38    36    29    1
@<TRIPOS>SUBSTRUCTURE
     1 RES1        1 GROUP             0 ****  ****    0  
@<TRIPOS>MOLECULE
ligand_62
    36    38     1     0     0
SMALL
NO_CHARGES
****
Generated from the CSD

@<TRIPOS>ATOM
     1 C1      24.1115  24.8002   8.8662   C.3       1 RES1   0.0000
     2 N2      23.1035  25.6582   9.4671   N.am      1 RES1   0.0000
     3 C3      22.9453  25.7491  10.7891   C.2       1 RES1   0.0000
     4 O4      23.6442  25.1109  11.5866   O.2       1 RES1   0.0000
     5 C5      21.8638  26.6706  11.2936   C.3       1 RES1   0.0000
     6 C6      21.8662  26.6111  12.8019   C.3       1 RES1   0.0000
     7 C7      20.8002  27.5178  13.3397   C.2       1 RES1   0.0000
     8 O8      19.6675  27.3394  12.9306   O.2       1 RES1   0.0000
     9 N9      21.1166  28.4947  14.1996   N.am      1 RES1   0.0000
    10 C10     20.1398  29.4531  14.7416   C.3       1 RES1   0.0000
    11 C11     20.2069  29.4344  16.2704   C.3       1 RES1   0.0000
    12 C12     19.7639  28.0785  16.7622   C.2       1 RES1   0.0000
    13 C13     18.4207  27.8353  17.0469   C.2       1 RES1   0.0000
    14 C14     18.0052  26.6007  17.5156   C.2       1 RES1   0.0000
    15 C15     18.9377  25.5906  17.7024   C.2       1 RES1   0.0000
    16 C16     20.2661  25.8375  17.4391   C.2       1 RES1   0.0000
    17 C17     20.6858  27.0638  16.9559   C.2       1 RES1   0.0000
    18 C18     20.3973  30.8528  14.1508   C.3       1 RES1   0.0000
    19 O19     20.4525  30.7652  12.7278   O.3       1 RES1   0.0000
    20 C20     21.6761  31.5482  14.6793   C.3       1 RES1   0.0000
    21 N21     21.8796  32.7530  13.8406   N.3       1 RES1   0.0000
    22 C22     23.2834  32.9263  13.4070   C.3       1 RES1   0.0000
    23 C23     23.2816  33.2663  11.9139   C.3       1 RES1   0.0000
    24 C24     24.6417  34.1872  11.8395   C.3       1 RES1   0.0000
    25 C25     23.4006  34.6017  11.1350   C.3       1 RES1   0.0000
    26 S26     21.1999  34.1169  14.4131   S.o2      1 RES1   0.0000
    27 O27     19.7956  33.8824  14.5510   O.2       1 RES1   0.0000
    28 O28     21.4910  35.1446  13.4520   O.2       1 RES1   0.0000
    29 C29     21.8157  34.5984  15.8763   C.2       1 RES1   0.0000
    30 C30     21.2524  34.1570  17.0746   C.2       1 RES1   0.0000
    31 C31     21.7851  34.5657  18.2981   C.2       1 RES1   0.0000
    32 C32     22.8760  35.4217  18.3276   C.2       1 RES1   0.0000
    33 C33     23.4555  35.8630  17.1321   C.2       1 RES1   0.0000
    34 O34     24.5428  36.7134  17.0954   O.3       1 RES1   0.0000
    35 C35     25.1838  37.2269  18.2568   C.3       1 RES1   0.0000
    36 C36     22.9158  35.4496  15.9188   C.2       1 RES1   0.0000
@<TRIPOS>BOND
     1     1     2    1
     2     2     3   am
     3     3     4    2
     4     3     5    1
     5     5     6    1
     6     6     7    1
     7     7     8    2
     8     7     9   am
     9     9    10    1
    10    10    11    1
    11    11    12    1
    12    12    13    2
    13    13    14    1
    14    14    15    2
    15    15    16    1
    16    16    17    2
    17    10    18    1
    18    18    19    1
    19    18    20    1
    20    20    21    1
    21    21    22    1
    22    22    23    1
    23    23    24    1
    24    24    25    1
    25    21    26    1
    26    26    27    2
    27    26    28    2
    28    26    29    1
    29    29    30    2
    30    30    31    1
    31    31    32    2
    32    32    33    1
    33    33    34    1
    34    34    35    1
    35    33    36    2
    36    17    12    1
    37    25    23    1
    38    36    29    1
@<TRIPOS>SUBSTRUCTURE
     1 RES1        1 GROUP             0 ****  ****    0  
@<TRIPOS>MOLECULE
ligand_63
    36    38     1     0     0
SMALL
NO_CHARGES
****
Generated from the CSD

@<TRIPOS>ATOM
     1 C1      24.1115  24.8002   8.8662   C.3       1 RES1   0.0000
     2 N2      23.1035  25.6582   9.4671   N.am      1 RES1   0.0000
     3 C3      22.9453  25.7491  10.7891   C.2       1 RES1   0.0000
     4 O4      23.6442  25.1109  11.5866   O.2       1 RES1   0.0000
     5 C5      21.8638  26.6706  11.2936   C.3       1 RES1   0.0000
     6 C6      21.8662  26.6111  12.8019   C.3       1 RES1   0.0000
     7 C7      20.8002  27.5178  13.3397   C.2       1 RES1   0.0000
     8 O8      19.6675  27.3394  12.9306   O.2       1 RES1   0.0000
     9 N9      21.1166  28.4947  14.1996   N.am      1 RES1   0.0000
    10 C10     20.1398  29.4531  14.7416   C.3       1 RES1   0.0000
    11 C11     20.2069  29.4344  16.2704   C.3       1 RES1   0.0000
    12 C12     19.7639  28.0785  16.7622   C.2       1 RES1   0.0000
    13 C13     18.4207  27.8353  17.0469   C.2       1 RES1   0.0000
    14 C14     18.0052  26.6007  17.5156   C.2       1 RES1   0.0000
    15 C15     18.9377  25.5906  17.7024   C.2       1 RES1   0.0000
    16 C16     20.2661  25.8375  17.4391   C.2       1 RES1   0.0000
    17 C17     20.6858  27.0638  16.9559   C.2       1 RES1   0.0000
    18 C18     20.3973  30.8528  14.1508   C.3       1 RES1   0.0000
    19 O19     20.4525  30.7652  12.7278   O.3       1 RES1   0.0000
    20 C20     21.6761  31.5482  14.6793   C.3       1 RES1   0.0000
    21 N21     21.8796  32.7530  13.8406   N.3       1 RES1   0.0000
    22 C22     23.2834  32.9263  13.4070   C.3       1 RES1   0.0000
    23 C23     23.2816  33.2663  11.9139   C.3       1 RES1   0.0000
    24 C24     24.6417  34.1872  11.8395   C.3       1 RES1   0.0000
    25 C25     23.4006  34.6017  11.1350   C.3       1 RES1   0.0000
    26 S26     21.1999  34.1169  14.4131   S.o2      1 RES1   0.0000
    27 O27     19.7956  33.8824  14.5510   O.2       1 RES1   0.0000
    28 O28     21.4910  35.1446  13.4520   O.2       1 RES1   0.0000
    29 C29     21.8157  34.5984  15.8763   C.2       1 RES1   0.0000
    30 C30     22.9132  35.4577  15.9476   C.2       1 RES1   0.0000
    31 C31     23.4166  35.8591  17.1858   C.2       1 RES1   0.0000
    32 C32     22.8300  35.3976  18.3549   C.2       1 RES1   0.0000
    33 C33     21.7225  34.5434  18.2957   C.2       1 RES1   0.0000
    34 O34     21.0941  34.0517  19.4227   O.3       1 RES1   0.0000
    35 C35     21.5008  34.3576  20.7510   C.3       1 RES1   0.0000
    36 C36     21.2299  34.1495  17.0561   C.2       1 RES1   0.0000
@<TRIPOS>BOND
     1     1     2    1
     2     2     3   am
     3     3     4    2
     4     3     5    1
     5     5     6    1
     6     6     7    1
     7     7     8    2
     8     7     9   am
     9     9    10    1
    10    10    11    1
    11    11    12    1
    12    12    13    2
    13    13    14    1
    14    14    15    2
    15    15    16    1
    16    16    17    2
    17    10    18    1
    18    18    19    1
    19    18    20    1
    20    20    21    1
    21    21    22    1
    22    22    23    1
    23    23    24    1
    24    24    25    1
    25    21    26    1
    26    26    27    2
    27    26    28    2
    28    26    29    1
    29    29    30    2
    30    30    31    1
    31    31    32    2
    32    32    33    1
    33    33    34    1
    34    34    35    1
    35    33    36    2
    36    17    12    1
    37    25    23    1
    38    36    29    1
@<TRIPOS>SUBSTRUCTURE
     1 RES1        1 GROUP             0 ****  ****    0  
@<TRIPOS>MOLECULE
ligand_64
    36    38     1     0     0
SMALL
NO_CHARGES
****
Generated from the CSD

@<TRIPOS>ATOM
     1 C1      24.1124  24.8005   8.8665   C.3       1 RES1   0.0000
     2 N2      23.1044  25.6587   9.4672   N.am      1 RES1   0.0000
     3 C3      22.9458  25.7493  10.7891   C.2       1 RES1   0.0000
     4 O4      23.6443  25.1108  11.5868   O.2       1 RES1   0.0000
     5 C5      21.8644  26.6709  11.2935   C.3       1 RES1   0.0000
     6 C6      21.8662  26.6112  12.8018   C.3       1 RES1   0.0000
     7 C7      20.8003  27.5180  13.3394   C.2       1 RES1   0.0000
     8 O8      19.6677  27.3399  12.9300   O.2       1 RES1   0.0000
     9 N9      21.1166  28.4947  14.1996   N.am      1 RES1   0.0000
    10 C10     20.1398  29.4531  14.7416   C.3       1 RES1   0.0000
    11 C11     20.2069  29.4344  16.2704   C.3       1 RES1   0.0000
    12 C12     19.7639  28.0785  16.7622   C.2       1 RES1   0.0000
    13 C13     18.4207  27.8353  17.0469   C.2       1 RES1   0.0000
    14 C14     18.0052  26.6007  17.5156   C.2       1 RES1   0.0000
    15 C15     18.9377  25.5906  17.7024   C.2       1 RES1   0.0000
    16 C16     20.2661  25.8375  17.4391   C.2       1 RES1   0.0000
    17 C17     20.6858  27.0638  16.9559   C.2       1 RES1   0.0000
    18 C18     20.3973  30.8528  14.1508   C.3       1 RES1   0.0000
    19 O19     20.4525  30.7652  12.7278   O.3       1 RES1   0.0000
    20 C20     21.6761  31.5482  14.6793   C.3       1 RES1   0.0000
    21 N21     21.8716  32.7607  13.8498   N.3       1 RES1   0.0000
    22 C22     22.6231  32.4948  12.6035   C.3       1 RES1   0.0000
    23 C23     21.8798  33.1687  11.4468   C.3       1 RES1   0.0000
    24 C24     23.1510  33.4988  10.4577   C.3       1 RES1   0.0000
    25 C25     22.0881  34.5095  10.6965   C.3       1 RES1   0.0000
    26 S26     22.3913  34.0749  14.6579   S.o2      1 RES1   0.0000
    27 O27     21.4362  34.3658  15.6822   O.2       1 RES1   0.0000
    28 O28     22.4908  35.1297  13.6873   O.2       1 RES1   0.0000
    29 C29     23.8858  33.8769  15.3502   C.2       1 RES1   0.0000
    30 C30     24.0177  33.3816  16.6484   C.2       1 RES1   0.0000
    31 C31     25.2819  33.2147  17.2155   C.2       1 RES1   0.0000
    32 C32     26.4162  33.5489  16.4906   C.2       1 RES1   0.0000
    33 C33     26.2966  34.0371  15.1840   C.2       1 RES1   0.0000
    34 O34     27.3867  34.3854  14.4113   O.3       1 RES1   0.0000
    35 C35     28.7343  34.2864  14.8559   C.3       1 RES1   0.0000
    36 C36     25.0315  34.1999  14.6294   C.2       1 RES1   0.0000
@<TRIPOS>BOND
     1     1     2    1
     2     2     3   am
     3     3     4    2
     4     3     5    1
     5     5     6    1
     6     6     7    1
     7     7     8    2
     8     7     9   am
     9     9    10    1
    10    10    11    1
    11    11    12    1
    12    12    13    2
    13    13    14    1
    14    14    15    2
    15    15    16    1
    16    16    17    2
    17    10    18    1
    18    18    19    1
    19    18    20    1
    20    20    21    1
    21    21    22    1
    22    22    23    1
    23    23    24    1
    24    24    25    1
    25    21    26    1
    26    26    27    2
    27    26    28    2
    28    26    29    1
    29    29    30    2
    30    30    31    1
    31    31    32    2
    32    32    33    1
    33    33    34    1
    34    34    35    1
    35    33    36    2
    36    17    12    1
    37    25    23    1
    38    36    29    1
@<TRIPOS>SUBSTRUCTURE
     1 RES1        1 GROUP             0 ****  ****    0  
@<TRIPOS>MOLECULE
ligand_65
    36    38     1     0     0
SMALL
NO_CHARGES
****
Generated from the CSD

@<TRIPOS>ATOM
     1 C1      24.1110  24.8000   8.8660   C.3       1 RES1   0.0000
     2 N2      23.1030  25.6580   9.4670   N.am      1 RES1   0.0000
     3 C3      22.9450  25.7490  10.7890   C.2       1 RES1   0.0000
     4 O4      23.6441  25.1109  11.5865   O.2       1 RES1   0.0000
     5 C5      21.8635  26.6704  11.2936   C.3       1 RES1   0.0000
     6 C6      21.8662  26.6110  12.8020   C.3       1 RES1   0.0000
     7 C7      20.8002  27.5177  13.3398   C.2       1 RES1   0.0000
     8 O8      20.1335  28.1282  12.5244   O.2       1 RES1   0.0000
     9 N9      20.6384  27.6582  14.6619   N.am      1 RES1   0.0000
    10 C10     19.6460  28.5580  15.2718   C.3       1 RES1   0.0000
    11 C11     18.4656  27.7332  15.7897   C.3       1 RES1   0.0000
    12 C12     17.7669  27.0904  14.6169   C.2       1 RES1   0.0000
    13 C13     16.7243  27.7512  13.9680   C.2       1 RES1   0.0000
    14 C14     16.0643  27.1638  12.9022   C.2       1 RES1   0.0000
    15 C15     16.4467  25.9014  12.4722   C.2       1 RES1   0.0000
    16 C16     17.4634  25.2422  13.1255   C.2       1 RES1   0.0000
    17 C17     18.1374  25.8296  14.1811   C.2       1 RES1   0.0000
    18 C18     20.3133  29.4016  16.3752   C.3       1 RES1   0.0000
    19 O19     19.4427  30.4677  16.7504   O.3       1 RES1   0.0000
    20 C20     21.7020  29.9728  15.9961   C.3       1 RES1   0.0000
    21 N21     22.0751  30.9244  17.0693   N.3       1 RES1   0.0000
    22 C22     21.7300  32.3263  16.7458   C.3       1 RES1   0.0000
    23 C23     21.0615  32.9474  17.9755   C.3       1 RES1   0.0000
    24 C24     21.5208  34.5137  17.7769   C.3       1 RES1   0.0000
    25 C25     21.5845  33.8636  19.1117   C.3       1 RES1   0.0000
    26 S26     23.5802  30.7426  17.6621   S.o2      1 RES1   0.0000
    27 O27     23.6942  29.4093  18.1675   O.2       1 RES1   0.0000
    28 O28     23.7280  31.7327  18.6929   O.2       1 RES1   0.0000
    29 C29     24.7700  30.9991  16.5350   C.2       1 RES1   0.0000
    30 C30     25.2607  29.9506  15.7552   C.2       1 RES1   0.0000
    31 C31     26.2576  30.1827  14.8065   C.2       1 RES1   0.0000
    32 C32     26.7718  31.4601  14.6399   C.2       1 RES1   0.0000
    33 C33     26.2803  32.5212  15.4093   C.2       1 RES1   0.0000
    34 O34     26.7496  33.8144  15.2892   O.3       1 RES1   0.0000
    35 C35     27.7723  34.2025  14.3798   C.3       1 RES1   0.0000
    36 C36     25.2872  32.2780  16.3521   C.2       1 RES1   0.0000
@<TRIPOS>BOND
     1     1     2    1
     2     2     3   am
     3     3     4    2
     4     3     5    1
     5     5     6    1
     6     6     7    1
     7     7     8    2
     8     7     9   am
     9     9    10    1
    10    10    11    1
    11    11    12    1
    12    12    13    2
    13    13    14    1
    14    14    15    2
    15    15    16    1
    16    16    17    2
    17    10    18    1
    18    18    19    1
    19    18    20    1
    20    20    21    1
    21    21    22    1
    22    22    23    1
    23    23    24    1
    24    24    25    1
    25    21    26    1
    26    26    27    2
    27    26    28    2
    28    26    29    1
    29    29    30    2
    30    30    31    1
    31    31    32    2
    32    32    33    1
    33    33    34    1
    34    34    35    1
    35    33    36    2
    36    17    12    1
    37    25    23    1
    38    36    29    1
@<TRIPOS>SUBSTRUCTURE
     1 RES1        1 GROUP             0 ****  ****    0  
@<TRIPOS>MOLECULE
ligand_66
    36    38     1     0     0
SMALL
NO_CHARGES
****
Generated from the CSD

@<TRIPOS>ATOM
     1 C1      24.1110  24.8000   8.8660   C.3       1 RES1   0.0000
     2 N2      23.1030  25.6580   9.4670   N.am      1 RES1   0.0000
     3 C3      22.9450  25.7490  10.7890   C.2       1 RES1   0.0000
     4 O4      23.6441  25.1109  11.5865   O.2       1 RES1   0.0000
     5 C5      21.8635  26.6704  11.2936   C.3       1 RES1   0.0000
     6 C6      21.8662  26.6110  12.8020   C.3       1 RES1   0.0000
     7 C7      20.8002  27.5177  13.3398   C.2       1 RES1   0.0000
     8 O8      20.1335  28.1282  12.5244   O.2       1 RES1   0.0000
     9 N9      20.6384  27.6582  14.6619   N.am      1 RES1   0.0000
    10 C10     19.6460  28.5580  15.2718   C.3       1 RES1   0.0000
    11 C11     18.4656  27.7332  15.7897   C.3       1 RES1   0.0000
    12 C12     17.7669  27.0904  14.6169   C.2       1 RES1   0.0000
    13 C13     16.7243  27.7512  13.9680   C.2       1 RES1   0.0000
    14 C14     16.0643  27.1638  12.9022   C.2       1 RES1   0.0000
    15 C15     16.4467  25.9014  12.4722   C.2       1 RES1   0.0000
    16 C16     17.4634  25.2422  13.1255   C.2       1 RES1   0.0000
    17 C17     18.1374  25.8296  14.1811   C.2       1 RES1   0.0000
    18 C18     20.3133  29.4016  16.3752   C.3       1 RES1   0.0000
    19 O19     19.4427  30.4677  16.7504   O.3       1 RES1   0.0000
    20 C20     21.7020  29.9728  15.9961   C.3       1 RES1   0.0000
    21 N21     22.0751  30.9244  17.0693   N.3       1 RES1   0.0000
    22 C22     21.7300  32.3263  16.7458   C.3       1 RES1   0.0000
    23 C23     21.0615  32.9474  17.9755   C.3       1 RES1   0.0000
    24 C24     21.5208  34.5137  17.7769   C.3       1 RES1   0.0000
    25 C25     21.5845  33.8636  19.1117   C.3       1 RES1   0.0000
    26 S26     23.5802  30.7426  17.6621   S.o2      1 RES1   0.0000
    27 O27     23.6942  29.4093  18.1675   O.2       1 RES1   0.0000
    28 O28     23.7280  31.7327  18.6929   O.2       1 RES1   0.0000
    29 C29     24.7700  30.9991  16.5350   C.2       1 RES1   0.0000
    30 C30     25.3118  32.2700  16.3367   C.2       1 RES1   0.0000
    31 C31     26.3166  32.4694  15.3890   C.2       1 RES1   0.0000
    32 C32     26.7771  31.4021  14.6323   C.2       1 RES1   0.0000
    33 C33     26.2483  30.1210  14.8294   C.2       1 RES1   0.0000
    34 O34     26.6656  29.0189  14.1097   O.3       1 RES1   0.0000
    35 C35     27.6676  29.0671  13.1010   C.3       1 RES1   0.0000
    36 C36     25.2468  29.9343  15.7763   C.2       1 RES1   0.0000
@<TRIPOS>BOND
     1     1     2    1
     2     2     3   am
     3     3     4    2
     4     3     5    1
     5     5     6    1
     6     6     7    1
     7     7     8    2
     8     7     9   am
     9     9    10    1
    10    10    11    1
    11    11    12    1
    12    12    13    2
    13    13    14    1
    14    14    15    2
    15    15    16    1
    16    16    17    2
    17    10    18    1
    18    18    19    1
    19    18    20    1
    20    20    21    1
    21    21    22    1
    22    22    23    1
    23    23    24    1
    24    24    25    1
    25    21    26    1
    26    26    27    2
    27    26    28    2
    28    26    29    1
    29    29    30    2
    30    30    31    1
    31    31    32    2
    32    32    33    1
    33    33    34    1
    34    34    35    1
    35    33    36    2
    36    17    12    1
    37    25    23    1
    38    36    29    1
@<TRIPOS>SUBSTRUCTURE
     1 RES1        1 GROUP             0 ****  ****    0  
@<TRIPOS>MOLECULE
ligand_67
    36    38     1     0     0
SMALL
NO_CHARGES
****
Generated from the CSD

@<TRIPOS>ATOM
     1 C1      24.1110  24.8000   8.8660   C.3       1 RES1   0.0000
     2 N2      23.1030  25.6580   9.4670   N.am      1 RES1   0.0000
     3 C3      22.9450  25.7490  10.7890   C.2       1 RES1   0.0000
     4 O4      23.6441  25.1109  11.5865   O.2       1 RES1   0.0000
     5 C5      21.8635  26.6704  11.2936   C.3       1 RES1   0.0000
     6 C6      21.8662  26.6110  12.8020   C.3       1 RES1   0.0000
     7 C7      20.8002  27.5177  13.3398   C.2       1 RES1   0.0000
     8 O8      20.8342  28.6808  12.9817   O.2       1 RES1   0.0000
     9 N9      19.8893  27.0497  14.2030   N.am      1 RES1   0.0000
    10 C10     18.8371  27.8808  14.8099   C.3       1 RES1   0.0000
    11 C11     17.5015  27.5887  14.1223   C.3       1 RES1   0.0000
    12 C12     17.5876  28.0279  12.6813   C.2       1 RES1   0.0000
    13 C13     17.2299  29.3253  12.3164   C.2       1 RES1   0.0000
    14 C14     17.2880  29.7340  10.9950   C.2       1 RES1   0.0000
    15 C15     17.7101  28.8412  10.0206   C.2       1 RES1   0.0000
    16 C16     18.0449  27.5550  10.3793   C.2       1 RES1   0.0000
    17 C17     18.0040  27.1448  11.6997   C.2       1 RES1   0.0000
    18 C18     18.7903  27.6372  16.3308   C.3       1 RES1   0.0000
    19 O19     18.2622  26.3370  16.5878   O.3       1 RES1   0.0000
    20 C20     17.9836  28.6931  17.1262   C.3       1 RES1   0.0000
    21 N21     18.7149  29.9749  16.9895   N.3       1 RES1   0.0000
    22 C22     19.8859  30.0722  17.8883   C.3       1 RES1   0.0000
    23 C23     21.0672  30.6076  17.0743   C.3       1 RES1   0.0000
    24 C24     21.8843  31.3984  18.2620   C.3       1 RES1   0.0000
    25 C25     21.6935  32.0181  16.9249   C.3       1 RES1   0.0000
    26 S26     17.7800  31.3076  16.9886   S.o2      1 RES1   0.0000
    27 O27     16.8496  31.1897  15.9085   O.2       1 RES1   0.0000
    28 O28     18.6710  32.4228  16.8236   O.2       1 RES1   0.0000
    29 C29     16.9431  31.5290  18.4037   C.2       1 RES1   0.0000
    30 C30     15.6694  30.9859  18.5790   C.2       1 RES1   0.0000
    31 C31     14.9798  31.1753  19.7775   C.2       1 RES1   0.0000
    32 C32     15.5573  31.9134  20.8000   C.2       1 RES1   0.0000
    33 C33     16.8384  32.4544  20.6392   C.2       1 RES1   0.0000
    34 O34     17.4671  33.1962  21.6196   O.3       1 RES1   0.0000
    35 C35     16.8861  33.4871  22.8850   C.3       1 RES1   0.0000
    36 C36     17.5159  32.2597  19.4403   C.2       1 RES1   0.0000
@<TRIPOS>BOND
     1     1     2    1
     2     2     3   am
     3     3     4    2
     4     3     5    1
     5     5     6    1
     6     6     7    1
     7     7     8    2
     8     7     9   am
     9     9    10    1
    10    10    11    1
    11    11    12    1
    12    12    13    2
    13    13    14    1
    14    14    15    2
    15    15    16    1
    16    16    17    2
    17    10    18    1
    18    18    19    1
    19    18    20    1
    20    20    21    1
    21    21    22    1
    22    22    23    1
    23    23    24    1
    24    24    25    1
    25    21    26    1
    26    26    27    2
    27    26    28    2
    28    26    29    1
    29    29    30    2
    30    30    31    1
    31    31    32    2
    32    32    33    1
    33    33    34    1
    34    34    35    1
    35    33    36    2
    36    17    12    1
    37    25    23    1
    38    36    29    1
@<TRIPOS>SUBSTRUCTURE
     1 RES1        1 GROUP             0 ****  ****    0  
@<TRIPOS>MOLECULE
ligand_68
    36    38     1     0     0
SMALL
NO_CHARGES
****
Generated from the CSD

@<TRIPOS>ATOM
     1 C1      24.1110  24.8000   8.8660   C.3       1 RES1   0.0000
     2 N2      23.1030  25.6580   9.4670   N.am      1 RES1   0.0000
     3 C3      22.9450  25.7490  10.7890   C.2       1 RES1   0.0000
     4 O4      23.6441  25.1109  11.5865   O.2       1 RES1   0.0000
     5 C5      21.8635  26.6704  11.2936   C.3       1 RES1   0.0000
     6 C6      21.8662  26.6110  12.8020   C.3       1 RES1   0.0000
     7 C7      20.8002  27.5177  13.3398   C.2       1 RES1   0.0000
     8 O8      20.8342  28.6808  12.9817   O.2       1 RES1   0.0000
     9 N9      19.8893  27.0497  14.2030   N.am      1 RES1   0.0000
    10 C10     18.8371  27.8808  14.8099   C.3       1 RES1   0.0000
    11 C11     17.5015  27.5887  14.1223   C.3       1 RES1   0.0000
    12 C12     17.5876  28.0279  12.6813   C.2       1 RES1   0.0000
    13 C13     17.2299  29.3253  12.3164   C.2       1 RES1   0.0000
    14 C14     17.2880  29.7340  10.9950   C.2       1 RES1   0.0000
    15 C15     17.7101  28.8412  10.0206   C.2       1 RES1   0.0000
    16 C16     18.0449  27.5550  10.3793   C.2       1 RES1   0.0000
    17 C17     18.0040  27.1448  11.6997   C.2       1 RES1   0.0000
    18 C18     18.7903  27.6372  16.3308   C.3       1 RES1   0.0000
    19 O19     18.2622  26.3370  16.5878   O.3       1 RES1   0.0000
    20 C20     17.9836  28.6931  17.1262   C.3       1 RES1   0.0000
    21 N21     18.7149  29.9749  16.9895   N.3       1 RES1   0.0000
    22 C22     19.8859  30.0722  17.8883   C.3       1 RES1   0.0000
    23 C23     21.0672  30.6076  17.0743   C.3       1 RES1   0.0000
    24 C24     21.8843  31.3984  18.2620   C.3       1 RES1   0.0000
    25 C25     21.6935  32.0181  16.9249   C.3       1 RES1   0.0000
    26 S26     17.7800  31.3076  16.9886   S.o2      1 RES1   0.0000
    27 O27     16.8496  31.1897  15.9085   O.2       1 RES1   0.0000
    28 O28     18.6710  32.4228  16.8236   O.2       1 RES1   0.0000
    29 C29     16.9431  31.5290  18.4037   C.2       1 RES1   0.0000
    30 C30     17.4907  32.2641  19.4562   C.2       1 RES1   0.0000
    31 C31     16.7723  32.4471  20.6386   C.2       1 RES1   0.0000
    32 C32     15.5093  31.8903  20.7753   C.2       1 RES1   0.0000
    33 C33     14.9459  31.1595  19.7226   C.2       1 RES1   0.0000
    34 O34     13.6935  30.5826  19.7967   O.3       1 RES1   0.0000
    35 C35     12.8504  30.6683  20.9392   C.3       1 RES1   0.0000
    36 C36     15.6713  30.9831  18.5491   C.2       1 RES1   0.0000
@<TRIPOS>BOND
     1     1     2    1
     2     2     3   am
     3     3     4    2
     4     3     5    1
     5     5     6    1
     6     6     7    1
     7     7     8    2
     8     7     9   am
     9     9    10    1
    10    10    11    1
    11    11    12    1
    12    12    13    2
    13    13    14    1
    14    14    15    2
    15    15    16    1
    16    16    17    2
    17    10    18    1
    18    18    19    1
    19    18    20    1
    20    20    21    1
    21    21    22    1
    22    22    23    1
    23    23    24    1
    24    24    25    1
    25    21    26    1
    26    26    27    2
    27    26    28    2
    28    26    29    1
    29    29    30    2
    30    30    31    1
    31    31    32    2
    32    32    33    1
    33    33    34    1
    34    34    35    1
    35    33    36    2
    36    17    12    1
    37    25    23    1
    38    36    29    1
@<TRIPOS>SUBSTRUCTURE
     1 RES1        1 GROUP             0 ****  ****    0  
@<TRIPOS>MOLECULE
ligand_69
    36    38     1     0     0
SMALL
NO_CHARGES
****
Generated from the CSD

@<TRIPOS>ATOM
     1 C1      24.1495  25.0703   8.8433   C.3       1 RES1   0.0000
     2 N2      23.1071  25.8540   9.4855   N.am      1 RES1   0.0000
     3 C3      22.9789  25.9126  10.8126   C.2       1 RES1   0.0000
     4 O4      23.7366  25.3054  11.5801   O.2       1 RES1   0.0000
     5 C5      21.8567  26.7567  11.3615   C.3       1 RES1   0.0000
     6 C6      21.8877  26.6524  12.8671   C.3       1 RES1   0.0000
     7 C7      21.3963  25.2990  13.2847   C.2       1 RES1   0.0000
     8 O8      21.0715  24.5327  12.3961   O.2       1 RES1   0.0000
     9 N9      21.2938  24.9900  14.5839   N.am      1 RES1   0.0000
    10 C10     20.7607  23.7107  15.0792   C.3       1 RES1   0.0000
    11 C11     21.9157  22.8413  15.5812   C.3       1 RES1   0.0000
    12 C12     22.7933  22.4715  14.4108   C.2       1 RES1   0.0000
    13 C13     22.5305  21.3213  13.6674   C.2       1 RES1   0.0000
    14 C14     23.3393  20.9626  12.6026   C.2       1 RES1   0.0000
    15 C15     24.4247  21.7596  12.2689   C.2       1 RES1   0.0000
    16 C16     24.6942  22.8845  13.0151   C.2       1 RES1   0.0000
    17 C17     23.8813  23.2571  14.0705   C.2       1 RES1   0.0000
    18 C18     19.6966  23.9719  16.1627   C.3       1 RES1   0.0000
    19 O19     19.2469  22.7278  16.6969   O.3       1 RES1   0.0000
    20 C20     18.4806  24.8019  15.6823   C.3       1 RES1   0.0000
    21 N21     18.9839  26.1684  15.4068   N.3       1 RES1   0.0000
    22 C22     19.1584  26.9792  16.6319   C.3       1 RES1   0.0000
    23 C23     20.5183  27.6783  16.5500   C.3       1 RES1   0.0000
    24 C24     20.1821  29.0367  17.4133   C.3       1 RES1   0.0000
    25 C25     20.9458  29.1114  16.1407   C.3       1 RES1   0.0000
    26 S26     18.2200  26.9573  14.2050   S.o2      1 RES1   0.0000
    27 O27     18.3443  26.1714  13.0163   O.2       1 RES1   0.0000
    28 O28     18.8687  28.2340  14.0869   O.2       1 RES1   0.0000
    29 C29     16.6122  27.2290  14.5099   C.2       1 RES1   0.0000
    30 C30     15.6408  26.3015  14.1301   C.2       1 RES1   0.0000
    31 C31     14.2924  26.5409  14.3988   C.2       1 RES1   0.0000
    32 C32     13.9106  27.7099  15.0403   C.2       1 RES1   0.0000
    33 C33     14.8769  28.6427  15.4348   C.2       1 RES1   0.0000
    34 O34     14.5607  29.8231  16.0779   O.3       1 RES1   0.0000
    35 C35     13.2324  30.2134  16.4048   C.3       1 RES1   0.0000
    36 C36     16.2177  28.3938  15.1613   C.2       1 RES1   0.0000
@<TRIPOS>BOND
     1     1     2    1
     2     2     3   am
     3     3     4    2
     4     3     5    1
     5     5     6    1
     6     6     7    1
     7     7     8    2
     8     7     9   am
     9     9    10    1
    10    10    11    1
    11    11    12    1
    12    12    13    2
    13    13    14    1
    14    14    15    2
    15    15    16    1
    16    16    17    2
    17    10    18    1
    18    18    19    1
    19    18    20    1
    20    20    21    1
    21    21    22    1
    22    22    23    1
    23    23    24    1
    24    24    25    1
    25    21    26    1
    26    26    27    2
    27    26    28    2
    28    26    29    1
    29    29    30    2
    30    30    31    1
    31    31    32    2
    32    32    33    1
    33    33    34    1
    34    34    35    1
    35    33    36    2
    36    17    12    1
    37    25    23    1
    38    36    29    1
@<TRIPOS>SUBSTRUCTURE
     1 RES1        1 GROUP             0 ****  ****    0  
@<TRIPOS>MOLECULE
ligand_70
    36    38     1     0     0
SMALL
NO_CHARGES
****
Generated from the CSD

@<TRIPOS>ATOM
     1 C1      24.1495  25.0703   8.8433   C.3       1 RES1   0.0000
     2 N2      23.1071  25.8540   9.4855   N.am      1 RES1   0.0000
     3 C3      22.9789  25.9126  10.8126   C.2       1 RES1   0.0000
     4 O4      23.7366  25.3054  11.5801   O.2       1 RES1   0.0000
     5 C5      21.8567  26.7567  11.3615   C.3       1 RES1   0.0000
     6 C6      21.8877  26.6524  12.8671   C.3       1 RES1   0.0000
     7 C7      21.3963  25.2990  13.2847   C.2       1 RES1   0.0000
     8 O8      21.0715  24.5327  12.3961   O.2       1 RES1   0.0000
     9 N9      21.2938  24.9900  14.5839   N.am      1 RES1   0.0000
    10 C10     20.7607  23.7107  15.0792   C.3       1 RES1   0.0000
    11 C11     21.9157  22.8413  15.5812   C.3       1 RES1   0.0000
    12 C12     22.7933  22.4715  14.4108   C.2       1 RES1   0.0000
    13 C13     22.5305  21.3213  13.6674   C.2       1 RES1   0.0000
    14 C14     23.3393  20.9626  12.6026   C.2       1 RES1   0.0000
    15 C15     24.4247  21.7596  12.2689   C.2       1 RES1   0.0000
    16 C16     24.6942  22.8845  13.0151   C.2       1 RES1   0.0000
    17 C17     23.8813  23.2571  14.0705   C.2       1 RES1   0.0000
    18 C18     19.6966  23.9719  16.1627   C.3       1 RES1   0.0000
    19 O19     19.2469  22.7278  16.6969   O.3       1 RES1   0.0000
    20 C20     18.4806  24.8019  15.6823   C.3       1 RES1   0.0000
    21 N21     18.9839  26.1684  15.4068   N.3       1 RES1   0.0000
    22 C22     19.1584  26.9792  16.6319   C.3       1 RES1   0.0000
    23 C23     20.5183  27.6783  16.5500   C.3       1 RES1   0.0000
    24 C24     20.1821  29.0367  17.4133   C.3       1 RES1   0.0000
    25 C25     20.9458  29.1114  16.1407   C.3       1 RES1   0.0000
    26 S26     18.2200  26.9573  14.2050   S.o2      1 RES1   0.0000
    27 O27     18.3443  26.1714  13.0163   O.2       1 RES1   0.0000
    28 O28     18.8687  28.2340  14.0869   O.2       1 RES1   0.0000
    29 C29     16.6122  27.2290  14.5099   C.2       1 RES1   0.0000
    30 C30     16.1884  28.3922  15.1544   C.2       1 RES1   0.0000
    31 C31     14.8317  28.6099  15.3988   C.2       1 RES1   0.0000
    32 C32     13.8965  27.6635  15.0071   C.2       1 RES1   0.0000
    33 C33     14.3089  26.4977  14.3510   C.2       1 RES1   0.0000
    34 O34     13.4271  25.5198  13.9352   O.3       1 RES1   0.0000
    35 C35     12.0195  25.5917  14.1272   C.3       1 RES1   0.0000
    36 C36     15.6636  26.2911  14.1134   C.2       1 RES1   0.0000
@<TRIPOS>BOND
     1     1     2    1
     2     2     3   am
     3     3     4    2
     4     3     5    1
     5     5     6    1
     6     6     7    1
     7     7     8    2
     8     7     9   am
     9     9    10    1
    10    10    11    1
    11    11    12    1
    12    12    13    2
    13    13    14    1
    14    14    15    2
    15    15    16    1
    16    16    17    2
    17    10    18    1
    18    18    19    1
    19    18    20    1
    20    20    21    1
    21    21    22    1
    22    22    23    1
    23    23    24    1
    24    24    25    1
    25    21    26    1
    26    26    27    2
    27    26    28    2
    28    26    29    1
    29    29    30    2
    30    30    31    1
    31    31    32    2
    32    32    33    1
    33    33    34    1
    34    34    35    1
    35    33    36    2
    36    17    12    1
    37    25    23    1
    38    36    29    1
@<TRIPOS>SUBSTRUCTURE
     1 RES1        1 GROUP             0 ****  ****    0  
@<TRIPOS>MOLECULE
ligand_71
    36    38     1     0     0
SMALL
NO_CHARGES
****
Generated from the CSD

@<TRIPOS>ATOM
     1 C1      24.0214  24.6133   8.9064   C.3       1 RES1   0.0000
     2 N2      23.0674  25.5428   9.4890   N.am      1 RES1   0.0000
     3 C3      22.8966  25.6508  10.8081   C.2       1 RES1   0.0000
     4 O4      23.5372  24.9689  11.6184   O.2       1 RES1   0.0000
     5 C5      21.8752  26.6482  11.2930   C.3       1 RES1   0.0000
     6 C6      21.8662  26.6109  12.8020   C.3       1 RES1   0.0000
     7 C7      23.1151  27.2543  13.3254   C.2       1 RES1   0.0000
     8 O8      23.8919  27.7004  12.5009   O.2       1 RES1   0.0000
     9 N9      23.3557  27.2872  14.6425   N.am      1 RES1   0.0000
    10 C10     24.5744  27.8610  15.2357   C.3       1 RES1   0.0000
    11 C11     24.1840  28.9079  16.2814   C.3       1 RES1   0.0000
    12 C12     23.4888  30.0543  15.5890   C.2       1 RES1   0.0000
    13 C13     24.2226  31.1394  15.1109   C.2       1 RES1   0.0000
    14 C14     23.5938  32.2049  14.4899   C.2       1 RES1   0.0000
    15 C15     22.2147  32.1920  14.3390   C.2       1 RES1   0.0000
    16 C16     21.4894  31.1292  14.8281   C.2       1 RES1   0.0000
    17 C17     22.1128  30.0542  15.4357   C.2       1 RES1   0.0000
    18 C18     25.4524  26.7362  15.8174   C.3       1 RES1   0.0000
    19 O19     24.8310  26.2045  16.9864   O.3       1 RES1   0.0000
    20 C20     26.9049  27.1603  16.1473   C.3       1 RES1   0.0000
    21 N21     27.6198  25.9310  16.5647   N.3       1 RES1   0.0000
    22 C22     28.4236  26.1172  17.7927   C.3       1 RES1   0.0000
    23 C23     28.1595  24.9269  18.7192   C.3       1 RES1   0.0000
    24 C24     29.6084  24.8535  19.4930   C.3       1 RES1   0.0000
    25 C25     28.9406  23.6186  19.0058   C.3       1 RES1   0.0000
    26 S26     28.4158  25.1562  15.3746   S.o2      1 RES1   0.0000
    27 O27     27.4648  24.8121  14.3630   O.2       1 RES1   0.0000
    28 O28     29.0140  23.9982  15.9795   O.2       1 RES1   0.0000
    29 C29     29.6291  26.0597  14.6938   C.2       1 RES1   0.0000
    30 C30     29.3817  26.8872  13.5974   C.2       1 RES1   0.0000
    31 C31     30.4112  27.6461  13.0390   C.2       1 RES1   0.0000
    32 C32     31.6909  27.5747  13.5692   C.2       1 RES1   0.0000
    33 C33     31.9486  26.7559  14.6750   C.2       1 RES1   0.0000
    34 O34     33.1995  26.6433  15.2489   O.3       1 RES1   0.0000
    35 C35     34.3484  27.3403  14.7824   C.3       1 RES1   0.0000
    36 C36     30.9150  26.0035  15.2228   C.2       1 RES1   0.0000
@<TRIPOS>BOND
     1     1     2    1
     2     2     3   am
     3     3     4    2
     4     3     5    1
     5     5     6    1
     6     6     7    1
     7     7     8    2
     8     7     9   am
     9     9    10    1
    10    10    11    1
    11    11    12    1
    12    12    13    2
    13    13    14    1
    14    14    15    2
    15    15    16    1
    16    16    17    2
    17    10    18    1
    18    18    19    1
    19    18    20    1
    20    20    21    1
    21    21    22    1
    22    22    23    1
    23    23    24    1
    24    24    25    1
    25    21    26    1
    26    26    27    2
    27    26    28    2
    28    26    29    1
    29    29    30    2
    30    30    31    1
    31    31    32    2
    32    32    33    1
    33    33    34    1
    34    34    35    1
    35    33    36    2
    36    17    12    1
    37    25    23    1
    38    36    29    1
@<TRIPOS>SUBSTRUCTURE
     1 RES1        1 GROUP             0 ****  ****    0  
@<TRIPOS>MOLECULE
ligand_72
    36    38     1     0     0
SMALL
NO_CHARGES
****
Generated from the CSD

@<TRIPOS>ATOM
     1 C1      24.0214  24.6133   8.9064   C.3       1 RES1   0.0000
     2 N2      23.0674  25.5428   9.4890   N.am      1 RES1   0.0000
     3 C3      22.8966  25.6508  10.8081   C.2       1 RES1   0.0000
     4 O4      23.5372  24.9689  11.6184   O.2       1 RES1   0.0000
     5 C5      21.8752  26.6482  11.2930   C.3       1 RES1   0.0000
     6 C6      21.8662  26.6109  12.8020   C.3       1 RES1   0.0000
     7 C7      23.1151  27.2543  13.3254   C.2       1 RES1   0.0000
     8 O8      23.8919  27.7004  12.5009   O.2       1 RES1   0.0000
     9 N9      23.3557  27.2872  14.6425   N.am      1 RES1   0.0000
    10 C10     24.5744  27.8610  15.2357   C.3       1 RES1   0.0000
    11 C11     24.1840  28.9079  16.2814   C.3       1 RES1   0.0000
    12 C12     23.4888  30.0543  15.5890   C.2       1 RES1   0.0000
    13 C13     24.2226  31.1394  15.1109   C.2       1 RES1   0.0000
    14 C14     23.5938  32.2049  14.4899   C.2       1 RES1   0.0000
    15 C15     22.2147  32.1920  14.3390   C.2       1 RES1   0.0000
    16 C16     21.4894  31.1292  14.8281   C.2       1 RES1   0.0000
    17 C17     22.1128  30.0542  15.4357   C.2       1 RES1   0.0000
    18 C18     25.4524  26.7362  15.8174   C.3       1 RES1   0.0000
    19 O19     24.8310  26.2045  16.9864   O.3       1 RES1   0.0000
    20 C20     26.9049  27.1603  16.1473   C.3       1 RES1   0.0000
    21 N21     27.6198  25.9310  16.5647   N.3       1 RES1   0.0000
    22 C22     28.4236  26.1172  17.7927   C.3       1 RES1   0.0000
    23 C23     28.1595  24.9269  18.7192   C.3       1 RES1   0.0000
    24 C24     29.6084  24.8535  19.4930   C.3       1 RES1   0.0000
    25 C25     28.9406  23.6186  19.0058   C.3       1 RES1   0.0000
    26 S26     28.4158  25.1562  15.3746   S.o2      1 RES1   0.0000
    27 O27     27.4648  24.8121  14.3630   O.2       1 RES1   0.0000
    28 O28     29.0140  23.9982  15.9795   O.2       1 RES1   0.0000
    29 C29     29.6291  26.0597  14.6938   C.2       1 RES1   0.0000
    30 C30     30.9293  26.0161  15.1995   C.2       1 RES1   0.0000
    31 C31     31.9411  26.7772  14.6125   C.2       1 RES1   0.0000
    32 C32     31.6554  27.5887  13.5246   C.2       1 RES1   0.0000
    33 C33     30.3572  27.6328  13.0026   C.2       1 RES1   0.0000
    34 O34     30.0104  28.4186  11.9214   O.3       1 RES1   0.0000
    35 C35     30.9260  29.2589  11.2293   C.3       1 RES1   0.0000
    36 C36     29.3567  26.8705  13.5961   C.2       1 RES1   0.0000
@<TRIPOS>BOND
     1     1     2    1
     2     2     3   am
     3     3     4    2
     4     3     5    1
     5     5     6    1
     6     6     7    1
     7     7     8    2
     8     7     9   am
     9     9    10    1
    10    10    11    1
    11    11    12    1
    12    12    13    2
    13    13    14    1
    14    14    15    2
    15    15    16    1
    16    16    17    2
    17    10    18    1
    18    18    19    1
    19    18    20    1
    20    20    21    1
    21    21    22    1
    22    22    23    1
    23    23    24    1
    24    24    25    1
    25    21    26    1
    26    26    27    2
    27    26    28    2
    28    26    29    1
    29    29    30    2
    30    30    31    1
    31    31    32    2
    32    32    33    1
    33    33    34    1
    34    34    35    1
    35    33    36    2
    36    17    12    1
    37    25    23    1
    38    36    29    1
@<TRIPOS>SUBSTRUCTURE
     1 RES1        1 GROUP             0 ****  ****    0  
@<TRIPOS>MOLECULE
ligand_73
    36    38     1     0     0
SMALL
NO_CHARGES
****
Generated from the CSD

@<TRIPOS>ATOM
     1 C1      24.2777  24.9117   8.9153   C.3       1 RES1   0.0000
     2 N2      23.2079  25.7081   9.4939   N.am      1 RES1   0.0000
     3 C3      23.0322  25.8095  10.8129   C.2       1 RES1   0.0000
     4 O4      23.7663  25.2341  11.6265   O.2       1 RES1   0.0000
     5 C5      21.8856  26.6625  11.2935   C.3       1 RES1   0.0000
     6 C6      21.8660  26.6111  12.8020   C.3       1 RES1   0.0000
     7 C7      21.3835  25.2643  13.2501   C.2       1 RES1   0.0000
     8 O8      21.0801  24.4700  12.3788   O.2       1 RES1   0.0000
     9 N9      21.2654  24.9904  14.5559   N.am      1 RES1   0.0000
    10 C10     20.7607  23.7107  15.0792   C.3       1 RES1   0.0000
    11 C11     21.7814  23.1262  16.0582   C.3       1 RES1   0.0000
    12 C12     23.0440  22.7888  15.3040   C.2       1 RES1   0.0000
    13 C13     23.2100  21.5268  14.7345   C.2       1 RES1   0.0000
    14 C14     24.3714  21.2002  14.0556   C.2       1 RES1   0.0000
    15 C15     25.3832  22.1421  13.9380   C.2       1 RES1   0.0000
    16 C16     25.2261  23.3812  14.5167   C.2       1 RES1   0.0000
    17 C17     24.0620  23.7194  15.1831   C.2       1 RES1   0.0000
    18 C18     19.3733  23.9172  15.7172   C.3       1 RES1   0.0000
    19 O19     19.5141  24.6478  16.9346   O.3       1 RES1   0.0000
    20 C20     18.5872  22.6097  15.9830   C.3       1 RES1   0.0000
    21 N21     17.2464  23.0137  16.4683   N.3       1 RES1   0.0000
    22 C22     16.8096  22.2557  17.6614   C.3       1 RES1   0.0000
    23 C23     16.2374  23.2513  18.6743   C.3       1 RES1   0.0000
    24 C24     15.1343  22.2847  19.4175   C.3       1 RES1   0.0000
    25 C25     14.7907  23.6785  19.0332   C.3       1 RES1   0.0000
    26 S26     16.1020  23.1352  15.3169   S.o2      1 RES1   0.0000
    27 O27     16.5489  24.0940  14.3541   O.2       1 RES1   0.0000
    28 O28     14.9011  23.5519  15.9869   O.2       1 RES1   0.0000
    29 C29     15.7843  21.7007  14.5468   C.2       1 RES1   0.0000
    30 C30     16.4890  21.3272  13.4015   C.2       1 RES1   0.0000
    31 C31     16.2150  20.1143  12.7678   C.2       1 RES1   0.0000
    32 C32     15.2318  19.2758  13.2718   C.2       1 RES1   0.0000
    33 C33     14.5254  19.6353  14.4257   C.2       1 RES1   0.0000
    34 O34     13.5374  18.8436  14.9768   O.3       1 RES1   0.0000
    35 C35     13.1358  17.5905  14.4364   C.3       1 RES1   0.0000
    36 C36     14.8067  20.8467  15.0484   C.2       1 RES1   0.0000
@<TRIPOS>BOND
     1     1     2    1
     2     2     3   am
     3     3     4    2
     4     3     5    1
     5     5     6    1
     6     6     7    1
     7     7     8    2
     8     7     9   am
     9     9    10    1
    10    10    11    1
    11    11    12    1
    12    12    13    2
    13    13    14    1
    14    14    15    2
    15    15    16    1
    16    16    17    2
    17    10    18    1
    18    18    19    1
    19    18    20    1
    20    20    21    1
    21    21    22    1
    22    22    23    1
    23    23    24    1
    24    24    25    1
    25    21    26    1
    26    26    27    2
    27    26    28    2
    28    26    29    1
    29    29    30    2
    30    30    31    1
    31    31    32    2
    32    32    33    1
    33    33    34    1
    34    34    35    1
    35    33    36    2
    36    17    12    1
    37    25    23    1
    38    36    29    1
@<TRIPOS>SUBSTRUCTURE
     1 RES1        1 GROUP             0 ****  ****    0  
@<TRIPOS>MOLECULE
ligand_74
    36    38     1     0     0
SMALL
NO_CHARGES
****
Generated from the CSD

@<TRIPOS>ATOM
     1 C1      24.2777  24.9117   8.9153   C.3       1 RES1   0.0000
     2 N2      23.2079  25.7081   9.4939   N.am      1 RES1   0.0000
     3 C3      23.0322  25.8095  10.8129   C.2       1 RES1   0.0000
     4 O4      23.7663  25.2341  11.6265   O.2       1 RES1   0.0000
     5 C5      21.8856  26.6625  11.2935   C.3       1 RES1   0.0000
     6 C6      21.8660  26.6111  12.8020   C.3       1 RES1   0.0000
     7 C7      21.3835  25.2643  13.2501   C.2       1 RES1   0.0000
     8 O8      21.0801  24.4700  12.3788   O.2       1 RES1   0.0000
     9 N9      21.2654  24.9904  14.5559   N.am      1 RES1   0.0000
    10 C10     20.7607  23.7107  15.0792   C.3       1 RES1   0.0000
    11 C11     21.7814  23.1262  16.0582   C.3       1 RES1   0.0000
    12 C12     23.0440  22.7888  15.3040   C.2       1 RES1   0.0000
    13 C13     23.2100  21.5268  14.7345   C.2       1 RES1   0.0000
    14 C14     24.3714  21.2002  14.0556   C.2       1 RES1   0.0000
    15 C15     25.3832  22.1421  13.9380   C.2       1 RES1   0.0000
    16 C16     25.2261  23.3812  14.5167   C.2       1 RES1   0.0000
    17 C17     24.0620  23.7194  15.1831   C.2       1 RES1   0.0000
    18 C18     19.3733  23.9172  15.7172   C.3       1 RES1   0.0000
    19 O19     19.5141  24.6478  16.9346   O.3       1 RES1   0.0000
    20 C20     18.5872  22.6097  15.9830   C.3       1 RES1   0.0000
    21 N21     17.2464  23.0137  16.4683   N.3       1 RES1   0.0000
    22 C22     16.8096  22.2557  17.6614   C.3       1 RES1   0.0000
    23 C23     16.2374  23.2513  18.6743   C.3       1 RES1   0.0000
    24 C24     15.1343  22.2847  19.4175   C.3       1 RES1   0.0000
    25 C25     14.7907  23.6785  19.0332   C.3       1 RES1   0.0000
    26 S26     16.1020  23.1352  15.3169   S.o2      1 RES1   0.0000
    27 O27     16.5489  24.0940  14.3541   O.2       1 RES1   0.0000
    28 O28     14.9011  23.5519  15.9869   O.2       1 RES1   0.0000
    29 C29     15.7843  21.7007  14.5468   C.2       1 RES1   0.0000
    30 C30     14.8038  20.8294  15.0240   C.2       1 RES1   0.0000
    31 C31     14.5433  19.6287  14.3620   C.2       1 RES1   0.0000
    32 C32     15.2662  19.2921  13.2271   C.2       1 RES1   0.0000
    33 C33     16.2451  20.1628  12.7337   C.2       1 RES1   0.0000
    34 O34     16.9964  19.8856  11.6087   O.3       1 RES1   0.0000
    35 C35     16.8573  18.6976  10.8387   C.3       1 RES1   0.0000
    36 C36     16.4965  21.3564  13.4019   C.2       1 RES1   0.0000
@<TRIPOS>BOND
     1     1     2    1
     2     2     3   am
     3     3     4    2
     4     3     5    1
     5     5     6    1
     6     6     7    1
     7     7     8    2
     8     7     9   am
     9     9    10    1
    10    10    11    1
    11    11    12    1
    12    12    13    2
    13    13    14    1
    14    14    15    2
    15    15    16    1
    16    16    17    2
    17    10    18    1
    18    18    19    1
    19    18    20    1
    20    20    21    1
    21    21    22    1
    22    22    23    1
    23    23    24    1
    24    24    25    1
    25    21    26    1
    26    26    27    2
    27    26    28    2
    28    26    29    1
    29    29    30    2
    30    30    31    1
    31    31    32    2
    32    32    33    1
    33    33    34    1
    34    34    35    1
    35    33    36    2
    36    17    12    1
    37    25    23    1
    38    36    29    1
@<TRIPOS>SUBSTRUCTURE
     1 RES1        1 GROUP             0 ****  ****    0  
@<TRIPOS>MOLECULE
ligand_75
    36    38     1     0     0
SMALL
NO_CHARGES
****
Generated from the CSD

@<TRIPOS>ATOM
     1 C1      24.0196  24.6148   8.9046   C.3       1 RES1   0.0000
     2 N2      23.0658  25.5440   9.4880   N.am      1 RES1   0.0000
     3 C3      22.8960  25.6519  10.8072   C.2       1 RES1   0.0000
     4 O4      23.5375  24.9702  11.6169   O.2       1 RES1   0.0000
     5 C5      21.8747  26.6490  11.2930   C.3       1 RES1   0.0000
     6 C6      21.8663  26.6108  12.8020   C.3       1 RES1   0.0000
     7 C7      23.1151  27.2543  13.3254   C.2       1 RES1   0.0000
     8 O8      23.8920  27.7002  12.5009   O.2       1 RES1   0.0000
     9 N9      23.3557  27.2872  14.6425   N.am      1 RES1   0.0000
    10 C10     24.5744  27.8610  15.2357   C.3       1 RES1   0.0000
    11 C11     24.1840  28.9079  16.2814   C.3       1 RES1   0.0000
    12 C12     23.4888  30.0543  15.5890   C.2       1 RES1   0.0000
    13 C13     24.2226  31.1394  15.1109   C.2       1 RES1   0.0000
    14 C14     23.5938  32.2049  14.4899   C.2       1 RES1   0.0000
    15 C15     22.2147  32.1920  14.3390   C.2       1 RES1   0.0000
    16 C16     21.4894  31.1292  14.8281   C.2       1 RES1   0.0000
    17 C17     22.1128  30.0542  15.4357   C.2       1 RES1   0.0000
    18 C18     25.4524  26.7362  15.8174   C.3       1 RES1   0.0000
    19 O19     24.8310  26.2045  16.9864   O.3       1 RES1   0.0000
    20 C20     26.9049  27.1603  16.1473   C.3       1 RES1   0.0000
    21 N21     27.6311  25.9243  16.5237   N.3       1 RES1   0.0000
    22 C22     27.4716  25.5710  17.9514   C.3       1 RES1   0.0000
    23 C23     27.1258  24.0818  18.0371   C.3       1 RES1   0.0000
    24 C24     27.7972  23.7266  19.4954   C.3       1 RES1   0.0000
    25 C25     27.9720  22.8168  18.3336   C.3       1 RES1   0.0000
    26 S26     29.1693  25.8389  15.9977   S.o2      1 RES1   0.0000
    27 O27     29.1516  25.9474  14.5715   O.2       1 RES1   0.0000
    28 O28     29.6761  24.5703  16.4434   O.2       1 RES1   0.0000
    29 C29     30.1475  27.0254  16.6199   C.2       1 RES1   0.0000
    30 C30     30.2962  28.2507  15.9682   C.2       1 RES1   0.0000
    31 C31     31.1180  29.2418  16.5068   C.2       1 RES1   0.0000
    32 C32     31.7985  29.0089  17.6928   C.2       1 RES1   0.0000
    33 C33     31.6491  27.7876  18.3604   C.2       1 RES1   0.0000
    34 O34     32.2976  27.4963  19.5442   O.3       1 RES1   0.0000
    35 C35     33.1780  28.3971  20.2052   C.3       1 RES1   0.0000
    36 C36     30.8280  26.8070  17.8139   C.2       1 RES1   0.0000
@<TRIPOS>BOND
     1     1     2    1
     2     2     3   am
     3     3     4    2
     4     3     5    1
     5     5     6    1
     6     6     7    1
     7     7     8    2
     8     7     9   am
     9     9    10    1
    10    10    11    1
    11    11    12    1
    12    12    13    2
    13    13    14    1
    14    14    15    2
    15    15    16    1
    16    16    17    2
    17    10    18    1
    18    18    19    1
    19    18    20    1
    20    20    21    1
    21    21    22    1
    22    22    23    1
    23    23    24    1
    24    24    25    1
    25    21    26    1
    26    26    27    2
    27    26    28    2
    28    26    29    1
    29    29    30    2
    30    30    31    1
    31    31    32    2
    32    32    33    1
    33    33    34    1
    34    34    35    1
    35    33    36    2
    36    17    12    1
    37    25    23    1
    38    36    29    1
@<TRIPOS>SUBSTRUCTURE
     1 RES1        1 GROUP             0 ****  ****    0  
@<TRIPOS>MOLECULE
ligand_76
    36    38     1     0     0
SMALL
NO_CHARGES
****
Generated from the CSD

@<TRIPOS>ATOM
     1 C1      24.0196  24.6148   8.9046   C.3       1 RES1   0.0000
     2 N2      23.0658  25.5440   9.4880   N.am      1 RES1   0.0000
     3 C3      22.8960  25.6519  10.8072   C.2       1 RES1   0.0000
     4 O4      23.5375  24.9702  11.6169   O.2       1 RES1   0.0000
     5 C5      21.8747  26.6490  11.2930   C.3       1 RES1   0.0000
     6 C6      21.8663  26.6108  12.8020   C.3       1 RES1   0.0000
     7 C7      23.1151  27.2543  13.3254   C.2       1 RES1   0.0000
     8 O8      23.8920  27.7002  12.5009   O.2       1 RES1   0.0000
     9 N9      23.3557  27.2872  14.6425   N.am      1 RES1   0.0000
    10 C10     24.5744  27.8610  15.2357   C.3       1 RES1   0.0000
    11 C11     24.1840  28.9079  16.2814   C.3       1 RES1   0.0000
    12 C12     23.4888  30.0543  15.5890   C.2       1 RES1   0.0000
    13 C13     24.2226  31.1394  15.1109   C.2       1 RES1   0.0000
    14 C14     23.5938  32.2049  14.4899   C.2       1 RES1   0.0000
    15 C15     22.2147  32.1920  14.3390   C.2       1 RES1   0.0000
    16 C16     21.4894  31.1292  14.8281   C.2       1 RES1   0.0000
    17 C17     22.1128  30.0542  15.4357   C.2       1 RES1   0.0000
    18 C18     25.4524  26.7362  15.8174   C.3       1 RES1   0.0000
    19 O19     24.8310  26.2045  16.9864   O.3       1 RES1   0.0000
    20 C20     26.9049  27.1603  16.1473   C.3       1 RES1   0.0000
    21 N21     27.6311  25.9243  16.5237   N.3       1 RES1   0.0000
    22 C22     27.4716  25.5710  17.9514   C.3       1 RES1   0.0000
    23 C23     27.1258  24.0818  18.0371   C.3       1 RES1   0.0000
    24 C24     27.7972  23.7266  19.4954   C.3       1 RES1   0.0000
    25 C25     27.9720  22.8168  18.3336   C.3       1 RES1   0.0000
    26 S26     29.1693  25.8389  15.9977   S.o2      1 RES1   0.0000
    27 O27     29.1516  25.9474  14.5715   O.2       1 RES1   0.0000
    28 O28     29.6761  24.5703  16.4434   O.2       1 RES1   0.0000
    29 C29     30.1475  27.0254  16.6199   C.2       1 RES1   0.0000
    30 C30     30.8475  26.8297  17.8114   C.2       1 RES1   0.0000
    31 C31     31.6716  27.8349  18.3196   C.2       1 RES1   0.0000
    32 C32     31.7924  29.0399  17.6433   C.2       1 RES1   0.0000
    33 C33     31.1029  29.2437  16.4421   C.2       1 RES1   0.0000
    34 O34     31.1832  30.4192  15.7220   O.3       1 RES1   0.0000
    35 C35     31.9673  31.5374  16.1197   C.3       1 RES1   0.0000
    36 C36     30.2841  28.2351  15.9456   C.2       1 RES1   0.0000
@<TRIPOS>BOND
     1     1     2    1
     2     2     3   am
     3     3     4    2
     4     3     5    1
     5     5     6    1
     6     6     7    1
     7     7     8    2
     8     7     9   am
     9     9    10    1
    10    10    11    1
    11    11    12    1
    12    12    13    2
    13    13    14    1
    14    14    15    2
    15    15    16    1
    16    16    17    2
    17    10    18    1
    18    18    19    1
    19    18    20    1
    20    20    21    1
    21    21    22    1
    22    22    23    1
    23    23    24    1
    24    24    25    1
    25    21    26    1
    26    26    27    2
    27    26    28    2
    28    26    29    1
    29    29    30    2
    30    30    31    1
    31    31    32    2
    32    32    33    1
    33    33    34    1
    34    34    35    1
    35    33    36    2
    36    17    12    1
    37    25    23    1
    38    36    29    1
@<TRIPOS>SUBSTRUCTURE
     1 RES1        1 GROUP             0 ****  ****    0  
@<TRIPOS>MOLECULE
ligand_77
    36    38     1     0     0
SMALL
NO_CHARGES
****
Generated from the CSD

@<TRIPOS>ATOM
     1 C1      24.2754  24.9134   8.9132   C.3       1 RES1   0.0000
     2 N2      23.2060  25.7096   9.4927   N.am      1 RES1   0.0000
     3 C3      23.0307  25.8100  10.8119   C.2       1 RES1   0.0000
     4 O4      23.7648  25.2336  11.6247   O.2       1 RES1   0.0000
     5 C5      21.8845  26.6629  11.2935   C.3       1 RES1   0.0000
     6 C6      21.8660  26.6111  12.8020   C.3       1 RES1   0.0000
     7 C7      21.3834  25.2643  13.2501   C.2       1 RES1   0.0000
     8 O8      21.0800  24.4701  12.3788   O.2       1 RES1   0.0000
     9 N9      21.2654  24.9904  14.5559   N.am      1 RES1   0.0000
    10 C10     20.7607  23.7107  15.0792   C.3       1 RES1   0.0000
    11 C11     21.7814  23.1262  16.0582   C.3       1 RES1   0.0000
    12 C12     23.0440  22.7888  15.3040   C.2       1 RES1   0.0000
    13 C13     23.2100  21.5268  14.7345   C.2       1 RES1   0.0000
    14 C14     24.3714  21.2002  14.0556   C.2       1 RES1   0.0000
    15 C15     25.3832  22.1421  13.9380   C.2       1 RES1   0.0000
    16 C16     25.2261  23.3812  14.5167   C.2       1 RES1   0.0000
    17 C17     24.0620  23.7194  15.1831   C.2       1 RES1   0.0000
    18 C18     19.3733  23.9172  15.7172   C.3       1 RES1   0.0000
    19 O19     19.5141  24.6478  16.9346   O.3       1 RES1   0.0000
    20 C20     18.5872  22.6097  15.9830   C.3       1 RES1   0.0000
    21 N21     17.2323  23.0139  16.4275   N.3       1 RES1   0.0000
    22 C22     17.1566  23.2861  17.8798   C.3       1 RES1   0.0000
    23 C23     16.4205  24.6143  18.0770   C.3       1 RES1   0.0000
    24 C24     15.7270  24.3301  19.5405   C.3       1 RES1   0.0000
    25 C25     14.9548  24.9651  18.4411   C.3       1 RES1   0.0000
    26 S26     16.0166  22.0839  15.8732   S.o2      1 RES1   0.0000
    27 O27     16.0604  22.1114  14.4437   O.2       1 RES1   0.0000
    28 O28     14.8051  22.6543  16.3943   O.2       1 RES1   0.0000
    29 C29     16.1012  20.5093  16.3884   C.2       1 RES1   0.0000
    30 C30     16.7906  19.5464  15.6497   C.2       1 RES1   0.0000
    31 C31     16.8583  18.2268  16.0987   C.2       1 RES1   0.0000
    32 C32     16.2318  17.8644  17.2819   C.2       1 RES1   0.0000
    33 C33     15.5459  18.8237  18.0363   C.2       1 RES1   0.0000
    34 O34     14.9040  18.5260  19.2221   O.3       1 RES1   0.0000
    35 C35     14.8714  17.2258  19.7981   C.3       1 RES1   0.0000
    36 C36     15.4845  20.1357  17.5786   C.2       1 RES1   0.0000
@<TRIPOS>BOND
     1     1     2    1
     2     2     3   am
     3     3     4    2
     4     3     5    1
     5     5     6    1
     6     6     7    1
     7     7     8    2
     8     7     9   am
     9     9    10    1
    10    10    11    1
    11    11    12    1
    12    12    13    2
    13    13    14    1
    14    14    15    2
    15    15    16    1
    16    16    17    2
    17    10    18    1
    18    18    19    1
    19    18    20    1
    20    20    21    1
    21    21    22    1
    22    22    23    1
    23    23    24    1
    24    24    25    1
    25    21    26    1
    26    26    27    2
    27    26    28    2
    28    26    29    1
    29    29    30    2
    30    30    31    1
    31    31    32    2
    32    32    33    1
    33    33    34    1
    34    34    35    1
    35    33    36    2
    36    17    12    1
    37    25    23    1
    38    36    29    1
@<TRIPOS>SUBSTRUCTURE
     1 RES1        1 GROUP             0 ****  ****    0  
@<TRIPOS>MOLECULE
ligand_78
    36    38     1     0     0
SMALL
NO_CHARGES
****
Generated from the CSD

@<TRIPOS>ATOM
     1 C1      24.2754  24.9134   8.9132   C.3       1 RES1   0.0000
     2 N2      23.2060  25.7096   9.4927   N.am      1 RES1   0.0000
     3 C3      23.0307  25.8100  10.8119   C.2       1 RES1   0.0000
     4 O4      23.7648  25.2336  11.6247   O.2       1 RES1   0.0000
     5 C5      21.8845  26.6629  11.2935   C.3       1 RES1   0.0000
     6 C6      21.8660  26.6111  12.8020   C.3       1 RES1   0.0000
     7 C7      21.3834  25.2643  13.2501   C.2       1 RES1   0.0000
     8 O8      21.0800  24.4701  12.3788   O.2       1 RES1   0.0000
     9 N9      21.2654  24.9904  14.5559   N.am      1 RES1   0.0000
    10 C10     20.7607  23.7107  15.0792   C.3       1 RES1   0.0000
    11 C11     21.7814  23.1262  16.0582   C.3       1 RES1   0.0000
    12 C12     23.0440  22.7888  15.3040   C.2       1 RES1   0.0000
    13 C13     23.2100  21.5268  14.7345   C.2       1 RES1   0.0000
    14 C14     24.3714  21.2002  14.0556   C.2       1 RES1   0.0000
    15 C15     25.3832  22.1421  13.9380   C.2       1 RES1   0.0000
    16 C16     25.2261  23.3812  14.5167   C.2       1 RES1   0.0000
    17 C17     24.0620  23.7194  15.1831   C.2       1 RES1   0.0000
    18 C18     19.3733  23.9172  15.7172   C.3       1 RES1   0.0000
    19 O19     19.5141  24.6478  16.9346   O.3       1 RES1   0.0000
    20 C20     18.5872  22.6097  15.9830   C.3       1 RES1   0.0000
    21 N21     17.2323  23.0139  16.4275   N.3       1 RES1   0.0000
    22 C22     17.1566  23.2861  17.8798   C.3       1 RES1   0.0000
    23 C23     16.4205  24.6143  18.0770   C.3       1 RES1   0.0000
    24 C24     15.7270  24.3301  19.5405   C.3       1 RES1   0.0000
    25 C25     14.9548  24.9651  18.4411   C.3       1 RES1   0.0000
    26 S26     16.0166  22.0839  15.8732   S.o2      1 RES1   0.0000
    27 O27     16.0604  22.1114  14.4437   O.2       1 RES1   0.0000
    28 O28     14.8051  22.6543  16.3943   O.2       1 RES1   0.0000
    29 C29     16.1012  20.5093  16.3884   C.2       1 RES1   0.0000
    30 C30     15.4852  20.1059  17.5741   C.2       1 RES1   0.0000
    31 C31     15.5597  18.7764  17.9917   C.2       1 RES1   0.0000
    32 C32     16.2556  17.8489  17.2305   C.2       1 RES1   0.0000
    33 C33     16.8689  18.2398  16.0344   C.2       1 RES1   0.0000
    34 O34     17.5738  17.3642  15.2325   O.3       1 RES1   0.0000
    35 C35     17.7504  15.9851  15.5330   C.3       1 RES1   0.0000
    36 C36     16.7885  19.5677  15.6284   C.2       1 RES1   0.0000
@<TRIPOS>BOND
     1     1     2    1
     2     2     3   am
     3     3     4    2
     4     3     5    1
     5     5     6    1
     6     6     7    1
     7     7     8    2
     8     7     9   am
     9     9    10    1
    10    10    11    1
    11    11    12    1
    12    12    13    2
    13    13    14    1
    14    14    15    2
    15    15    16    1
    16    16    17    2
    17    10    18    1
    18    18    19    1
    19    18    20    1
    20    20    21    1
    21    21    22    1
    22    22    23    1
    23    23    24    1
    24    24    25    1
    25    21    26    1
    26    26    27    2
    27    26    28    2
    28    26    29    1
    29    29    30    2
    30    30    31    1
    31    31    32    2
    32    32    33    1
    33    33    34    1
    34    34    35    1
    35    33    36    2
    36    17    12    1
    37    25    23    1
    38    36    29    1
@<TRIPOS>SUBSTRUCTURE
     1 RES1        1 GROUP             0 ****  ****    0  
@<TRIPOS>MOLECULE
ligand_79
    36    38     1     0     0
SMALL
NO_CHARGES
****
Generated from the CSD

@<TRIPOS>ATOM
     1 C1      24.1137  24.8006   8.8672   C.3       1 RES1   0.0000
     2 N2      23.1055  25.6587   9.4678   N.am      1 RES1   0.0000
     3 C3      22.9467  25.7494  10.7897   C.2       1 RES1   0.0000
     4 O4      23.6451  25.1110  11.5875   O.2       1 RES1   0.0000
     5 C5      21.8651  26.6710  11.2939   C.3       1 RES1   0.0000
     6 C6      21.8667  26.6112  12.8022   C.3       1 RES1   0.0000
     7 C7      20.8006  27.5180  13.3396   C.2       1 RES1   0.0000
     8 O8      19.6681  27.3398  12.9300   O.2       1 RES1   0.0000
     9 N9      21.1167  28.4948  14.1998   N.am      1 RES1   0.0000
    10 C10     20.1398  29.4531  14.7416   C.3       1 RES1   0.0000
    11 C11     20.2067  29.4345  16.2704   C.3       1 RES1   0.0000
    12 C12     19.7643  28.0783  16.7622   C.2       1 RES1   0.0000
    13 C13     18.4211  27.8345  17.0467   C.2       1 RES1   0.0000
    14 C14     18.0061  26.5997  17.5153   C.2       1 RES1   0.0000
    15 C15     18.9391  25.5900  17.7023   C.2       1 RES1   0.0000
    16 C16     20.2674  25.8376  17.4391   C.2       1 RES1   0.0000
    17 C17     20.6866  27.0641  16.9560   C.2       1 RES1   0.0000
    18 C18     20.3973  30.8528  14.1508   C.3       1 RES1   0.0000
    19 O19     19.4763  31.7842  14.7164   O.3       1 RES1   0.0000
    20 C20     20.3236  30.9214  12.6054   C.3       1 RES1   0.0000
    21 N21     21.1503  32.0806  12.1938   N.3       1 RES1   0.0000
    22 C22     22.3486  32.2672  13.0411   C.3       1 RES1   0.0000
    23 C23     23.4977  32.7350  12.1435   C.3       1 RES1   0.0000
    24 C24     24.4051  33.5389  13.2543   C.3       1 RES1   0.0000
    25 C25     24.1578  34.1181  11.9083   C.3       1 RES1   0.0000
    26 S26     20.3242  33.4562  11.9191   S.o2      1 RES1   0.0000
    27 O27     19.3238  33.1778  10.9353   O.2       1 RES1   0.0000
    28 O28     21.2881  34.4188  11.4617   O.2       1 RES1   0.0000
    29 C29     19.5944  34.0711  13.2760   C.2       1 RES1   0.0000
    30 C30     20.3024  34.8713  14.1740   C.2       1 RES1   0.0000
    31 C31     19.6734  35.3867  15.3083   C.2       1 RES1   0.0000
    32 C32     18.3388  35.0979  15.5520   C.2       1 RES1   0.0000
    33 C33     17.6160  34.3047  14.6530   C.2       1 RES1   0.0000
    34 O34     16.2859  33.9835  14.8388   O.3       1 RES1   0.0000
    35 C35     15.5157  34.4199  15.9523   C.3       1 RES1   0.0000
    36 C36     18.2534  33.7961  13.5264   C.2       1 RES1   0.0000
@<TRIPOS>BOND
     1     1     2    1
     2     2     3   am
     3     3     4    2
     4     3     5    1
     5     5     6    1
     6     6     7    1
     7     7     8    2
     8     7     9   am
     9     9    10    1
    10    10    11    1
    11    11    12    1
    12    12    13    2
    13    13    14    1
    14    14    15    2
    15    15    16    1
    16    16    17    2
    17    10    18    1
    18    18    19    1
    19    18    20    1
    20    20    21    1
    21    21    22    1
    22    22    23    1
    23    23    24    1
    24    24    25    1
    25    21    26    1
    26    26    27    2
    27    26    28    2
    28    26    29    1
    29    29    30    2
    30    30    31    1
    31    31    32    2
    32    32    33    1
    33    33    34    1
    34    34    35    1
    35    33    36    2
    36    17    12    1
    37    25    23    1
    38    36    29    1
@<TRIPOS>SUBSTRUCTURE
     1 RES1        1 GROUP             0 ****  ****    0  
@<TRIPOS>MOLECULE
ligand_80
    36    38     1     0     0
SMALL
NO_CHARGES
****
Generated from the CSD

@<TRIPOS>ATOM
     1 C1      24.1256  24.8185   8.8694   C.3       1 RES1   0.0000
     2 N2      23.1141  25.6729   9.4697   N.am      1 RES1   0.0000
     3 C3      22.9550  25.7634  10.7916   C.2       1 RES1   0.0000
     4 O4      23.6560  25.1280  11.5896   O.2       1 RES1   0.0000
     5 C5      21.8699  26.6810  11.2955   C.3       1 RES1   0.0000
     6 C6      21.8719  26.6218  12.8039   C.3       1 RES1   0.0000
     7 C7      20.8023  27.5246  13.3410   C.2       1 RES1   0.0000
     8 O8      20.8323  28.6878  12.9828   O.2       1 RES1   0.0000
     9 N9      19.8926  27.0534  14.2037   N.am      1 RES1   0.0000
    10 C10     18.8371  27.8808  14.8099   C.3       1 RES1   0.0000
    11 C11     17.5030  27.5838  14.1216   C.3       1 RES1   0.0000
    12 C12     17.5909  28.0162  12.6786   C.2       1 RES1   0.0000
    13 C13     17.2322  29.3114  12.3069   C.2       1 RES1   0.0000
    14 C14     17.2919  29.7139  10.9837   C.2       1 RES1   0.0000
    15 C15     17.7167  28.8169  10.0142   C.2       1 RES1   0.0000
    16 C16     18.0525  27.5329  10.3796   C.2       1 RES1   0.0000
    17 C17     18.0100  27.1289  11.7019   C.2       1 RES1   0.0000
    18 C18     18.7903  27.6372  16.3308   C.3       1 RES1   0.0000
    19 O19     17.5520  28.1180  16.8513   O.3       1 RES1   0.0000
    20 C20     19.9654  28.2668  17.1189   C.3       1 RES1   0.0000
    21 N21     19.7027  28.0018  18.5532   N.3       1 RES1   0.0000
    22 C22     18.9510  26.7483  18.7822   C.3       1 RES1   0.0000
    23 C23     19.5207  26.0738  20.0333   C.3       1 RES1   0.0000
    24 C24     18.1970  25.2263  20.5162   C.3       1 RES1   0.0000
    25 C25     19.0234  25.9749  21.4986   C.3       1 RES1   0.0000
    26 S26     19.1294  29.2704  19.3970   S.o2      1 RES1   0.0000
    27 O27     20.0710  30.3401  19.2742   O.2       1 RES1   0.0000
    28 O28     18.9881  28.8192  20.7539   O.2       1 RES1   0.0000
    29 C29     17.6435  29.7933  18.8766   C.2       1 RES1   0.0000
    30 C30     16.4672  29.2457  19.3909   C.2       1 RES1   0.0000
    31 C31     15.2242  29.7000  18.9479   C.2       1 RES1   0.0000
    32 C32     15.1532  30.6961  17.9854   C.2       1 RES1   0.0000
    33 C33     16.3263  31.2597  17.4697   C.2       1 RES1   0.0000
    34 O34     16.3218  32.2546  16.5121   O.3       1 RES1   0.0000
    35 C35     15.1364  32.8076  15.9529   C.3       1 RES1   0.0000
    36 C36     17.5595  30.7987  17.9182   C.2       1 RES1   0.0000
@<TRIPOS>BOND
     1     1     2    1
     2     2     3   am
     3     3     4    2
     4     3     5    1
     5     5     6    1
     6     6     7    1
     7     7     8    2
     8     7     9   am
     9     9    10    1
    10    10    11    1
    11    11    12    1
    12    12    13    2
    13    13    14    1
    14    14    15    2
    15    15    16    1
    16    16    17    2
    17    10    18    1
    18    18    19    1
    19    18    20    1
    20    20    21    1
    21    21    22    1
    22    22    23    1
    23    23    24    1
    24    24    25    1
    25    21    26    1
    26    26    27    2
    27    26    28    2
    28    26    29    1
    29    29    30    2
    30    30    31    1
    31    31    32    2
    32    32    33    1
    33    33    34    1
    34    34    35    1
    35    33    36    2
    36    17    12    1
    37    25    23    1
    38    36    29    1
@<TRIPOS>SUBSTRUCTURE
     1 RES1        1 GROUP             0 ****  ****    0  
@<TRIPOS>MOLECULE
ligand_81
    36    38     1     0     0
SMALL
NO_CHARGES
****
Generated from the CSD

@<TRIPOS>ATOM
     1 C1      24.1119  24.8004   8.8663   C.3       1 RES1   0.0000
     2 N2      23.1038  25.6584   9.4671   N.am      1 RES1   0.0000
     3 C3      22.9455  25.7492  10.7891   C.2       1 RES1   0.0000
     4 O4      23.6443  25.1109  11.5867   O.2       1 RES1   0.0000
     5 C5      21.8639  26.6706  11.2935   C.3       1 RES1   0.0000
     6 C6      21.8662  26.6111  12.8019   C.3       1 RES1   0.0000
     7 C7      20.8001  27.5178  13.3395   C.2       1 RES1   0.0000
     8 O8      19.6871  27.0422  13.4704   O.2       1 RES1   0.0000
     9 N9      21.0805  28.7976  13.6173   N.am      1 RES1   0.0000
    10 C10     20.0841  29.7638  14.1075   C.3       1 RES1   0.0000
    11 C11     20.5914  30.4010  15.4030   C.3       1 RES1   0.0000
    12 C12     20.6845  29.3357  16.4676   C.2       1 RES1   0.0000
    13 C13     19.5948  29.0684  17.2956   C.2       1 RES1   0.0000
    14 C14     19.6745  28.1056  18.2872   C.2       1 RES1   0.0000
    15 C15     20.8539  27.3953  18.4581   C.2       1 RES1   0.0000
    16 C16     21.9350  27.6731  17.6526   C.2       1 RES1   0.0000
    17 C17     21.8573  28.6228  16.6498   C.2       1 RES1   0.0000
    18 C18     19.7801  30.8032  13.0112   C.3       1 RES1   0.0000
    19 O19     20.9055  31.6647  12.8480   O.3       1 RES1   0.0000
    20 C20     18.5086  31.6504  13.2639   C.3       1 RES1   0.0000
    21 N21     18.3120  32.4880  12.0571   N.3       1 RES1   0.0000
    22 C22     18.0188  33.9027  12.3756   C.3       1 RES1   0.0000
    23 C23     18.8841  34.7834  11.4698   C.3       1 RES1   0.0000
    24 C24     17.9005  36.0945  11.3394   C.3       1 RES1   0.0000
    25 C25     18.5970  35.5422  10.1485   C.3       1 RES1   0.0000
    26 S26     17.3240  31.8543  10.9290   S.o2      1 RES1   0.0000
    27 O27     17.8681  30.5937  10.5280   O.2       1 RES1   0.0000
    28 O28     17.2869  32.8022   9.8498   O.2       1 RES1   0.0000
    29 C29     15.7697  31.6291  11.4631   C.2       1 RES1   0.0000
    30 C30     14.8093  32.6327  11.3267   C.2       1 RES1   0.0000
    31 C31     13.5039  32.4266  11.7753   C.2       1 RES1   0.0000
    32 C32     13.1569  31.2213  12.3675   C.2       1 RES1   0.0000
    33 C33     14.1092  30.2038  12.5005   C.2       1 RES1   0.0000
    34 O34     13.8252  28.9825  13.0790   O.3       1 RES1   0.0000
    35 C35     12.5476  28.6312  13.5964   C.3       1 RES1   0.0000
    36 C36     15.4071  30.4207  12.0504   C.2       1 RES1   0.0000
@<TRIPOS>BOND
     1     1     2    1
     2     2     3   am
     3     3     4    2
     4     3     5    1
     5     5     6    1
     6     6     7    1
     7     7     8    2
     8     7     9   am
     9     9    10    1
    10    10    11    1
    11    11    12    1
    12    12    13    2
    13    13    14    1
    14    14    15    2
    15    15    16    1
    16    16    17    2
    17    10    18    1
    18    18    19    1
    19    18    20    1
    20    20    21    1
    21    21    22    1
    22    22    23    1
    23    23    24    1
    24    24    25    1
    25    21    26    1
    26    26    27    2
    27    26    28    2
    28    26    29    1
    29    29    30    2
    30    30    31    1
    31    31    32    2
    32    32    33    1
    33    33    34    1
    34    34    35    1
    35    33    36    2
    36    17    12    1
    37    25    23    1
    38    36    29    1
@<TRIPOS>SUBSTRUCTURE
     1 RES1        1 GROUP             0 ****  ****    0  
@<TRIPOS>MOLECULE
ligand_82
    36    38     1     0     0
SMALL
NO_CHARGES
****
Generated from the CSD

@<TRIPOS>ATOM
     1 C1      24.1124  24.8006   8.8664   C.3       1 RES1   0.0000
     2 N2      23.1043  25.6586   9.4672   N.am      1 RES1   0.0000
     3 C3      22.9457  25.7493  10.7891   C.2       1 RES1   0.0000
     4 O4      23.6444  25.1110  11.5868   O.2       1 RES1   0.0000
     5 C5      21.8642  26.6708  11.2935   C.3       1 RES1   0.0000
     6 C6      21.8662  26.6111  12.8018   C.3       1 RES1   0.0000
     7 C7      20.8001  27.5178  13.3394   C.2       1 RES1   0.0000
     8 O8      19.6870  27.0423  13.4701   O.2       1 RES1   0.0000
     9 N9      21.0805  28.7976  13.6173   N.am      1 RES1   0.0000
    10 C10     20.0841  29.7638  14.1075   C.3       1 RES1   0.0000
    11 C11     20.5914  30.4010  15.4030   C.3       1 RES1   0.0000
    12 C12     20.6845  29.3357  16.4676   C.2       1 RES1   0.0000
    13 C13     19.5948  29.0684  17.2956   C.2       1 RES1   0.0000
    14 C14     19.6745  28.1056  18.2872   C.2       1 RES1   0.0000
    15 C15     20.8539  27.3953  18.4581   C.2       1 RES1   0.0000
    16 C16     21.9350  27.6731  17.6526   C.2       1 RES1   0.0000
    17 C17     21.8573  28.6228  16.6498   C.2       1 RES1   0.0000
    18 C18     19.7801  30.8032  13.0112   C.3       1 RES1   0.0000
    19 O19     20.9055  31.6647  12.8480   O.3       1 RES1   0.0000
    20 C20     18.5086  31.6504  13.2639   C.3       1 RES1   0.0000
    21 N21     18.2878  32.4567  12.0401   N.3       1 RES1   0.0000
    22 C22     19.0579  33.7199  12.0322   C.3       1 RES1   0.0000
    23 C23     19.7448  33.8498  10.6698   C.3       1 RES1   0.0000
    24 C24     19.7842  35.4881  10.5363   C.3       1 RES1   0.0000
    25 C25     19.3942  34.6380   9.3815   C.3       1 RES1   0.0000
    26 S26     16.7301  32.6389  11.6037   S.o2      1 RES1   0.0000
    27 O27     16.1756  31.3356  11.4038   O.2       1 RES1   0.0000
    28 O28     16.7397  33.4201  10.3978   O.2       1 RES1   0.0000
    29 C29     15.8190  33.4493  12.7286   C.2       1 RES1   0.0000
    30 C30     15.1541  32.7630  13.7459   C.2       1 RES1   0.0000
    31 C31     14.3962  33.4589  14.6888   C.2       1 RES1   0.0000
    32 C32     14.2946  34.8401  14.6134   C.2       1 RES1   0.0000
    33 C33     14.9652  35.5399  13.6034   C.2       1 RES1   0.0000
    34 O34     14.9048  36.9136  13.4762   O.3       1 RES1   0.0000
    35 C35     14.1620  37.7560  14.3493   C.3       1 RES1   0.0000
    36 C36     15.7171  34.8359  12.6688   C.2       1 RES1   0.0000
@<TRIPOS>BOND
     1     1     2    1
     2     2     3   am
     3     3     4    2
     4     3     5    1
     5     5     6    1
     6     6     7    1
     7     7     8    2
     8     7     9   am
     9     9    10    1
    10    10    11    1
    11    11    12    1
    12    12    13    2
    13    13    14    1
    14    14    15    2
    15    15    16    1
    16    16    17    2
    17    10    18    1
    18    18    19    1
    19    18    20    1
    20    20    21    1
    21    21    22    1
    22    22    23    1
    23    23    24    1
    24    24    25    1
    25    21    26    1
    26    26    27    2
    27    26    28    2
    28    26    29    1
    29    29    30    2
    30    30    31    1
    31    31    32    2
    32    32    33    1
    33    33    34    1
    34    34    35    1
    35    33    36    2
    36    17    12    1
    37    25    23    1
    38    36    29    1
@<TRIPOS>SUBSTRUCTURE
     1 RES1        1 GROUP             0 ****  ****    0  
@<TRIPOS>MOLECULE
ligand_83
    36    38     1     0     0
SMALL
NO_CHARGES
****
Generated from the CSD

@<TRIPOS>ATOM
     1 C1      24.1124  24.8006   8.8664   C.3       1 RES1   0.0000
     2 N2      23.1043  25.6586   9.4672   N.am      1 RES1   0.0000
     3 C3      22.9457  25.7493  10.7891   C.2       1 RES1   0.0000
     4 O4      23.6444  25.1110  11.5868   O.2       1 RES1   0.0000
     5 C5      21.8642  26.6708  11.2935   C.3       1 RES1   0.0000
     6 C6      21.8662  26.6111  12.8018   C.3       1 RES1   0.0000
     7 C7      20.8001  27.5178  13.3394   C.2       1 RES1   0.0000
     8 O8      19.6870  27.0423  13.4701   O.2       1 RES1   0.0000
     9 N9      21.0805  28.7976  13.6173   N.am      1 RES1   0.0000
    10 C10     20.0841  29.7638  14.1075   C.3       1 RES1   0.0000
    11 C11     20.5914  30.4010  15.4030   C.3       1 RES1   0.0000
    12 C12     20.6845  29.3357  16.4676   C.2       1 RES1   0.0000
    13 C13     19.5948  29.0684  17.2956   C.2       1 RES1   0.0000
    14 C14     19.6745  28.1056  18.2872   C.2       1 RES1   0.0000
    15 C15     20.8539  27.3953  18.4581   C.2       1 RES1   0.0000
    16 C16     21.9350  27.6731  17.6526   C.2       1 RES1   0.0000
    17 C17     21.8573  28.6228  16.6498   C.2       1 RES1   0.0000
    18 C18     19.7801  30.8032  13.0112   C.3       1 RES1   0.0000
    19 O19     20.9055  31.6647  12.8480   O.3       1 RES1   0.0000
    20 C20     18.5086  31.6504  13.2639   C.3       1 RES1   0.0000
    21 N21     18.2878  32.4567  12.0401   N.3       1 RES1   0.0000
    22 C22     19.0579  33.7199  12.0322   C.3       1 RES1   0.0000
    23 C23     19.7448  33.8498  10.6698   C.3       1 RES1   0.0000
    24 C24     19.7842  35.4881  10.5363   C.3       1 RES1   0.0000
    25 C25     19.3942  34.6380   9.3815   C.3       1 RES1   0.0000
    26 S26     16.7301  32.6389  11.6037   S.o2      1 RES1   0.0000
    27 O27     16.1756  31.3356  11.4038   O.2       1 RES1   0.0000
    28 O28     16.7397  33.4201  10.3978   O.2       1 RES1   0.0000
    29 C29     15.8190  33.4493  12.7286   C.2       1 RES1   0.0000
    30 C30     15.6935  34.8388  12.6872   C.2       1 RES1   0.0000
    31 C31     14.9186  35.5064  13.6367   C.2       1 RES1   0.0000
    32 C32     14.2740  34.7890  14.6336   C.2       1 RES1   0.0000
    33 C33     14.3846  33.3942  14.6790   C.2       1 RES1   0.0000
    34 O34     13.7662  32.6244  15.6443   O.3       1 RES1   0.0000
    35 C35     12.9587  33.1610  16.6853   C.3       1 RES1   0.0000
    36 C36     15.1600  32.7396  13.7278   C.2       1 RES1   0.0000
@<TRIPOS>BOND
     1     1     2    1
     2     2     3   am
     3     3     4    2
     4     3     5    1
     5     5     6    1
     6     6     7    1
     7     7     8    2
     8     7     9   am
     9     9    10    1
    10    10    11    1
    11    11    12    1
    12    12    13    2
    13    13    14    1
    14    14    15    2
    15    15    16    1
    16    16    17    2
    17    10    18    1
    18    18    19    1
    19    18    20    1
    20    20    21    1
    21    21    22    1
    22    22    23    1
    23    23    24    1
    24    24    25    1
    25    21    26    1
    26    26    27    2
    27    26    28    2
    28    26    29    1
    29    29    30    2
    30    30    31    1
    31    31    32    2
    32    32    33    1
    33    33    34    1
    34    34    35    1
    35    33    36    2
    36    17    12    1
    37    25    23    1
    38    36    29    1
@<TRIPOS>SUBSTRUCTURE
     1 RES1        1 GROUP             0 ****  ****    0  
@<TRIPOS>MOLECULE
ligand_84
    36    38     1     0     0
SMALL
NO_CHARGES
****
Generated from the CSD

@<TRIPOS>ATOM
     1 C1      24.0898  24.8188   8.8399   C.3       1 RES1   0.0000
     2 N2      23.0831  25.6740   9.4471   N.am      1 RES1   0.0000
     3 C3      22.9321  25.7635  10.7701   C.2       1 RES1   0.0000
     4 O4      23.6370  25.1263  11.5632   O.2       1 RES1   0.0000
     5 C5      21.8513  26.6819  11.2814   C.3       1 RES1   0.0000
     6 C6      21.8623  26.6213  12.7897   C.3       1 RES1   0.0000
     7 C7      20.7972  27.5251  13.3341   C.2       1 RES1   0.0000
     8 O8      20.8273  28.6888  12.9778   O.2       1 RES1   0.0000
     9 N9      19.8913  27.0539  14.2008   N.am      1 RES1   0.0000
    10 C10     18.8371  27.8808  14.8099   C.3       1 RES1   0.0000
    11 C11     17.5391  27.0734  14.8831   C.3       1 RES1   0.0000
    12 C12     17.0710  26.7731  13.4805   C.2       1 RES1   0.0000
    13 C13     16.2165  27.6537  12.8180   C.2       1 RES1   0.0000
    14 C14     15.7663  27.3799  11.5377   C.2       1 RES1   0.0000
    15 C15     16.1728  26.2145  10.9041   C.2       1 RES1   0.0000
    16 C16     17.0012  25.3368  11.5662   C.2       1 RES1   0.0000
    17 C17     17.4670  25.6116  12.8393   C.2       1 RES1   0.0000
    18 C18     19.3018  28.3885  16.1887   C.3       1 RES1   0.0000
    19 O19     18.1730  28.8450  16.9322   O.3       1 RES1   0.0000
    20 C20     20.3748  29.5038  16.1346   C.3       1 RES1   0.0000
    21 N21     21.0425  29.5127  17.4577   N.3       1 RES1   0.0000
    22 C22     21.1975  30.8727  18.0190   C.3       1 RES1   0.0000
    23 C23     20.7727  30.8317  19.4896   C.3       1 RES1   0.0000
    24 C24     21.7397  32.0188  20.0888   C.3       1 RES1   0.0000
    25 C25     21.5692  30.7343  20.8163   C.3       1 RES1   0.0000
    26 S26     22.3918  28.6074  17.5574   S.o2      1 RES1   0.0000
    27 O27     22.0422  27.2612  17.2234   O.2       1 RES1   0.0000
    28 O28     22.8594  28.7315  18.9104   O.2       1 RES1   0.0000
    29 C29     23.6064  29.1183  16.5496   C.2       1 RES1   0.0000
    30 C30     23.7175  28.6250  15.2487   C.2       1 RES1   0.0000
    31 C31     24.7411  29.0687  14.4102   C.2       1 RES1   0.0000
    32 C32     25.6600  29.9999  14.8712   C.2       1 RES1   0.0000
    33 C33     25.5525  30.5091  16.1708   C.2       1 RES1   0.0000
    34 O34     26.4341  31.4382  16.6869   O.3       1 RES1   0.0000
    35 C35     27.5347  31.9718  15.9606   C.3       1 RES1   0.0000
    36 C36     24.5287  30.0592  16.9977   C.2       1 RES1   0.0000
@<TRIPOS>BOND
     1     1     2    1
     2     2     3   am
     3     3     4    2
     4     3     5    1
     5     5     6    1
     6     6     7    1
     7     7     8    2
     8     7     9   am
     9     9    10    1
    10    10    11    1
    11    11    12    1
    12    12    13    2
    13    13    14    1
    14    14    15    2
    15    15    16    1
    16    16    17    2
    17    10    18    1
    18    18    19    1
    19    18    20    1
    20    20    21    1
    21    21    22    1
    22    22    23    1
    23    23    24    1
    24    24    25    1
    25    21    26    1
    26    26    27    2
    27    26    28    2
    28    26    29    1
    29    29    30    2
    30    30    31    1
    31    31    32    2
    32    32    33    1
    33    33    34    1
    34    34    35    1
    35    33    36    2
    36    17    12    1
    37    25    23    1
    38    36    29    1
@<TRIPOS>SUBSTRUCTURE
     1 RES1        1 GROUP             0 ****  ****    0  
@<TRIPOS>MOLECULE
ligand_85
    36    38     1     0     0
SMALL
NO_CHARGES
****
Generated from the CSD

@<TRIPOS>ATOM
     1 C1      24.0198  24.6169   8.9024   C.3       1 RES1   0.0000
     2 N2      23.0660  25.5457   9.4864   N.am      1 RES1   0.0000
     3 C3      22.8967  25.6533  10.8058   C.2       1 RES1   0.0000
     4 O4      23.5386  24.9715  11.6151   O.2       1 RES1   0.0000
     5 C5      21.8754  26.6501  11.2922   C.3       1 RES1   0.0000
     6 C6      21.8669  26.6109  12.8012   C.3       1 RES1   0.0000
     7 C7      23.1157  27.2544  13.3249   C.2       1 RES1   0.0000
     8 O8      23.8927  27.7005  12.5007   O.2       1 RES1   0.0000
     9 N9      23.3559  27.2872  14.6422   N.am      1 RES1   0.0000
    10 C10     24.5744  27.8610  15.2357   C.3       1 RES1   0.0000
    11 C11     24.1837  28.9077  16.2815   C.3       1 RES1   0.0000
    12 C12     23.4885  30.0541  15.5892   C.2       1 RES1   0.0000
    13 C13     24.2222  31.1394  15.1114   C.2       1 RES1   0.0000
    14 C14     23.5933  32.2049  14.4904   C.2       1 RES1   0.0000
    15 C15     22.2143  32.1919  14.3392   C.2       1 RES1   0.0000
    16 C16     21.4890  31.1288  14.8281   C.2       1 RES1   0.0000
    17 C17     22.1125  30.0538  15.4356   C.2       1 RES1   0.0000
    18 C18     25.4524  26.7362  15.8174   C.3       1 RES1   0.0000
    19 O19     26.6083  27.3046  16.4309   O.3       1 RES1   0.0000
    20 C20     25.8844  25.6615  14.7894   C.3       1 RES1   0.0000
    21 N21     26.7812  24.7254  15.5079   N.3       1 RES1   0.0000
    22 C22     26.4635  24.6099  16.9482   C.3       1 RES1   0.0000
    23 C23     26.6399  23.1452  17.3583   C.3       1 RES1   0.0000
    24 C24     26.9798  23.3450  18.9545   C.3       1 RES1   0.0000
    25 C25     27.7576  22.3901  18.1230   C.3       1 RES1   0.0000
    26 S26     28.3687  24.9172  15.2027   S.o2      1 RES1   0.0000
    27 O27     28.5638  24.7786  13.7924   O.2       1 RES1   0.0000
    28 O28     29.0477  23.8961  15.9517   O.2       1 RES1   0.0000
    29 C29     28.9627  26.3872  15.6906   C.2       1 RES1   0.0000
    30 C30     28.9904  27.4773  14.8194   C.2       1 RES1   0.0000
    31 C31     29.4876  28.7096  15.2459   C.2       1 RES1   0.0000
    32 C32     29.9648  28.8539  16.5402   C.2       1 RES1   0.0000
    33 C33     29.9327  27.7703  17.4259   C.2       1 RES1   0.0000
    34 O34     30.3910  27.8510  18.7260   O.3       1 RES1   0.0000
    35 C35     30.9391  29.0322  19.2986   C.3       1 RES1   0.0000
    36 C36     29.4356  26.5467  16.9896   C.2       1 RES1   0.0000
@<TRIPOS>BOND
     1     1     2    1
     2     2     3   am
     3     3     4    2
     4     3     5    1
     5     5     6    1
     6     6     7    1
     7     7     8    2
     8     7     9   am
     9     9    10    1
    10    10    11    1
    11    11    12    1
    12    12    13    2
    13    13    14    1
    14    14    15    2
    15    15    16    1
    16    16    17    2
    17    10    18    1
    18    18    19    1
    19    18    20    1
    20    20    21    1
    21    21    22    1
    22    22    23    1
    23    23    24    1
    24    24    25    1
    25    21    26    1
    26    26    27    2
    27    26    28    2
    28    26    29    1
    29    29    30    2
    30    30    31    1
    31    31    32    2
    32    32    33    1
    33    33    34    1
    34    34    35    1
    35    33    36    2
    36    17    12    1
    37    25    23    1
    38    36    29    1
@<TRIPOS>SUBSTRUCTURE
     1 RES1        1 GROUP             0 ****  ****    0  
@<TRIPOS>MOLECULE
ligand_86
    36    38     1     0     0
SMALL
NO_CHARGES
****
Generated from the CSD

@<TRIPOS>ATOM
     1 C1      24.0194  24.6170   8.9024   C.3       1 RES1   0.0000
     2 N2      23.0656  25.5458   9.4864   N.am      1 RES1   0.0000
     3 C3      22.8965  25.6534  10.8058   C.2       1 RES1   0.0000
     4 O4      23.5385  24.9717  11.6151   O.2       1 RES1   0.0000
     5 C5      21.8752  26.6501  11.2923   C.3       1 RES1   0.0000
     6 C6      21.8668  26.6109  12.8013   C.3       1 RES1   0.0000
     7 C7      23.1156  27.2544  13.3250   C.2       1 RES1   0.0000
     8 O8      23.8926  27.7005  12.5008   O.2       1 RES1   0.0000
     9 N9      23.3558  27.2872  14.6422   N.am      1 RES1   0.0000
    10 C10     24.5744  27.8610  15.2357   C.3       1 RES1   0.0000
    11 C11     24.1837  28.9077  16.2815   C.3       1 RES1   0.0000
    12 C12     23.4885  30.0541  15.5891   C.2       1 RES1   0.0000
    13 C13     24.2222  31.1394  15.1113   C.2       1 RES1   0.0000
    14 C14     23.5932  32.2049  14.4903   C.2       1 RES1   0.0000
    15 C15     22.2142  32.1918  14.3392   C.2       1 RES1   0.0000
    16 C16     21.4890  31.1288  14.8281   C.2       1 RES1   0.0000
    17 C17     22.1125  30.0538  15.4357   C.2       1 RES1   0.0000
    18 C18     25.4524  26.7362  15.8174   C.3       1 RES1   0.0000
    19 O19     26.6083  27.3046  16.4309   O.3       1 RES1   0.0000
    20 C20     25.8844  25.6615  14.7894   C.3       1 RES1   0.0000
    21 N21     26.7812  24.7255  15.5079   N.3       1 RES1   0.0000
    22 C22     26.4620  24.6081  16.9477   C.3       1 RES1   0.0000
    23 C23     26.6396  23.1431  17.3564   C.3       1 RES1   0.0000
    24 C24     26.9772  23.3416  18.9533   C.3       1 RES1   0.0000
    25 C25     27.7572  22.3885  18.1218   C.3       1 RES1   0.0000
    26 S26     28.3689  24.9190  15.2047   S.o2      1 RES1   0.0000
    27 O27     28.5658  24.7814  13.7946   O.2       1 RES1   0.0000
    28 O28     29.0480  23.8982  15.9539   O.2       1 RES1   0.0000
    29 C29     28.9608  26.3894  15.6941   C.2       1 RES1   0.0000
    30 C30     29.4462  26.5747  16.9895   C.2       1 RES1   0.0000
    31 C31     29.9468  27.8159  17.3853   C.2       1 RES1   0.0000
    32 C32     29.9568  28.8761  16.4910   C.2       1 RES1   0.0000
    33 C33     29.4818  28.6992  15.1861   C.2       1 RES1   0.0000
    34 O34     29.4670  29.7142  14.2499   O.3       1 RES1   0.0000
    35 C35     29.9281  31.0347  14.5088   C.3       1 RES1   0.0000
    36 C36     28.9847  27.4580  14.8031   C.2       1 RES1   0.0000
@<TRIPOS>BOND
     1     1     2    1
     2     2     3   am
     3     3     4    2
     4     3     5    1
     5     5     6    1
     6     6     7    1
     7     7     8    2
     8     7     9   am
     9     9    10    1
    10    10    11    1
    11    11    12    1
    12    12    13    2
    13    13    14    1
    14    14    15    2
    15    15    16    1
    16    16    17    2
    17    10    18    1
    18    18    19    1
    19    18    20    1
    20    20    21    1
    21    21    22    1
    22    22    23    1
    23    23    24    1
    24    24    25    1
    25    21    26    1
    26    26    27    2
    27    26    28    2
    28    26    29    1
    29    29    30    2
    30    30    31    1
    31    31    32    2
    32    32    33    1
    33    33    34    1
    34    34    35    1
    35    33    36    2
    36    17    12    1
    37    25    23    1
    38    36    29    1
@<TRIPOS>SUBSTRUCTURE
     1 RES1        1 GROUP             0 ****  ****    0  
@<TRIPOS>MOLECULE
ligand_87
    36    38     1     0     0
SMALL
NO_CHARGES
****
Generated from the CSD

@<TRIPOS>ATOM
     1 C1      24.2734  24.9136   8.9111   C.3       1 RES1   0.0000
     2 N2      23.2042  25.7096   9.4912   N.am      1 RES1   0.0000
     3 C3      23.0292  25.8095  10.8104   C.2       1 RES1   0.0000
     4 O4      23.7635  25.2329  11.6229   O.2       1 RES1   0.0000
     5 C5      21.8831  26.6623  11.2926   C.3       1 RES1   0.0000
     6 C6      21.8655  26.6106  12.8012   C.3       1 RES1   0.0000
     7 C7      21.3831  25.2639  13.2497   C.2       1 RES1   0.0000
     8 O8      21.0797  24.4694  12.3786   O.2       1 RES1   0.0000
     9 N9      21.2652  24.9903  14.5555   N.am      1 RES1   0.0000
    10 C10     20.7607  23.7107  15.0792   C.3       1 RES1   0.0000
    11 C11     21.7815  23.1266  16.0583   C.3       1 RES1   0.0000
    12 C12     23.0441  22.7892  15.3041   C.2       1 RES1   0.0000
    13 C13     23.2103  21.5271  14.7350   C.2       1 RES1   0.0000
    14 C14     24.3717  21.2004  14.0561   C.2       1 RES1   0.0000
    15 C15     25.3834  22.1425  13.9382   C.2       1 RES1   0.0000
    16 C16     25.2261  23.3817  14.5167   C.2       1 RES1   0.0000
    17 C17     24.0620  23.7199  15.1830   C.2       1 RES1   0.0000
    18 C18     19.3733  23.9172  15.7172   C.3       1 RES1   0.0000
    19 O19     18.9124  22.6821  16.2627   O.3       1 RES1   0.0000
    20 C20     18.3037  24.4933  14.7568   C.3       1 RES1   0.0000
    21 N21     17.0327  24.5384  15.5178   N.3       1 RES1   0.0000
    22 C22     17.2338  24.7394  16.9696   C.3       1 RES1   0.0000
    23 C23     16.1356  25.6784  17.4765   C.3       1 RES1   0.0000
    24 C24     16.0635  25.1957  19.0466   C.3       1 RES1   0.0000
    25 C25     14.8227  25.4386  18.2658   C.3       1 RES1   0.0000
    26 S26     15.9721  23.3553  15.1631   S.o2      1 RES1   0.0000
    27 O27     15.6930  23.4224  13.7618   O.2       1 RES1   0.0000
    28 O28     14.8069  23.6069  15.9655   O.2       1 RES1   0.0000
    29 C29     16.5277  21.8367  15.5336   C.2       1 RES1   0.0000
    30 C30     17.2102  21.0696  14.5882   C.2       1 RES1   0.0000
    31 C31     17.6771  19.7960  14.9161   C.2       1 RES1   0.0000
    32 C32     17.4570  19.2829  16.1858   C.2       1 RES1   0.0000
    33 C33     16.7824  20.0472  17.1453   C.2       1 RES1   0.0000
    34 O34     16.5340  19.5935  18.4256   O.3       1 RES1   0.0000
    35 C35     16.9331  18.3138  18.9017   C.3       1 RES1   0.0000
    36 C36     16.3211  21.3149  16.8070   C.2       1 RES1   0.0000
@<TRIPOS>BOND
     1     1     2    1
     2     2     3   am
     3     3     4    2
     4     3     5    1
     5     5     6    1
     6     6     7    1
     7     7     8    2
     8     7     9   am
     9     9    10    1
    10    10    11    1
    11    11    12    1
    12    12    13    2
    13    13    14    1
    14    14    15    2
    15    15    16    1
    16    16    17    2
    17    10    18    1
    18    18    19    1
    19    18    20    1
    20    20    21    1
    21    21    22    1
    22    22    23    1
    23    23    24    1
    24    24    25    1
    25    21    26    1
    26    26    27    2
    27    26    28    2
    28    26    29    1
    29    29    30    2
    30    30    31    1
    31    31    32    2
    32    32    33    1
    33    33    34    1
    34    34    35    1
    35    33    36    2
    36    17    12    1
    37    25    23    1
    38    36    29    1
@<TRIPOS>SUBSTRUCTURE
     1 RES1        1 GROUP             0 ****  ****    0  
@<TRIPOS>MOLECULE
ligand_88
    36    38     1     0     0
SMALL
NO_CHARGES
****
Generated from the CSD

@<TRIPOS>ATOM
     1 C1      24.2732  24.9139   8.9110   C.3       1 RES1   0.0000
     2 N2      23.2040  25.7099   9.4912   N.am      1 RES1   0.0000
     3 C3      23.0291  25.8097  10.8104   C.2       1 RES1   0.0000
     4 O4      23.7634  25.2328  11.6228   O.2       1 RES1   0.0000
     5 C5      21.8831  26.6625  11.2928   C.3       1 RES1   0.0000
     6 C6      21.8656  26.6107  12.8013   C.3       1 RES1   0.0000
     7 C7      21.3831  25.2640  13.2498   C.2       1 RES1   0.0000
     8 O8      21.0797  24.4695  12.3786   O.2       1 RES1   0.0000
     9 N9      21.2652  24.9904  14.5556   N.am      1 RES1   0.0000
    10 C10     20.7607  23.7107  15.0792   C.3       1 RES1   0.0000
    11 C11     21.7815  23.1265  16.0583   C.3       1 RES1   0.0000
    12 C12     23.0441  22.7892  15.3041   C.2       1 RES1   0.0000
    13 C13     23.2103  21.5271  14.7349   C.2       1 RES1   0.0000
    14 C14     24.3718  21.2005  14.0560   C.2       1 RES1   0.0000
    15 C15     25.3834  22.1426  13.9382   C.2       1 RES1   0.0000
    16 C16     25.2261  23.3818  14.5167   C.2       1 RES1   0.0000
    17 C17     24.0620  23.7199  15.1830   C.2       1 RES1   0.0000
    18 C18     19.3733  23.9172  15.7172   C.3       1 RES1   0.0000
    19 O19     18.9124  22.6821  16.2627   O.3       1 RES1   0.0000
    20 C20     18.3037  24.4933  14.7568   C.3       1 RES1   0.0000
    21 N21     17.0326  24.5383  15.5177   N.3       1 RES1   0.0000
    22 C22     17.2336  24.7418  16.9693   C.3       1 RES1   0.0000
    23 C23     16.1343  25.6803  17.4748   C.3       1 RES1   0.0000
    24 C24     16.0632  25.2001  19.0457   C.3       1 RES1   0.0000
    25 C25     14.8219  25.4401  18.2647   C.3       1 RES1   0.0000
    26 S26     15.9732  23.3537  15.1650   S.o2      1 RES1   0.0000
    27 O27     15.6935  23.4187  13.7637   O.2       1 RES1   0.0000
    28 O28     14.8082  23.6049  15.9676   O.2       1 RES1   0.0000
    29 C29     16.5306  21.8361  15.5370   C.2       1 RES1   0.0000
    30 C30     16.3319  21.2872  16.8047   C.2       1 RES1   0.0000
    31 C31     16.8012  20.0067  17.1013   C.2       1 RES1   0.0000
    32 C32     17.4763  19.2751  16.1354   C.2       1 RES1   0.0000
    33 C33     17.6727  19.8116  14.8573   C.2       1 RES1   0.0000
    34 O34     18.3347  19.1330  13.8533   O.3       1 RES1   0.0000
    35 C35     18.8824  17.8294  14.0088   C.3       1 RES1   0.0000
    36 C36     17.2011  21.0888  14.5734   C.2       1 RES1   0.0000
@<TRIPOS>BOND
     1     1     2    1
     2     2     3   am
     3     3     4    2
     4     3     5    1
     5     5     6    1
     6     6     7    1
     7     7     8    2
     8     7     9   am
     9     9    10    1
    10    10    11    1
    11    11    12    1
    12    12    13    2
    13    13    14    1
    14    14    15    2
    15    15    16    1
    16    16    17    2
    17    10    18    1
    18    18    19    1
    19    18    20    1
    20    20    21    1
    21    21    22    1
    22    22    23    1
    23    23    24    1
    24    24    25    1
    25    21    26    1
    26    26    27    2
    27    26    28    2
    28    26    29    1
    29    29    30    2
    30    30    31    1
    31    31    32    2
    32    32    33    1
    33    33    34    1
    34    34    35    1
    35    33    36    2
    36    17    12    1
    37    25    23    1
    38    36    29    1
@<TRIPOS>SUBSTRUCTURE
     1 RES1        1 GROUP             0 ****  ****    0  
@<TRIPOS>MOLECULE
ligand_89
    36    38     1     0     0
SMALL
NO_CHARGES
****
Generated from the CSD

@<TRIPOS>ATOM
     1 C1      24.1117  24.8006   8.8661   C.3       1 RES1   0.0000
     2 N2      23.1039  25.6588   9.4671   N.am      1 RES1   0.0000
     3 C3      22.9455  25.7494  10.7891   C.2       1 RES1   0.0000
     4 O4      23.6440  25.1107  11.5866   O.2       1 RES1   0.0000
     5 C5      21.8642  26.6711  11.2937   C.3       1 RES1   0.0000
     6 C6      21.8663  26.6112  12.8020   C.3       1 RES1   0.0000
     7 C7      20.8006  27.5181  13.3398   C.2       1 RES1   0.0000
     8 O8      20.1344  28.1292  12.5244   O.2       1 RES1   0.0000
     9 N9      20.6384  27.6582  14.6619   N.am      1 RES1   0.0000
    10 C10     19.6460  28.5580  15.2718   C.3       1 RES1   0.0000
    11 C11     18.7733  27.7633  16.2459   C.3       1 RES1   0.0000
    12 C12     17.9767  26.7446  15.4686   C.2       1 RES1   0.0000
    13 C13     16.7178  27.0687  14.9640   C.2       1 RES1   0.0000
    14 C14     15.9703  26.1367  14.2646   C.2       1 RES1   0.0000
    15 C15     16.4818  24.8632  14.0608   C.2       1 RES1   0.0000
    16 C16     17.7165  24.5385  14.5755   C.2       1 RES1   0.0000
    17 C17     18.4751  25.4695  15.2618   C.2       1 RES1   0.0000
    18 C18     20.3608  29.7457  15.9448   C.3       1 RES1   0.0000
    19 O19     21.0394  29.2912  17.1145   O.3       1 RES1   0.0000
    20 C20     19.4333  30.9313  16.3089   C.3       1 RES1   0.0000
    21 N21     20.1995  31.7987  17.2347   N.3       1 RES1   0.0000
    22 C22     19.3356  32.6760  18.0548   C.3       1 RES1   0.0000
    23 C23     19.8264  32.6071  19.5037   C.3       1 RES1   0.0000
    24 C24     19.4049  34.1138  20.0092   C.3       1 RES1   0.0000
    25 C25     20.7283  33.5348  20.3581   C.3       1 RES1   0.0000
    26 S26     21.4686  32.5703  16.5682   S.o2      1 RES1   0.0000
    27 O27     22.4285  31.5827  16.1818   O.2       1 RES1   0.0000
    28 O28     21.9740  33.4584  17.5784   O.2       1 RES1   0.0000
    29 C29     21.0655  33.4829  15.2429   C.2       1 RES1   0.0000
    30 C30     21.0908  32.9371  13.9585   C.2       1 RES1   0.0000
    31 C31     20.7432  33.7153  12.8535   C.2       1 RES1   0.0000
    32 C32     20.3772  35.0418  13.0277   C.2       1 RES1   0.0000
    33 C33     20.3385  35.5972  14.3121   C.2       1 RES1   0.0000
    34 O34     19.9810  36.9095  14.5508   O.3       1 RES1   0.0000
    35 C35     19.6175  37.8280  13.5273   C.3       1 RES1   0.0000
    36 C36     20.6875  34.8122  15.4059   C.2       1 RES1   0.0000
@<TRIPOS>BOND
     1     1     2    1
     2     2     3   am
     3     3     4    2
     4     3     5    1
     5     5     6    1
     6     6     7    1
     7     7     8    2
     8     7     9   am
     9     9    10    1
    10    10    11    1
    11    11    12    1
    12    12    13    2
    13    13    14    1
    14    14    15    2
    15    15    16    1
    16    16    17    2
    17    10    18    1
    18    18    19    1
    19    18    20    1
    20    20    21    1
    21    21    22    1
    22    22    23    1
    23    23    24    1
    24    24    25    1
    25    21    26    1
    26    26    27    2
    27    26    28    2
    28    26    29    1
    29    29    30    2
    30    30    31    1
    31    31    32    2
    32    32    33    1
    33    33    34    1
    34    34    35    1
    35    33    36    2
    36    17    12    1
    37    25    23    1
    38    36    29    1
@<TRIPOS>SUBSTRUCTURE
     1 RES1        1 GROUP             0 ****  ****    0  
@<TRIPOS>MOLECULE
ligand_90
    36    38     1     0     0
SMALL
NO_CHARGES
****
Generated from the CSD

@<TRIPOS>ATOM
     1 C1      24.1117  24.8006   8.8661   C.3       1 RES1   0.0000
     2 N2      23.1039  25.6588   9.4671   N.am      1 RES1   0.0000
     3 C3      22.9455  25.7494  10.7891   C.2       1 RES1   0.0000
     4 O4      23.6440  25.1107  11.5866   O.2       1 RES1   0.0000
     5 C5      21.8642  26.6711  11.2937   C.3       1 RES1   0.0000
     6 C6      21.8663  26.6112  12.8020   C.3       1 RES1   0.0000
     7 C7      20.8006  27.5181  13.3398   C.2       1 RES1   0.0000
     8 O8      20.1344  28.1292  12.5244   O.2       1 RES1   0.0000
     9 N9      20.6384  27.6582  14.6619   N.am      1 RES1   0.0000
    10 C10     19.6460  28.5580  15.2718   C.3       1 RES1   0.0000
    11 C11     18.7733  27.7633  16.2459   C.3       1 RES1   0.0000
    12 C12     17.9767  26.7446  15.4686   C.2       1 RES1   0.0000
    13 C13     16.7178  27.0687  14.9640   C.2       1 RES1   0.0000
    14 C14     15.9703  26.1367  14.2646   C.2       1 RES1   0.0000
    15 C15     16.4818  24.8632  14.0608   C.2       1 RES1   0.0000
    16 C16     17.7165  24.5385  14.5755   C.2       1 RES1   0.0000
    17 C17     18.4751  25.4695  15.2618   C.2       1 RES1   0.0000
    18 C18     20.3608  29.7457  15.9448   C.3       1 RES1   0.0000
    19 O19     21.0394  29.2912  17.1145   O.3       1 RES1   0.0000
    20 C20     19.4333  30.9313  16.3089   C.3       1 RES1   0.0000
    21 N21     20.1995  31.7987  17.2347   N.3       1 RES1   0.0000
    22 C22     19.3356  32.6760  18.0548   C.3       1 RES1   0.0000
    23 C23     19.8264  32.6071  19.5037   C.3       1 RES1   0.0000
    24 C24     19.4049  34.1138  20.0092   C.3       1 RES1   0.0000
    25 C25     20.7283  33.5348  20.3581   C.3       1 RES1   0.0000
    26 S26     21.4686  32.5703  16.5682   S.o2      1 RES1   0.0000
    27 O27     22.4285  31.5827  16.1818   O.2       1 RES1   0.0000
    28 O28     21.9740  33.4584  17.5784   O.2       1 RES1   0.0000
    29 C29     21.0655  33.4829  15.2429   C.2       1 RES1   0.0000
    30 C30     20.6905  34.8206  15.3772   C.2       1 RES1   0.0000
    31 C31     20.3599  35.5777  14.2523   C.2       1 RES1   0.0000
    32 C32     20.3958  34.9988  12.9924   C.2       1 RES1   0.0000
    33 C33     20.7801  33.6608  12.8445   C.2       1 RES1   0.0000
    34 O34     20.8373  33.0286  11.6183   O.3       1 RES1   0.0000
    35 C35     20.5149  33.6629  10.3865   C.3       1 RES1   0.0000
    36 C36     21.1068  32.9159  13.9727   C.2       1 RES1   0.0000
@<TRIPOS>BOND
     1     1     2    1
     2     2     3   am
     3     3     4    2
     4     3     5    1
     5     5     6    1
     6     6     7    1
     7     7     8    2
     8     7     9   am
     9     9    10    1
    10    10    11    1
    11    11    12    1
    12    12    13    2
    13    13    14    1
    14    14    15    2
    15    15    16    1
    16    16    17    2
    17    10    18    1
    18    18    19    1
    19    18    20    1
    20    20    21    1
    21    21    22    1
    22    22    23    1
    23    23    24    1
    24    24    25    1
    25    21    26    1
    26    26    27    2
    27    26    28    2
    28    26    29    1
    29    29    30    2
    30    30    31    1
    31    31    32    2
    32    32    33    1
    33    33    34    1
    34    34    35    1
    35    33    36    2
    36    17    12    1
    37    25    23    1
    38    36    29    1
@<TRIPOS>SUBSTRUCTURE
     1 RES1        1 GROUP             0 ****  ****    0  
@<TRIPOS>MOLECULE
ligand_91
    36    38     1     0     0
SMALL
NO_CHARGES
****
Generated from the CSD

@<TRIPOS>ATOM
     1 C1      24.2804  24.2651   9.4084   C.3       1 RES1   0.0000
     2 N2      23.2558  25.1774   9.8893   N.am      1 RES1   0.0000
     3 C3      23.0731  25.4181  11.1891   C.2       1 RES1   0.0000
     4 O4      23.7618  24.8819  12.0666   O.2       1 RES1   0.0000
     5 C5      21.9764  26.3817  11.5657   C.3       1 RES1   0.0000
     6 C6      21.9519  26.4958  13.0707   C.3       1 RES1   0.0000
     7 C7      20.8668  27.4449  13.4825   C.2       1 RES1   0.0000
     8 O8      19.7532  27.2347  13.0378   O.2       1 RES1   0.0000
     9 N9      21.1482  28.4888  14.2729   N.am      1 RES1   0.0000
    10 C10     20.1398  29.4531  14.7416   C.3       1 RES1   0.0000
    11 C11     19.7265  29.0985  16.1718   C.3       1 RES1   0.0000
    12 C12     19.0490  27.7502  16.1643   C.2       1 RES1   0.0000
    13 C13     17.6698  27.6544  15.9823   C.2       1 RES1   0.0000
    14 C14     17.0350  26.4242  15.9914   C.2       1 RES1   0.0000
    15 C15     17.7816  25.2704  16.1817   C.2       1 RES1   0.0000
    16 C16     19.1403  25.3675  16.3802   C.2       1 RES1   0.0000
    17 C17     19.7831  26.5922  16.3568   C.2       1 RES1   0.0000
    18 C18     20.6905  30.8870  14.6186   C.3       1 RES1   0.0000
    19 O19     19.9519  31.7550  15.4768   O.3       1 RES1   0.0000
    20 C20     20.6884  31.4548  13.1777   C.3       1 RES1   0.0000
    21 N21     21.7073  30.6899  12.4205   N.3       1 RES1   0.0000
    22 C22     23.0466  31.3172  12.4557   C.3       1 RES1   0.0000
    23 C23     24.0762  30.2241  12.7556   C.3       1 RES1   0.0000
    24 C24     25.3755  30.8442  11.9614   C.3       1 RES1   0.0000
    25 C25     25.0350  29.4016  11.8566   C.3       1 RES1   0.0000
    26 S26     21.2490  30.2120  10.9333   S.o2      1 RES1   0.0000
    27 O27     20.1187  29.3476  11.0796   O.2       1 RES1   0.0000
    28 O28     22.3821  29.5385  10.3612   O.2       1 RES1   0.0000
    29 C29     20.8439  31.4697   9.9304   C.2       1 RES1   0.0000
    30 C30     19.5336  31.9464   9.8671   C.2       1 RES1   0.0000
    31 C31     19.2089  33.0094   9.0231   C.2       1 RES1   0.0000
    32 C32     20.1898  33.5933   8.2353   C.2       1 RES1   0.0000
    33 C33     21.5094  33.1302   8.2979   C.2       1 RES1   0.0000
    34 O34     22.5301  33.6705   7.5409   O.3       1 RES1   0.0000
    35 C35     22.3515  34.7446   6.6256   C.3       1 RES1   0.0000
    36 C36     21.8212  32.0699   9.1422   C.2       1 RES1   0.0000
@<TRIPOS>BOND
     1     1     2    1
     2     2     3   am
     3     3     4    2
     4     3     5    1
     5     5     6    1
     6     6     7    1
     7     7     8    2
     8     7     9   am
     9     9    10    1
    10    10    11    1
    11    11    12    1
    12    12    13    2
    13    13    14    1
    14    14    15    2
    15    15    16    1
    16    16    17    2
    17    10    18    1
    18    18    19    1
    19    18    20    1
    20    20    21    1
    21    21    22    1
    22    22    23    1
    23    23    24    1
    24    24    25    1
    25    21    26    1
    26    26    27    2
    27    26    28    2
    28    26    29    1
    29    29    30    2
    30    30    31    1
    31    31    32    2
    32    32    33    1
    33    33    34    1
    34    34    35    1
    35    33    36    2
    36    17    12    1
    37    25    23    1
    38    36    29    1
@<TRIPOS>SUBSTRUCTURE
     1 RES1        1 GROUP             0 ****  ****    0  
@<TRIPOS>MOLECULE
ligand_92
    36    38     1     0     0
SMALL
NO_CHARGES
****
Generated from the CSD

@<TRIPOS>ATOM
     1 C1      24.2804  24.2651   9.4084   C.3       1 RES1   0.0000
     2 N2      23.2558  25.1774   9.8893   N.am      1 RES1   0.0000
     3 C3      23.0731  25.4181  11.1891   C.2       1 RES1   0.0000
     4 O4      23.7618  24.8819  12.0666   O.2       1 RES1   0.0000
     5 C5      21.9764  26.3817  11.5657   C.3       1 RES1   0.0000
     6 C6      21.9519  26.4958  13.0707   C.3       1 RES1   0.0000
     7 C7      20.8668  27.4449  13.4825   C.2       1 RES1   0.0000
     8 O8      19.7532  27.2347  13.0378   O.2       1 RES1   0.0000
     9 N9      21.1482  28.4888  14.2729   N.am      1 RES1   0.0000
    10 C10     20.1398  29.4531  14.7416   C.3       1 RES1   0.0000
    11 C11     19.7265  29.0985  16.1718   C.3       1 RES1   0.0000
    12 C12     19.0490  27.7502  16.1643   C.2       1 RES1   0.0000
    13 C13     17.6698  27.6544  15.9823   C.2       1 RES1   0.0000
    14 C14     17.0350  26.4242  15.9914   C.2       1 RES1   0.0000
    15 C15     17.7816  25.2704  16.1817   C.2       1 RES1   0.0000
    16 C16     19.1403  25.3675  16.3802   C.2       1 RES1   0.0000
    17 C17     19.7831  26.5922  16.3568   C.2       1 RES1   0.0000
    18 C18     20.6905  30.8870  14.6186   C.3       1 RES1   0.0000
    19 O19     19.9519  31.7550  15.4768   O.3       1 RES1   0.0000
    20 C20     20.6884  31.4548  13.1777   C.3       1 RES1   0.0000
    21 N21     21.7073  30.6899  12.4205   N.3       1 RES1   0.0000
    22 C22     23.0466  31.3172  12.4557   C.3       1 RES1   0.0000
    23 C23     24.0762  30.2241  12.7556   C.3       1 RES1   0.0000
    24 C24     25.3755  30.8442  11.9614   C.3       1 RES1   0.0000
    25 C25     25.0350  29.4016  11.8566   C.3       1 RES1   0.0000
    26 S26     21.2490  30.2120  10.9333   S.o2      1 RES1   0.0000
    27 O27     20.1187  29.3476  11.0796   O.2       1 RES1   0.0000
    28 O28     22.3821  29.5385  10.3612   O.2       1 RES1   0.0000
    29 C29     20.8439  31.4697   9.9304   C.2       1 RES1   0.0000
    30 C30     21.8026  32.0844   9.1235   C.2       1 RES1   0.0000
    31 C31     21.4458  33.1375   8.2802   C.2       1 RES1   0.0000
    32 C32     20.1329  33.5839   8.2464   C.2       1 RES1   0.0000
    33 C33     19.1608  32.9685   9.0438   C.2       1 RES1   0.0000
    34 O34     17.8382  33.3654   9.0536   O.3       1 RES1   0.0000
    35 C35     17.3274  34.4315   8.2623   C.3       1 RES1   0.0000
    36 C36     19.5281  31.9202   9.8808   C.2       1 RES1   0.0000
@<TRIPOS>BOND
     1     1     2    1
     2     2     3   am
     3     3     4    2
     4     3     5    1
     5     5     6    1
     6     6     7    1
     7     7     8    2
     8     7     9   am
     9     9    10    1
    10    10    11    1
    11    11    12    1
    12    12    13    2
    13    13    14    1
    14    14    15    2
    15    15    16    1
    16    16    17    2
    17    10    18    1
    18    18    19    1
    19    18    20    1
    20    20    21    1
    21    21    22    1
    22    22    23    1
    23    23    24    1
    24    24    25    1
    25    21    26    1
    26    26    27    2
    27    26    28    2
    28    26    29    1
    29    29    30    2
    30    30    31    1
    31    31    32    2
    32    32    33    1
    33    33    34    1
    34    34    35    1
    35    33    36    2
    36    17    12    1
    37    25    23    1
    38    36    29    1
@<TRIPOS>SUBSTRUCTURE
     1 RES1        1 GROUP             0 ****  ****    0  
@<TRIPOS>MOLECULE
ligand_93
    36    38     1     0     0
SMALL
NO_CHARGES
****
Generated from the CSD

@<TRIPOS>ATOM
     1 C1      24.1101  24.8017   8.8644   C.3       1 RES1   0.0000
     2 N2      23.1024  25.6598   9.4658   N.am      1 RES1   0.0000
     3 C3      22.9444  25.7502  10.7878   C.2       1 RES1   0.0000
     4 O4      23.6433  25.1115  11.5850   O.2       1 RES1   0.0000
     5 C5      21.8632  26.6718  11.2928   C.3       1 RES1   0.0000
     6 C6      21.8658  26.6117  12.8012   C.3       1 RES1   0.0000
     7 C7      20.8002  27.5185  13.3394   C.2       1 RES1   0.0000
     8 O8      20.1337  28.1297  12.5242   O.2       1 RES1   0.0000
     9 N9      20.6384  27.6585  14.6615   N.am      1 RES1   0.0000
    10 C10     19.6460  28.5580  15.2718   C.3       1 RES1   0.0000
    11 C11     18.7737  27.7631  16.2460   C.3       1 RES1   0.0000
    12 C12     17.9772  26.7441  15.4687   C.2       1 RES1   0.0000
    13 C13     16.7181  27.0680  14.9644   C.2       1 RES1   0.0000
    14 C14     15.9708  26.1357  14.2651   C.2       1 RES1   0.0000
    15 C15     16.4826  24.8624  14.0611   C.2       1 RES1   0.0000
    16 C16     17.7174  24.5380  14.5756   C.2       1 RES1   0.0000
    17 C17     18.4760  25.4692  15.2618   C.2       1 RES1   0.0000
    18 C18     20.3608  29.7457  15.9448   C.3       1 RES1   0.0000
    19 O19     19.3952  30.5876  16.5728   O.3       1 RES1   0.0000
    20 C20     21.2439  30.5881  14.9914   C.3       1 RES1   0.0000
    21 N21     21.9436  31.5861  15.8346   N.3       1 RES1   0.0000
    22 C22     21.9409  32.9440  15.2474   C.3       1 RES1   0.0000
    23 C23     21.6070  33.9425  16.3593   C.3       1 RES1   0.0000
    24 C24     22.4338  35.2532  15.8099   C.3       1 RES1   0.0000
    25 C25     22.4810  34.8682  17.2444   C.3       1 RES1   0.0000
    26 S26     23.3994  31.1196  16.3941   S.o2      1 RES1   0.0000
    27 O27     23.1886  30.3749  17.5971   O.2       1 RES1   0.0000
    28 O28     24.1474  32.3252  16.6212   O.2       1 RES1   0.0000
    29 C29     24.2519  30.1856  15.3203   C.2       1 RES1   0.0000
    30 C30     24.1283  28.7954  15.3196   C.2       1 RES1   0.0000
    31 C31     24.8472  28.0230  14.4062   C.2       1 RES1   0.0000
    32 C32     25.6964  28.6364  13.4971   C.2       1 RES1   0.0000
    33 C33     25.8207  30.0307  13.4819   C.2       1 RES1   0.0000
    34 O34     26.6473  30.6999  12.6012   O.3       1 RES1   0.0000
    35 C35     27.4528  30.0506  11.6249   C.3       1 RES1   0.0000
    36 C36     25.0998  30.7902  14.3972   C.2       1 RES1   0.0000
@<TRIPOS>BOND
     1     1     2    1
     2     2     3   am
     3     3     4    2
     4     3     5    1
     5     5     6    1
     6     6     7    1
     7     7     8    2
     8     7     9   am
     9     9    10    1
    10    10    11    1
    11    11    12    1
    12    12    13    2
    13    13    14    1
    14    14    15    2
    15    15    16    1
    16    16    17    2
    17    10    18    1
    18    18    19    1
    19    18    20    1
    20    20    21    1
    21    21    22    1
    22    22    23    1
    23    23    24    1
    24    24    25    1
    25    21    26    1
    26    26    27    2
    27    26    28    2
    28    26    29    1
    29    29    30    2
    30    30    31    1
    31    31    32    2
    32    32    33    1
    33    33    34    1
    34    34    35    1
    35    33    36    2
    36    17    12    1
    37    25    23    1
    38    36    29    1
@<TRIPOS>SUBSTRUCTURE
     1 RES1        1 GROUP             0 ****  ****    0  
@<TRIPOS>MOLECULE
ligand_94
    36    38     1     0     0
SMALL
NO_CHARGES
****
Generated from the CSD

@<TRIPOS>ATOM
     1 C1      24.0357  24.8333   8.7945   C.3       1 RES1   0.0000
     2 N2      23.0389  25.6927   9.4119   N.am      1 RES1   0.0000
     3 C3      22.8950  25.7753  10.7360   C.2       1 RES1   0.0000
     4 O4      23.5987  25.1278  11.5218   O.2       1 RES1   0.0000
     5 C5      21.8240  26.6992  11.2582   C.3       1 RES1   0.0000
     6 C6      21.8440  26.6317  12.7661   C.3       1 RES1   0.0000
     7 C7      20.7842  27.5353  13.3211   C.2       1 RES1   0.0000
     8 O8      20.1085  28.1506  12.5167   O.2       1 RES1   0.0000
     9 N9      20.6372  27.6681  14.6457   N.am      1 RES1   0.0000
    10 C10     19.6460  28.5580  15.2718   C.3       1 RES1   0.0000
    11 C11     18.7885  27.7519  16.2500   C.3       1 RES1   0.0000
    12 C12     17.9892  26.7338  15.4745   C.2       1 RES1   0.0000
    13 C13     16.7230  27.0542  14.9859   C.2       1 RES1   0.0000
    14 C14     15.9732  26.1226  14.2884   C.2       1 RES1   0.0000
    15 C15     16.4895  24.8535  14.0704   C.2       1 RES1   0.0000
    16 C16     17.7316  24.5323  14.5695   C.2       1 RES1   0.0000
    17 C17     18.4924  25.4631  15.2537   C.2       1 RES1   0.0000
    18 C18     20.3608  29.7457  15.9448   C.3       1 RES1   0.0000
    19 O19     19.3952  30.5876  16.5728   O.3       1 RES1   0.0000
    20 C20     21.2439  30.5881  14.9914   C.3       1 RES1   0.0000
    21 N21     21.9172  31.6082  15.8296   N.3       1 RES1   0.0000
    22 C22     21.9118  32.9554  15.2183   C.3       1 RES1   0.0000
    23 C23     21.5467  33.9698  16.3058   C.3       1 RES1   0.0000
    24 C24     22.3703  35.2792  15.7487   C.3       1 RES1   0.0000
    25 C25     22.3942  34.9202  17.1905   C.3       1 RES1   0.0000
    26 S26     23.3668  31.1670  16.4247   S.o2      1 RES1   0.0000
    27 O27     23.1411  30.4463  17.6395   O.2       1 RES1   0.0000
    28 O28     24.1001  32.3840  16.6389   O.2       1 RES1   0.0000
    29 C29     24.2464  30.2181  15.3865   C.2       1 RES1   0.0000
    30 C30     25.1135  30.7862  14.4518   C.2       1 RES1   0.0000
    31 C31     25.8516  29.9749  13.5889   C.2       1 RES1   0.0000
    32 C32     25.7200  28.5956  13.6524   C.2       1 RES1   0.0000
    33 C33     24.8610  28.0143  14.5925   C.2       1 RES1   0.0000
    34 O34     24.6880  26.6490  14.7061   O.3       1 RES1   0.0000
    35 C35     25.3613  25.6967  13.8917   C.3       1 RES1   0.0000
    36 C36     24.1299  28.8327  15.4469   C.2       1 RES1   0.0000
@<TRIPOS>BOND
     1     1     2    1
     2     2     3   am
     3     3     4    2
     4     3     5    1
     5     5     6    1
     6     6     7    1
     7     7     8    2
     8     7     9   am
     9     9    10    1
    10    10    11    1
    11    11    12    1
    12    12    13    2
    13    13    14    1
    14    14    15    2
    15    15    16    1
    16    16    17    2
    17    10    18    1
    18    18    19    1
    19    18    20    1
    20    20    21    1
    21    21    22    1
    22    22    23    1
    23    23    24    1
    24    24    25    1
    25    21    26    1
    26    26    27    2
    27    26    28    2
    28    26    29    1
    29    29    30    2
    30    30    31    1
    31    31    32    2
    32    32    33    1
    33    33    34    1
    34    34    35    1
    35    33    36    2
    36    17    12    1
    37    25    23    1
    38    36    29    1
@<TRIPOS>SUBSTRUCTURE
     1 RES1        1 GROUP             0 ****  ****    0  
@<TRIPOS>MOLECULE
ligand_95
    36    38     1     0     0
SMALL
NO_CHARGES
****
Generated from the CSD

@<TRIPOS>ATOM
     1 C1      23.8058  24.4153   8.9955   C.3       1 RES1   0.0000
     2 N2      22.8908  25.3827   9.5788   N.am      1 RES1   0.0000
     3 C3      22.7725  25.5417  10.8985   C.2       1 RES1   0.0000
     4 O4      23.4394  24.8851  11.7086   O.2       1 RES1   0.0000
     5 C5      21.7781  26.5654  11.3847   C.3       1 RES1   0.0000
     6 C6      21.8221  26.5790  12.8935   C.3       1 RES1   0.0000
     7 C7      23.0972  27.2214  13.3507   C.2       1 RES1   0.0000
     8 O8      23.3295  28.3416  12.9347   O.2       1 RES1   0.0000
     9 N9      23.9402  26.5535  14.1489   N.am      1 RES1   0.0000
    10 C10     25.2116  27.1088  14.6404   C.3       1 RES1   0.0000
    11 C11     25.0544  27.5113  16.1085   C.3       1 RES1   0.0000
    12 C12     24.0459  28.6297  16.2031   C.2       1 RES1   0.0000
    13 C13     24.4571  29.9596  16.1206   C.2       1 RES1   0.0000
    14 C14     23.5431  30.9943  16.2238   C.2       1 RES1   0.0000
    15 C15     22.1992  30.7041  16.4095   C.2       1 RES1   0.0000
    16 C16     21.7969  29.3914  16.5097   C.2       1 RES1   0.0000
    17 C17     22.7026  28.3525  16.3919   C.2       1 RES1   0.0000
    18 C18     26.3470  26.0906  14.4199   C.3       1 RES1   0.0000
    19 O19     27.4549  26.4260  15.2539   O.3       1 RES1   0.0000
    20 C20     26.8210  25.9648  12.9509   C.3       1 RES1   0.0000
    21 N21     27.7686  24.8260  12.9084   N.3       1 RES1   0.0000
    22 C22     29.1500  25.2083  13.2748   C.3       1 RES1   0.0000
    23 C23     29.6737  24.1862  14.2877   C.3       1 RES1   0.0000
    24 C24     31.2767  24.2354  13.9249   C.3       1 RES1   0.0000
    25 C25     30.5861  22.9397  14.1542   C.3       1 RES1   0.0000
    26 S26     27.6797  23.9020  11.5711   S.o2      1 RES1   0.0000
    27 O27     26.3395  23.4137  11.4640   O.2       1 RES1   0.0000
    28 O28     28.6347  22.8435  11.7504   O.2       1 RES1   0.0000
    29 C29     28.0742  24.7139  10.1793   C.2       1 RES1   0.0000
    30 C30     27.1023  25.3908   9.4409   C.2       1 RES1   0.0000
    31 C31     27.4501  26.0746   8.2751   C.2       1 RES1   0.0000
    32 C32     28.7672  26.0777   7.8404   C.2       1 RES1   0.0000
    33 C33     29.7523  25.4107   8.5782   C.2       1 RES1   0.0000
    34 O34     31.0797  25.3785   8.1990   O.3       1 RES1   0.0000
    35 C35     31.5830  26.0134   7.0297   C.3       1 RES1   0.0000
    36 C36     29.3939  24.7320   9.7381   C.2       1 RES1   0.0000
@<TRIPOS>BOND
     1     1     2    1
     2     2     3   am
     3     3     4    2
     4     3     5    1
     5     5     6    1
     6     6     7    1
     7     7     8    2
     8     7     9   am
     9     9    10    1
    10    10    11    1
    11    11    12    1
    12    12    13    2
    13    13    14    1
    14    14    15    2
    15    15    16    1
    16    16    17    2
    17    10    18    1
    18    18    19    1
    19    18    20    1
    20    20    21    1
    21    21    22    1
    22    22    23    1
    23    23    24    1
    24    24    25    1
    25    21    26    1
    26    26    27    2
    27    26    28    2
    28    26    29    1
    29    29    30    2
    30    30    31    1
    31    31    32    2
    32    32    33    1
    33    33    34    1
    34    34    35    1
    35    33    36    2
    36    17    12    1
    37    25    23    1
    38    36    29    1
@<TRIPOS>SUBSTRUCTURE
     1 RES1        1 GROUP             0 ****  ****    0  
@<TRIPOS>MOLECULE
ligand_96
    36    38     1     0     0
SMALL
NO_CHARGES
****
Generated from the CSD

@<TRIPOS>ATOM
     1 C1      23.8032  24.3977   9.0045   C.3       1 RES1   0.0000
     2 N2      22.8895  25.3684   9.5845   N.am      1 RES1   0.0000
     3 C3      22.7711  25.5317  10.9037   C.2       1 RES1   0.0000
     4 O4      23.4366  24.8766  11.7160   O.2       1 RES1   0.0000
     5 C5      21.7782  26.5586  11.3862   C.3       1 RES1   0.0000
     6 C6      21.8216  26.5768  12.8950   C.3       1 RES1   0.0000
     7 C7      23.0971  27.2196  13.3507   C.2       1 RES1   0.0000
     8 O8      23.3298  28.3389  12.9324   O.2       1 RES1   0.0000
     9 N9      23.9400  26.5530  14.1501   N.am      1 RES1   0.0000
    10 C10     25.2116  27.1088  14.6404   C.3       1 RES1   0.0000
    11 C11     25.0553  27.5123  16.1083   C.3       1 RES1   0.0000
    12 C12     24.0475  28.6314  16.2026   C.2       1 RES1   0.0000
    13 C13     24.4595  29.9610  16.1191   C.2       1 RES1   0.0000
    14 C14     23.5462  30.9963  16.2221   C.2       1 RES1   0.0000
    15 C15     22.2021  30.7070  16.4085   C.2       1 RES1   0.0000
    16 C16     21.7991  29.3946  16.5097   C.2       1 RES1   0.0000
    17 C17     22.7041  28.3551  16.3922   C.2       1 RES1   0.0000
    18 C18     26.3470  26.0906  14.4199   C.3       1 RES1   0.0000
    19 O19     27.4549  26.4260  15.2539   O.3       1 RES1   0.0000
    20 C20     26.8210  25.9648  12.9509   C.3       1 RES1   0.0000
    21 N21     27.7678  24.8254  12.9082   N.3       1 RES1   0.0000
    22 C22     29.1494  25.2066  13.2754   C.3       1 RES1   0.0000
    23 C23     29.6717  24.1838  14.2883   C.3       1 RES1   0.0000
    24 C24     31.2749  24.2319  13.9265   C.3       1 RES1   0.0000
    25 C25     30.5833  22.9366  14.1551   C.3       1 RES1   0.0000
    26 S26     27.6789  23.9022  11.5704   S.o2      1 RES1   0.0000
    27 O27     26.3385  23.4144  11.4627   O.2       1 RES1   0.0000
    28 O28     28.6336  22.8432  11.7493   O.2       1 RES1   0.0000
    29 C29     28.0739  24.7147  10.1791   C.2       1 RES1   0.0000
    30 C30     29.3881  24.7417   9.7099   C.2       1 RES1   0.0000
    31 C31     29.7044  25.4244   8.5345   C.2       1 RES1   0.0000
    32 C32     28.7109  26.0876   7.8295   C.2       1 RES1   0.0000
    33 C33     27.3875  26.0589   8.2852   C.2       1 RES1   0.0000
    34 O34     26.3545  26.6972   7.6278   O.3       1 RES1   0.0000
    35 C35     26.5229  27.4446   6.4292   C.3       1 RES1   0.0000
    36 C36     27.0842  25.3759   9.4582   C.2       1 RES1   0.0000
@<TRIPOS>BOND
     1     1     2    1
     2     2     3   am
     3     3     4    2
     4     3     5    1
     5     5     6    1
     6     6     7    1
     7     7     8    2
     8     7     9   am
     9     9    10    1
    10    10    11    1
    11    11    12    1
    12    12    13    2
    13    13    14    1
    14    14    15    2
    15    15    16    1
    16    16    17    2
    17    10    18    1
    18    18    19    1
    19    18    20    1
    20    20    21    1
    21    21    22    1
    22    22    23    1
    23    23    24    1
    24    24    25    1
    25    21    26    1
    26    26    27    2
    27    26    28    2
    28    26    29    1
    29    29    30    2
    30    30    31    1
    31    31    32    2
    32    32    33    1
    33    33    34    1
    34    34    35    1
    35    33    36    2
    36    17    12    1
    37    25    23    1
    38    36    29    1
@<TRIPOS>SUBSTRUCTURE
     1 RES1        1 GROUP             0 ****  ****    0  
@<TRIPOS>MOLECULE
ligand_97
    36    38     1     0     0
SMALL
NO_CHARGES
****
Generated from the CSD

@<TRIPOS>ATOM
     1 C1      24.1117  24.8006   8.8661   C.3       1 RES1   0.0000
     2 N2      23.1039  25.6588   9.4671   N.am      1 RES1   0.0000
     3 C3      22.9455  25.7494  10.7891   C.2       1 RES1   0.0000
     4 O4      23.6440  25.1107  11.5866   O.2       1 RES1   0.0000
     5 C5      21.8642  26.6711  11.2937   C.3       1 RES1   0.0000
     6 C6      21.8663  26.6112  12.8020   C.3       1 RES1   0.0000
     7 C7      20.8006  27.5181  13.3398   C.2       1 RES1   0.0000
     8 O8      20.1344  28.1292  12.5244   O.2       1 RES1   0.0000
     9 N9      20.6384  27.6582  14.6619   N.am      1 RES1   0.0000
    10 C10     19.6460  28.5580  15.2718   C.3       1 RES1   0.0000
    11 C11     18.7733  27.7633  16.2459   C.3       1 RES1   0.0000
    12 C12     17.9767  26.7446  15.4686   C.2       1 RES1   0.0000
    13 C13     16.7178  27.0687  14.9640   C.2       1 RES1   0.0000
    14 C14     15.9703  26.1367  14.2646   C.2       1 RES1   0.0000
    15 C15     16.4818  24.8632  14.0608   C.2       1 RES1   0.0000
    16 C16     17.7165  24.5385  14.5755   C.2       1 RES1   0.0000
    17 C17     18.4751  25.4695  15.2618   C.2       1 RES1   0.0000
    18 C18     20.3608  29.7457  15.9448   C.3       1 RES1   0.0000
    19 O19     19.4055  30.7559  16.2648   O.3       1 RES1   0.0000
    20 C20     21.5094  30.3620  15.1085   C.3       1 RES1   0.0000
    21 N21     21.8330  31.6671  15.7318   N.3       1 RES1   0.0000
    22 C22     22.5293  32.5920  14.8107   C.3       1 RES1   0.0000
    23 C23     21.8696  33.9686  14.9302   C.3       1 RES1   0.0000
    24 C24     23.1626  34.9245  14.5870   C.3       1 RES1   0.0000
    25 C25     22.2459  35.2557  15.7086   C.3       1 RES1   0.0000
    26 S26     22.5153  31.5784  17.2072   S.o2      1 RES1   0.0000
    27 O27     21.5495  31.0226  18.1041   O.2       1 RES1   0.0000
    28 O28     22.8812  32.9219  17.5617   O.2       1 RES1   0.0000
    29 C29     23.8890  30.6492  17.2454   C.2       1 RES1   0.0000
    30 C30     25.1452  31.2119  17.0148   C.2       1 RES1   0.0000
    31 C31     26.2927  30.4188  17.0562   C.2       1 RES1   0.0000
    32 C32     26.1876  29.0612  17.3204   C.2       1 RES1   0.0000
    33 C33     24.9339  28.4876  17.5632   C.2       1 RES1   0.0000
    34 O34     24.7639  27.1442  17.8334   O.3       1 RES1   0.0000
    35 C35     25.8339  26.2088  17.8933   C.3       1 RES1   0.0000
    36 C36     23.7971  29.2878  17.5188   C.2       1 RES1   0.0000
@<TRIPOS>BOND
     1     1     2    1
     2     2     3   am
     3     3     4    2
     4     3     5    1
     5     5     6    1
     6     6     7    1
     7     7     8    2
     8     7     9   am
     9     9    10    1
    10    10    11    1
    11    11    12    1
    12    12    13    2
    13    13    14    1
    14    14    15    2
    15    15    16    1
    16    16    17    2
    17    10    18    1
    18    18    19    1
    19    18    20    1
    20    20    21    1
    21    21    22    1
    22    22    23    1
    23    23    24    1
    24    24    25    1
    25    21    26    1
    26    26    27    2
    27    26    28    2
    28    26    29    1
    29    29    30    2
    30    30    31    1
    31    31    32    2
    32    32    33    1
    33    33    34    1
    34    34    35    1
    35    33    36    2
    36    17    12    1
    37    25    23    1
    38    36    29    1
@<TRIPOS>SUBSTRUCTURE
     1 RES1        1 GROUP             0 ****  ****    0  
@<TRIPOS>MOLECULE
ligand_98
    36    38     1     0     0
SMALL
NO_CHARGES
****
Generated from the CSD

@<TRIPOS>ATOM
     1 C1      24.3518  24.4168   9.2885   C.3       1 RES1   0.0000
     2 N2      23.3408  25.3300   9.7959   N.am      1 RES1   0.0000
     3 C3      23.1067  25.4753  11.1017   C.2       1 RES1   0.0000
     4 O4      23.7331  24.8441  11.9626   O.2       1 RES1   0.0000
     5 C5      22.0305  26.4506  11.5062   C.3       1 RES1   0.0000
     6 C6      21.9400  26.4473  13.0130   C.3       1 RES1   0.0000
     7 C7      20.8767  27.4086  13.4522   C.2       1 RES1   0.0000
     8 O8      20.2828  28.0105  12.5764   O.2       1 RES1   0.0000
     9 N9      20.6407  27.6035  14.7561   N.am      1 RES1   0.0000
    10 C10     19.6460  28.5580  15.2718   C.3       1 RES1   0.0000
    11 C11     18.6889  27.8299  16.2182   C.3       1 RES1   0.0000
    12 C12     17.4305  28.6493  16.3659   C.2       1 RES1   0.0000
    13 C13     16.3571  28.4571  15.4968   C.2       1 RES1   0.0000
    14 C14     15.2045  29.2153  15.6116   C.2       1 RES1   0.0000
    15 C15     15.1151  30.1781  16.6065   C.2       1 RES1   0.0000
    16 C16     16.1826  30.3800  17.4520   C.2       1 RES1   0.0000
    17 C17     17.3310  29.6154  17.3527   C.2       1 RES1   0.0000
    18 C18     20.3608  29.7457  15.9448   C.3       1 RES1   0.0000
    19 O19     21.2544  30.3526  15.0128   O.3       1 RES1   0.0000
    20 C20     21.1276  29.3837  17.2407   C.3       1 RES1   0.0000
    21 N21     21.7293  30.6422  17.7414   N.3       1 RES1   0.0000
    22 C22     23.1684  30.5101  18.0580   C.3       1 RES1   0.0000
    23 C23     23.8987  31.7187  17.4657   C.3       1 RES1   0.0000
    24 C24     25.1330  31.8502  18.5440   C.3       1 RES1   0.0000
    25 C25     24.3978  33.0538  18.0760   C.3       1 RES1   0.0000
    26 S26     20.8739  31.4057  18.8971   S.o2      1 RES1   0.0000
    27 O27     19.5551  31.6298  18.3904   O.2       1 RES1   0.0000
    28 O28     21.5713  32.6323  19.1684   O.2       1 RES1   0.0000
    29 C29     20.7721  30.5528  20.3163   C.2       1 RES1   0.0000
    30 C30     19.7267  29.6564  20.5438   C.2       1 RES1   0.0000
    31 C31     19.6575  28.9412  21.7402   C.2       1 RES1   0.0000
    32 C32     20.6273  29.1252  22.7146   C.2       1 RES1   0.0000
    33 C33     21.6859  30.0142  22.4934   C.2       1 RES1   0.0000
    34 O34     22.6821  30.2394  23.4227   O.3       1 RES1   0.0000
    35 C35     22.7386  29.5987  24.6915   C.3       1 RES1   0.0000
    36 C36     21.7443  30.7219  21.2975   C.2       1 RES1   0.0000
@<TRIPOS>BOND
     1     1     2    1
     2     2     3   am
     3     3     4    2
     4     3     5    1
     5     5     6    1
     6     6     7    1
     7     7     8    2
     8     7     9   am
     9     9    10    1
    10    10    11    1
    11    11    12    1
    12    12    13    2
    13    13    14    1
    14    14    15    2
    15    15    16    1
    16    16    17    2
    17    10    18    1
    18    18    19    1
    19    18    20    1
    20    20    21    1
    21    21    22    1
    22    22    23    1
    23    23    24    1
    24    24    25    1
    25    21    26    1
    26    26    27    2
    27    26    28    2
    28    26    29    1
    29    29    30    2
    30    30    31    1
    31    31    32    2
    32    32    33    1
    33    33    34    1
    34    34    35    1
    35    33    36    2
    36    17    12    1
    37    25    23    1
    38    36    29    1
@<TRIPOS>SUBSTRUCTURE
     1 RES1        1 GROUP             0 ****  ****    0  
@<TRIPOS>MOLECULE
ligand_99
    36    38     1     0     0
SMALL
NO_CHARGES
****
Generated from the CSD

@<TRIPOS>ATOM
     1 C1      24.3614  24.4001   9.3078   C.3       1 RES1   0.0000
     2 N2      23.3505  25.3156   9.8110   N.am      1 RES1   0.0000
     3 C3      23.1131  25.4633  11.1159   C.2       1 RES1   0.0000
     4 O4      23.7363  24.8326  11.9795   O.2       1 RES1   0.0000
     5 C5      22.0373  26.4410  11.5160   C.3       1 RES1   0.0000
     6 C6      21.9429  26.4402  13.0226   C.3       1 RES1   0.0000
     7 C7      20.8799  27.4038  13.4573   C.2       1 RES1   0.0000
     8 O8      20.2891  28.0053  12.5790   O.2       1 RES1   0.0000
     9 N9      20.6406  27.6012  14.7602   N.am      1 RES1   0.0000
    10 C10     19.6460  28.5580  15.2718   C.3       1 RES1   0.0000
    11 C11     18.6853  27.8328  16.2168   C.3       1 RES1   0.0000
    12 C12     17.4245  28.6505  16.3535   C.2       1 RES1   0.0000
    13 C13     16.3564  28.4519  15.4793   C.2       1 RES1   0.0000
    14 C14     15.2016  29.2083  15.5839   C.2       1 RES1   0.0000
    15 C15     15.1047  30.1757  16.5736   C.2       1 RES1   0.0000
    16 C16     16.1670  30.3839  17.4240   C.2       1 RES1   0.0000
    17 C17     17.3175  29.6212  17.3349   C.2       1 RES1   0.0000
    18 C18     20.3608  29.7457  15.9448   C.3       1 RES1   0.0000
    19 O19     21.2544  30.3526  15.0128   O.3       1 RES1   0.0000
    20 C20     21.1276  29.3837  17.2407   C.3       1 RES1   0.0000
    21 N21     21.7297  30.6421  17.7412   N.3       1 RES1   0.0000
    22 C22     23.1698  30.5108  18.0535   C.3       1 RES1   0.0000
    23 C23     23.8974  31.7207  17.4606   C.3       1 RES1   0.0000
    24 C24     25.1346  31.8520  18.5356   C.3       1 RES1   0.0000
    25 C25     24.3971  33.0555  18.0710   C.3       1 RES1   0.0000
    26 S26     20.8769  31.4036  18.9001   S.o2      1 RES1   0.0000
    27 O27     19.5553  31.6235  18.3989   O.2       1 RES1   0.0000
    28 O28     21.5718  32.6325  19.1679   O.2       1 RES1   0.0000
    29 C29     20.7837  30.5510  20.3201   C.2       1 RES1   0.0000
    30 C30     21.7440  30.7115  21.3202   C.2       1 RES1   0.0000
    31 C31     21.6491  29.9919  22.5123   C.2       1 RES1   0.0000
    32 C32     20.5999  29.1054  22.7049   C.2       1 RES1   0.0000
    33 C33     19.6255  28.9437  21.7129   C.2       1 RES1   0.0000
    34 O34     18.5572  28.0789  21.8457   O.3       1 RES1   0.0000
    35 C35     18.3348  27.2681  22.9931   C.3       1 RES1   0.0000
    36 C36     19.7306  29.6657  20.5288   C.2       1 RES1   0.0000
@<TRIPOS>BOND
     1     1     2    1
     2     2     3   am
     3     3     4    2
     4     3     5    1
     5     5     6    1
     6     6     7    1
     7     7     8    2
     8     7     9   am
     9     9    10    1
    10    10    11    1
    11    11    12    1
    12    12    13    2
    13    13    14    1
    14    14    15    2
    15    15    16    1
    16    16    17    2
    17    10    18    1
    18    18    19    1
    19    18    20    1
    20    20    21    1
    21    21    22    1
    22    22    23    1
    23    23    24    1
    24    24    25    1
    25    21    26    1
    26    26    27    2
    27    26    28    2
    28    26    29    1
    29    29    30    2
    30    30    31    1
    31    31    32    2
    32    32    33    1
    33    33    34    1
    34    34    35    1
    35    33    36    2
    36    17    12    1
    37    25    23    1
    38    36    29    1
@<TRIPOS>SUBSTRUCTURE
     1 RES1        1 GROUP             0 ****  ****    0  
