@<TRIPOS>MOLECULE
native
    27    28     1     0     0
SMALL
NO_CHARGES
****
Generated from the CSD

@<TRIPOS>ATOM
     1 C1     -16.0500  19.3930 -26.3180   C.3       1 RES1   0.0000
     2 O2     -15.8130  19.9490 -25.0190   O.3       1 RES1   0.0000
     3 C3     -15.6580  21.3020 -24.8580   C.2       1 RES1   0.0000
     4 C4     -15.7170  22.1630 -25.9590   C.2       1 RES1   0.0000
     5 C5     -15.5550  23.5380 -25.7880   C.2       1 RES1   0.0000
     6 C6     -15.3350  24.0430 -24.5130   C.2       1 RES1   0.0000
     7 S7     -15.1290  25.7660 -24.2430   S.o2      1 RES1   0.0000
     8 O8     -15.8080  26.4700 -25.2830   O.2       1 RES1   0.0000
     9 O9     -15.5380  26.0370 -22.8950   O.2       1 RES1   0.0000
    10 N10    -13.5230  26.0670 -24.3240   N.pl3     1 RES1   0.0000
    11 C11    -12.7650  26.2880 -25.5890   C.3       1 RES1   0.0000
    12 C12    -13.0300  27.6000 -26.3120   C.2       1 RES1   0.0000
    13 C13    -13.9850  27.6540 -27.3340   C.2       1 RES1   0.0000
    14 C14    -14.2390  28.8620 -27.9930   C.2       1 RES1   0.0000
    15 C15    -13.5190  30.0070 -27.6500   C.2       1 RES1   0.0000
    16 N16    -12.5710  29.9610 -26.6420   N.2       1 RES1   0.0000
    17 C17    -12.3180  28.7610 -25.9890   C.2       1 RES1   0.0000
    18 C18    -12.7270  25.9980 -23.0720   C.3       1 RES1   0.0000
    19 C19    -12.0020  24.6730 -22.9740   C.2       1 RES1   0.0000
    20 O20    -11.3210  24.2820 -23.9050   O.2       1 RES1   0.0000
    21 N21    -12.1370  23.9740 -21.8540   N.am      1 RES1   0.0000
    22 O22    -11.6180  22.6770 -21.7730   O.3       1 RES1   0.0000
    23 C23    -11.7200  27.1500 -22.9200   C.3       1 RES1   0.0000
    24 C24    -12.3880  28.5000 -22.6490   C.3       1 RES1   0.0000
    25 C25    -10.6960  26.8770 -21.8110   C.3       1 RES1   0.0000
    26 C26    -15.2720  23.1810 -23.4220   C.2       1 RES1   0.0000
    27 C27    -15.4300  21.8100 -23.5910   C.2       1 RES1   0.0000
@<TRIPOS>BOND
     1     1     2    1
     2     2     3    1
     3     3     4    2
     4     4     5    1
     5     5     6    2
     6     6     7    1
     7     7     8    2
     8     7     9    2
     9     7    10    1
    10    10    11    1
    11    11    12    1
    12    12    13    2
    13    13    14    1
    14    14    15    2
    15    15    16    1
    16    16    17    2
    17    10    18    1
    18    18    19    1
    19    19    20    2
    20    19    21   am
    21    21    22    1
    22    18    23    1
    23    23    24    1
    24    23    25    1
    25     6    26    1
    26    26    27    2
    27    27     3    1
    28    17    12    1
@<TRIPOS>SUBSTRUCTURE
     1 RES1        1 GROUP             0 ****  ****    0  
@<TRIPOS>MOLECULE
ligand_0
    27    28     1     0     0
SMALL
NO_CHARGES
****
Generated from the CSD

@<TRIPOS>ATOM
     1 C1     -16.0499  19.3930 -26.3180   C.3       1 RES1   0.0000
     2 O2     -15.8130  19.9490 -25.0190   O.3       1 RES1   0.0000
     3 C3     -15.6580  21.3020 -24.8580   C.2       1 RES1   0.0000
     4 C4     -15.7282  22.1641 -25.9575   C.2       1 RES1   0.0000
     5 C5     -15.5661  23.5391 -25.7865   C.2       1 RES1   0.0000
     6 C6     -15.3348  24.0430 -24.5131   C.2       1 RES1   0.0000
     7 S7     -15.1282  25.7659 -24.2432   S.o2      1 RES1   0.0000
     8 O8     -15.8558  26.4707 -25.2493   O.2       1 RES1   0.0000
     9 O9     -15.4805  26.0276 -22.8774   O.2       1 RES1   0.0000
    10 N10    -13.5291  26.0778 -24.3916   N.pl3     1 RES1   0.0000
    11 C11    -12.8839  26.6320 -25.6164   C.3       1 RES1   0.0000
    12 C12    -12.2411  28.0037 -25.4765   C.2       1 RES1   0.0000
    13 C13    -10.8913  28.1793 -25.8028   C.2       1 RES1   0.0000
    14 C14    -10.3003  29.4423 -25.6860   C.2       1 RES1   0.0000
    15 C15    -11.0504  30.5212 -25.2166   C.2       1 RES1   0.0000
    16 N16    -12.3854  30.3550 -24.8894   N.2       1 RES1   0.0000
    17 C17    -12.9714  29.1004 -25.0041   C.2       1 RES1   0.0000
    18 C18    -12.6246  25.6735 -23.2851   C.3       1 RES1   0.0000
    19 C19    -11.4769  24.8397 -23.8129   C.2       1 RES1   0.0000
    20 O20    -10.5561  25.3762 -24.4025   O.2       1 RES1   0.0000
    21 N21    -11.5173  23.5292 -23.6076   N.am      1 RES1   0.0000
    22 O22    -10.5457  22.7018 -24.1817   O.3       1 RES1   0.0000
    23 C23    -12.0722  26.8603 -22.4785   C.3       1 RES1   0.0000
    24 C24    -13.1671  27.7941 -21.9576   C.3       1 RES1   0.0000
    25 C25    -11.2134  26.4009 -21.2934   C.3       1 RES1   0.0000
    26 C26    -15.2607  23.1799 -23.4236   C.2       1 RES1   0.0000
    27 C27    -15.4188  21.8089 -23.5926   C.2       1 RES1   0.0000
@<TRIPOS>BOND
     1     1     2    1
     2     2     3    1
     3     3     4    2
     4     4     5    1
     5     5     6    2
     6     6     7    1
     7     7     8    2
     8     7     9    2
     9     7    10    1
    10    10    11    1
    11    11    12    1
    12    12    13    2
    13    13    14    1
    14    14    15    2
    15    15    16    1
    16    16    17    2
    17    10    18    1
    18    18    19    1
    19    19    20    2
    20    19    21   am
    21    21    22    1
    22    18    23    1
    23    23    24    1
    24    23    25    1
    25     6    26    1
    26    26    27    2
    27    27     3    1
    28    17    12    1
@<TRIPOS>SUBSTRUCTURE
     1 RES1        1 GROUP             0 ****  ****    0  
@<TRIPOS>MOLECULE
ligand_1
    27    28     1     0     0
SMALL
NO_CHARGES
****
Generated from the CSD

@<TRIPOS>ATOM
     1 C1     -16.0499  19.3930 -26.3180   C.3       1 RES1   0.0000
     2 O2     -15.8130  19.9490 -25.0190   O.3       1 RES1   0.0000
     3 C3     -15.6580  21.3020 -24.8580   C.2       1 RES1   0.0000
     4 C4     -15.7282  22.1641 -25.9575   C.2       1 RES1   0.0000
     5 C5     -15.5661  23.5391 -25.7865   C.2       1 RES1   0.0000
     6 C6     -15.3348  24.0430 -24.5131   C.2       1 RES1   0.0000
     7 S7     -15.1282  25.7659 -24.2432   S.o2      1 RES1   0.0000
     8 O8     -15.8558  26.4707 -25.2493   O.2       1 RES1   0.0000
     9 O9     -15.4805  26.0276 -22.8774   O.2       1 RES1   0.0000
    10 N10    -13.5291  26.0778 -24.3916   N.pl3     1 RES1   0.0000
    11 C11    -12.8839  26.6320 -25.6164   C.3       1 RES1   0.0000
    12 C12    -12.2414  28.0039 -25.4766   C.2       1 RES1   0.0000
    13 C13    -13.0011  29.0881 -25.0219   C.2       1 RES1   0.0000
    14 C14    -12.4098  30.3486 -24.8815   C.2       1 RES1   0.0000
    15 C15    -11.0690  30.5305 -25.2222   C.2       1 RES1   0.0000
    16 N16    -10.3117  29.4635 -25.6750   N.2       1 RES1   0.0000
    17 C17    -10.8996  28.2126 -25.8159   C.2       1 RES1   0.0000
    18 C18    -12.6246  25.6735 -23.2852   C.3       1 RES1   0.0000
    19 C19    -11.4766  24.8401 -23.8130   C.2       1 RES1   0.0000
    20 O20    -10.5563  25.3769 -24.4031   O.2       1 RES1   0.0000
    21 N21    -11.5162  23.5296 -23.6072   N.am      1 RES1   0.0000
    22 O22    -10.5443  22.7026 -24.1813   O.3       1 RES1   0.0000
    23 C23    -12.0726  26.8602 -22.4781   C.3       1 RES1   0.0000
    24 C24    -13.1679  27.7933 -21.9566   C.3       1 RES1   0.0000
    25 C25    -11.2132  26.4009 -21.2935   C.3       1 RES1   0.0000
    26 C26    -15.2607  23.1799 -23.4236   C.2       1 RES1   0.0000
    27 C27    -15.4188  21.8089 -23.5926   C.2       1 RES1   0.0000
@<TRIPOS>BOND
     1     1     2    1
     2     2     3    1
     3     3     4    2
     4     4     5    1
     5     5     6    2
     6     6     7    1
     7     7     8    2
     8     7     9    2
     9     7    10    1
    10    10    11    1
    11    11    12    1
    12    12    13    2
    13    13    14    1
    14    14    15    2
    15    15    16    1
    16    16    17    2
    17    10    18    1
    18    18    19    1
    19    19    20    2
    20    19    21   am
    21    21    22    1
    22    18    23    1
    23    23    24    1
    24    23    25    1
    25     6    26    1
    26    26    27    2
    27    27     3    1
    28    17    12    1
@<TRIPOS>SUBSTRUCTURE
     1 RES1        1 GROUP             0 ****  ****    0  
@<TRIPOS>MOLECULE
ligand_2
    27    28     1     0     0
SMALL
NO_CHARGES
****
Generated from the CSD

@<TRIPOS>ATOM
     1 C1     -16.0499  19.3930 -26.3180   C.3       1 RES1   0.0000
     2 O2     -15.8130  19.9490 -25.0190   O.3       1 RES1   0.0000
     3 C3     -15.6580  21.3020 -24.8580   C.2       1 RES1   0.0000
     4 C4     -15.7282  22.1641 -25.9575   C.2       1 RES1   0.0000
     5 C5     -15.5661  23.5391 -25.7865   C.2       1 RES1   0.0000
     6 C6     -15.3348  24.0430 -24.5131   C.2       1 RES1   0.0000
     7 S7     -15.1282  25.7659 -24.2432   S.o2      1 RES1   0.0000
     8 O8     -14.2945  25.9465 -23.0984   O.2       1 RES1   0.0000
     9 O9     -14.6759  26.3385 -25.4782   O.2       1 RES1   0.0000
    10 N10    -16.6164  26.3788 -23.9499   N.pl3     1 RES1   0.0000
    11 C11    -17.1601  26.6711 -22.5924   C.3       1 RES1   0.0000
    12 C12    -17.4634  28.1306 -22.2888   C.2       1 RES1   0.0000
    13 C13    -18.7472  28.5062 -21.8762   C.2       1 RES1   0.0000
    14 C14    -19.0260  29.8462 -21.5852   C.2       1 RES1   0.0000
    15 C15    -18.0306  30.8127 -21.7341   C.2       1 RES1   0.0000
    16 N16    -16.7591  30.4494 -22.1442   N.2       1 RES1   0.0000
    17 C17    -16.4831  29.1190 -22.4346   C.2       1 RES1   0.0000
    18 C18    -17.5493  26.5473 -25.0933   C.3       1 RES1   0.0000
    19 C19    -18.8767  25.8817 -24.8004   C.2       1 RES1   0.0000
    20 O20    -19.6695  26.4128 -24.0435   O.2       1 RES1   0.0000
    21 N21    -19.1326  24.7220 -25.3927   N.am      1 RES1   0.0000
    22 O22    -20.2891  24.0078 -25.0601   O.3       1 RES1   0.0000
    23 C23    -17.7832  28.0159 -25.4840   C.3       1 RES1   0.0000
    24 C24    -16.4842  28.7841 -25.7382   C.3       1 RES1   0.0000
    25 C25    -18.6814  28.1467 -26.7205   C.3       1 RES1   0.0000
    26 C26    -15.2607  23.1799 -23.4236   C.2       1 RES1   0.0000
    27 C27    -15.4188  21.8089 -23.5926   C.2       1 RES1   0.0000
@<TRIPOS>BOND
     1     1     2    1
     2     2     3    1
     3     3     4    2
     4     4     5    1
     5     5     6    2
     6     6     7    1
     7     7     8    2
     8     7     9    2
     9     7    10    1
    10    10    11    1
    11    11    12    1
    12    12    13    2
    13    13    14    1
    14    14    15    2
    15    15    16    1
    16    16    17    2
    17    10    18    1
    18    18    19    1
    19    19    20    2
    20    19    21   am
    21    21    22    1
    22    18    23    1
    23    23    24    1
    24    23    25    1
    25     6    26    1
    26    26    27    2
    27    27     3    1
    28    17    12    1
@<TRIPOS>SUBSTRUCTURE
     1 RES1        1 GROUP             0 ****  ****    0  
@<TRIPOS>MOLECULE
ligand_3
    27    28     1     0     0
SMALL
NO_CHARGES
****
Generated from the CSD

@<TRIPOS>ATOM
     1 C1     -16.0499  19.3930 -26.3180   C.3       1 RES1   0.0000
     2 O2     -15.8130  19.9490 -25.0190   O.3       1 RES1   0.0000
     3 C3     -15.6580  21.3020 -24.8580   C.2       1 RES1   0.0000
     4 C4     -15.7282  22.1641 -25.9575   C.2       1 RES1   0.0000
     5 C5     -15.5661  23.5391 -25.7865   C.2       1 RES1   0.0000
     6 C6     -15.3348  24.0430 -24.5131   C.2       1 RES1   0.0000
     7 S7     -15.1282  25.7659 -24.2432   S.o2      1 RES1   0.0000
     8 O8     -14.2945  25.9465 -23.0984   O.2       1 RES1   0.0000
     9 O9     -14.6759  26.3385 -25.4782   O.2       1 RES1   0.0000
    10 N10    -16.6164  26.3788 -23.9499   N.pl3     1 RES1   0.0000
    11 C11    -17.1601  26.6711 -22.5925   C.3       1 RES1   0.0000
    12 C12    -17.4633  28.1306 -22.2888   C.2       1 RES1   0.0000
    13 C13    -16.4580  29.0955 -22.4225   C.2       1 RES1   0.0000
    14 C14    -16.7370  30.4403 -22.1548   C.2       1 RES1   0.0000
    15 C15    -18.0111  30.8152 -21.7269   C.2       1 RES1   0.0000
    16 N16    -19.0100  29.8664 -21.5898   N.2       1 RES1   0.0000
    17 C17    -18.7321  28.5310 -21.8541   C.2       1 RES1   0.0000
    18 C18    -17.5493  26.5473 -25.0933   C.3       1 RES1   0.0000
    19 C19    -18.8768  25.8820 -24.8002   C.2       1 RES1   0.0000
    20 O20    -19.6692  26.4131 -24.0429   O.2       1 RES1   0.0000
    21 N21    -19.1333  24.7226 -25.3928   N.am      1 RES1   0.0000
    22 O22    -20.2899  24.0087 -25.0602   O.3       1 RES1   0.0000
    23 C23    -17.7829  28.0159 -25.4842   C.3       1 RES1   0.0000
    24 C24    -16.4838  28.7836 -25.7395   C.3       1 RES1   0.0000
    25 C25    -18.6819  28.1466 -26.7202   C.3       1 RES1   0.0000
    26 C26    -15.2607  23.1799 -23.4236   C.2       1 RES1   0.0000
    27 C27    -15.4188  21.8089 -23.5926   C.2       1 RES1   0.0000
@<TRIPOS>BOND
     1     1     2    1
     2     2     3    1
     3     3     4    2
     4     4     5    1
     5     5     6    2
     6     6     7    1
     7     7     8    2
     8     7     9    2
     9     7    10    1
    10    10    11    1
    11    11    12    1
    12    12    13    2
    13    13    14    1
    14    14    15    2
    15    15    16    1
    16    16    17    2
    17    10    18    1
    18    18    19    1
    19    19    20    2
    20    19    21   am
    21    21    22    1
    22    18    23    1
    23    23    24    1
    24    23    25    1
    25     6    26    1
    26    26    27    2
    27    27     3    1
    28    17    12    1
@<TRIPOS>SUBSTRUCTURE
     1 RES1        1 GROUP             0 ****  ****    0  
@<TRIPOS>MOLECULE
ligand_4
    27    28     1     0     0
SMALL
NO_CHARGES
****
Generated from the CSD

@<TRIPOS>ATOM
     1 C1     -16.0348  19.3915 -26.3201   C.3       1 RES1   0.0000
     2 O2     -15.8149  19.9492 -25.0188   O.3       1 RES1   0.0000
     3 C3     -15.6592  21.3021 -24.8579   C.2       1 RES1   0.0000
     4 C4     -15.7120  22.1625 -25.9597   C.2       1 RES1   0.0000
     5 C5     -15.5494  23.5374 -25.7888   C.2       1 RES1   0.0000
     6 C6     -15.3348  24.0430 -24.5131   C.2       1 RES1   0.0000
     7 S7     -15.1282  25.7659 -24.2432   S.o2      1 RES1   0.0000
     8 O8     -15.8558  26.4707 -25.2493   O.2       1 RES1   0.0000
     9 O9     -15.4805  26.0276 -22.8774   O.2       1 RES1   0.0000
    10 N10    -13.5291  26.0778 -24.3916   N.pl3     1 RES1   0.0000
    11 C11    -12.6400  26.4979 -23.2706   C.3       1 RES1   0.0000
    12 C12    -11.6242  25.4699 -22.7956   C.2       1 RES1   0.0000
    13 C13    -12.0566  24.2177 -22.3434   C.2       1 RES1   0.0000
    14 C14    -11.1237  23.2660 -21.9167   C.2       1 RES1   0.0000
    15 C15     -9.7633  23.5764 -21.9154   C.2       1 RES1   0.0000
    16 N16     -9.3280  24.8137 -22.3588   N.2       1 RES1   0.0000
    17 C17    -10.2547  25.7589 -22.7809   C.2       1 RES1   0.0000
    18 C18    -12.9299  26.0657 -25.7505   C.3       1 RES1   0.0000
    19 C19    -12.5514  27.4673 -26.1783   C.2       1 RES1   0.0000
    20 O20    -11.5771  28.0103 -25.6890   O.2       1 RES1   0.0000
    21 N21    -13.3096  28.0630 -27.0902   N.am      1 RES1   0.0000
    22 O22    -13.0757  29.4008 -27.4276   O.3       1 RES1   0.0000
    23 C23    -11.7082  25.1403 -25.8750   C.3       1 RES1   0.0000
    24 C24    -11.9949  23.7039 -25.4313   C.3       1 RES1   0.0000
    25 C25    -11.1511  25.1113 -27.3039   C.3       1 RES1   0.0000
    26 C26    -15.2779  23.1816 -23.4213   C.2       1 RES1   0.0000
    27 C27    -15.4366  21.8107 -23.5902   C.2       1 RES1   0.0000
@<TRIPOS>BOND
     1     1     2    1
     2     2     3    1
     3     3     4    2
     4     4     5    1
     5     5     6    2
     6     6     7    1
     7     7     8    2
     8     7     9    2
     9     7    10    1
    10    10    11    1
    11    11    12    1
    12    12    13    2
    13    13    14    1
    14    14    15    2
    15    15    16    1
    16    16    17    2
    17    10    18    1
    18    18    19    1
    19    19    20    2
    20    19    21   am
    21    21    22    1
    22    18    23    1
    23    23    24    1
    24    23    25    1
    25     6    26    1
    26    26    27    2
    27    27     3    1
    28    17    12    1
@<TRIPOS>SUBSTRUCTURE
     1 RES1        1 GROUP             0 ****  ****    0  
@<TRIPOS>MOLECULE
ligand_5
    27    28     1     0     0
SMALL
NO_CHARGES
****
Generated from the CSD

@<TRIPOS>ATOM
     1 C1     -16.0407  19.3921 -26.3193   C.3       1 RES1   0.0000
     2 O2     -15.8142  19.9491 -25.0189   O.3       1 RES1   0.0000
     3 C3     -15.6587  21.3021 -24.8580   C.2       1 RES1   0.0000
     4 C4     -15.7184  22.1631 -25.9589   C.2       1 RES1   0.0000
     5 C5     -15.5560  23.5381 -25.7879   C.2       1 RES1   0.0000
     6 C6     -15.3348  24.0430 -24.5131   C.2       1 RES1   0.0000
     7 S7     -15.1282  25.7659 -24.2432   S.o2      1 RES1   0.0000
     8 O8     -14.2945  25.9465 -23.0984   O.2       1 RES1   0.0000
     9 O9     -14.6759  26.3385 -25.4782   O.2       1 RES1   0.0000
    10 N10    -16.6164  26.3788 -23.9499   N.pl3     1 RES1   0.0000
    11 C11    -17.3470  27.3038 -24.8632   C.3       1 RES1   0.0000
    12 C12    -18.5530  26.7227 -25.5860   C.2       1 RES1   0.0000
    13 C13    -18.4025  25.5942 -26.4004   C.2       1 RES1   0.0000
    14 C14    -19.5120  25.0507 -27.0573   C.2       1 RES1   0.0000
    15 C15    -20.7641  25.6518 -26.9227   C.2       1 RES1   0.0000
    16 N16    -20.9206  26.7697 -26.1210   N.2       1 RES1   0.0000
    17 C17    -19.8183  27.3099 -25.4702   C.2       1 RES1   0.0000
    18 C18    -17.2471  26.1039 -22.6336   C.3       1 RES1   0.0000
    19 C19    -17.3031  27.3636 -21.7963   C.2       1 RES1   0.0000
    20 O20    -18.1066  28.2381 -22.0663   O.2       1 RES1   0.0000
    21 N21    -16.4588  27.4688 -20.7779   N.am      1 RES1   0.0000
    22 O22    -16.3860  28.6624 -20.0511   O.3       1 RES1   0.0000
    23 C23    -18.6540  25.4931 -22.7421   C.3       1 RES1   0.0000
    24 C24    -18.6941  24.2253 -23.5983   C.3       1 RES1   0.0000
    25 C25    -19.2515  25.1755 -21.3655   C.3       1 RES1   0.0000
    26 C26    -15.2711  23.1809 -23.4222   C.2       1 RES1   0.0000
    27 C27    -15.4296  21.8100 -23.5911   C.2       1 RES1   0.0000
@<TRIPOS>BOND
     1     1     2    1
     2     2     3    1
     3     3     4    2
     4     4     5    1
     5     5     6    2
     6     6     7    1
     7     7     8    2
     8     7     9    2
     9     7    10    1
    10    10    11    1
    11    11    12    1
    12    12    13    2
    13    13    14    1
    14    14    15    2
    15    15    16    1
    16    16    17    2
    17    10    18    1
    18    18    19    1
    19    19    20    2
    20    19    21   am
    21    21    22    1
    22    18    23    1
    23    23    24    1
    24    23    25    1
    25     6    26    1
    26    26    27    2
    27    27     3    1
    28    17    12    1
@<TRIPOS>SUBSTRUCTURE
     1 RES1        1 GROUP             0 ****  ****    0  
@<TRIPOS>MOLECULE
ligand_6
    27    28     1     0     0
SMALL
NO_CHARGES
****
Generated from the CSD

@<TRIPOS>ATOM
     1 C1     -16.0327  19.3913 -26.3204   C.3       1 RES1   0.0000
     2 O2     -15.8152  19.9492 -25.0188   O.3       1 RES1   0.0000
     3 C3     -15.6593  21.3021 -24.8579   C.2       1 RES1   0.0000
     4 C4     -15.7099  22.1623 -25.9600   C.2       1 RES1   0.0000
     5 C5     -15.5471  23.5372 -25.7891   C.2       1 RES1   0.0000
     6 C6     -15.3348  24.0430 -24.5131   C.2       1 RES1   0.0000
     7 S7     -15.1282  25.7659 -24.2432   S.o2      1 RES1   0.0000
     8 O8     -15.8558  26.4707 -25.2493   O.2       1 RES1   0.0000
     9 O9     -15.4805  26.0276 -22.8774   O.2       1 RES1   0.0000
    10 N10    -13.5291  26.0778 -24.3916   N.pl3     1 RES1   0.0000
    11 C11    -12.6404  26.4996 -23.2709   C.3       1 RES1   0.0000
    12 C12    -11.6284  25.4704 -22.7905   C.2       1 RES1   0.0000
    13 C13    -10.2624  25.7761 -22.8007   C.2       1 RES1   0.0000
    14 C14     -9.3301  24.8356 -22.3486   C.2       1 RES1   0.0000
    15 C15     -9.7609  23.5816 -21.9141   C.2       1 RES1   0.0000
    16 N16    -11.1101  23.2708 -21.9035   N.2       1 RES1   0.0000
    17 C17    -12.0353  24.2043 -22.3539   C.2       1 RES1   0.0000
    18 C18    -12.9295  26.0638 -25.7503   C.3       1 RES1   0.0000
    19 C19    -12.5468  27.4643 -26.1781   C.2       1 RES1   0.0000
    20 O20    -11.5708  28.0043 -25.6892   O.2       1 RES1   0.0000
    21 N21    -13.3036  28.0624 -27.0897   N.am      1 RES1   0.0000
    22 O22    -13.0657  29.3995 -27.4271   O.3       1 RES1   0.0000
    23 C23    -11.7105  25.1349 -25.8743   C.3       1 RES1   0.0000
    24 C24    -12.0016  23.6992 -25.4313   C.3       1 RES1   0.0000
    25 C25    -11.1525  25.1048 -27.3028   C.3       1 RES1   0.0000
    26 C26    -15.2803  23.1818 -23.4210   C.2       1 RES1   0.0000
    27 C27    -15.4390  21.8109 -23.5899   C.2       1 RES1   0.0000
@<TRIPOS>BOND
     1     1     2    1
     2     2     3    1
     3     3     4    2
     4     4     5    1
     5     5     6    2
     6     6     7    1
     7     7     8    2
     8     7     9    2
     9     7    10    1
    10    10    11    1
    11    11    12    1
    12    12    13    2
    13    13    14    1
    14    14    15    2
    15    15    16    1
    16    16    17    2
    17    10    18    1
    18    18    19    1
    19    19    20    2
    20    19    21   am
    21    21    22    1
    22    18    23    1
    23    23    24    1
    24    23    25    1
    25     6    26    1
    26    26    27    2
    27    27     3    1
    28    17    12    1
@<TRIPOS>SUBSTRUCTURE
     1 RES1        1 GROUP             0 ****  ****    0  
@<TRIPOS>MOLECULE
ligand_7
    27    28     1     0     0
SMALL
NO_CHARGES
****
Generated from the CSD

@<TRIPOS>ATOM
     1 C1     -16.0386  19.3919 -26.3196   C.3       1 RES1   0.0000
     2 O2     -15.8144  19.9492 -25.0189   O.3       1 RES1   0.0000
     3 C3     -15.6589  21.3021 -24.8579   C.2       1 RES1   0.0000
     4 C4     -15.7161  22.1629 -25.9592   C.2       1 RES1   0.0000
     5 C5     -15.5536  23.5379 -25.7882   C.2       1 RES1   0.0000
     6 C6     -15.3348  24.0430 -24.5131   C.2       1 RES1   0.0000
     7 S7     -15.1282  25.7659 -24.2432   S.o2      1 RES1   0.0000
     8 O8     -14.2945  25.9465 -23.0984   O.2       1 RES1   0.0000
     9 O9     -14.6759  26.3385 -25.4782   O.2       1 RES1   0.0000
    10 N10    -16.6164  26.3788 -23.9499   N.pl3     1 RES1   0.0000
    11 C11    -17.3463  27.3053 -24.8624   C.3       1 RES1   0.0000
    12 C12    -18.5488  26.7240 -25.5906   C.2       1 RES1   0.0000
    13 C13    -19.8079  27.3181 -25.4451   C.2       1 RES1   0.0000
    14 C14    -20.9136  26.7925 -26.1227   C.2       1 RES1   0.0000
    15 C15    -20.7658  25.6580 -26.9216   C.2       1 RES1   0.0000
    16 N16    -19.5242  25.0632 -27.0685   N.2       1 RES1   0.0000
    17 C17    -18.4270  25.5845 -26.3943   C.2       1 RES1   0.0000
    18 C18    -17.2479  26.1023 -22.6343   C.3       1 RES1   0.0000
    19 C19    -17.3084  27.3618 -21.7972   C.2       1 RES1   0.0000
    20 O20    -18.1150  28.2335 -22.0674   O.2       1 RES1   0.0000
    21 N21    -16.4645  27.4702 -20.7788   N.am      1 RES1   0.0000
    22 O22    -16.3960  28.6642 -20.0522   O.3       1 RES1   0.0000
    23 C23    -18.6530  25.4876 -22.7445   C.3       1 RES1   0.0000
    24 C24    -18.6886  24.2197 -23.6008   C.3       1 RES1   0.0000
    25 C25    -19.2512  25.1682 -21.3685   C.3       1 RES1   0.0000
    26 C26    -15.2736  23.1812 -23.4218   C.2       1 RES1   0.0000
    27 C27    -15.4321  21.8102 -23.5908   C.2       1 RES1   0.0000
@<TRIPOS>BOND
     1     1     2    1
     2     2     3    1
     3     3     4    2
     4     4     5    1
     5     5     6    2
     6     6     7    1
     7     7     8    2
     8     7     9    2
     9     7    10    1
    10    10    11    1
    11    11    12    1
    12    12    13    2
    13    13    14    1
    14    14    15    2
    15    15    16    1
    16    16    17    2
    17    10    18    1
    18    18    19    1
    19    19    20    2
    20    19    21   am
    21    21    22    1
    22    18    23    1
    23    23    24    1
    24    23    25    1
    25     6    26    1
    26    26    27    2
    27    27     3    1
    28    17    12    1
@<TRIPOS>SUBSTRUCTURE
     1 RES1        1 GROUP             0 ****  ****    0  
@<TRIPOS>MOLECULE
ligand_8
    27    28     1     0     0
SMALL
NO_CHARGES
****
Generated from the CSD

@<TRIPOS>ATOM
     1 C1     -16.0499  19.3930 -26.3180   C.3       1 RES1   0.0000
     2 O2     -15.8130  19.9490 -25.0190   O.3       1 RES1   0.0000
     3 C3     -15.6580  21.3020 -24.8580   C.2       1 RES1   0.0000
     4 C4     -15.7282  22.1641 -25.9575   C.2       1 RES1   0.0000
     5 C5     -15.5661  23.5391 -25.7865   C.2       1 RES1   0.0000
     6 C6     -15.3348  24.0430 -24.5131   C.2       1 RES1   0.0000
     7 S7     -15.1282  25.7659 -24.2432   S.o2      1 RES1   0.0000
     8 O8     -15.8558  26.4707 -25.2493   O.2       1 RES1   0.0000
     9 O9     -15.4805  26.0276 -22.8774   O.2       1 RES1   0.0000
    10 N10    -13.5291  26.0778 -24.3916   N.pl3     1 RES1   0.0000
    11 C11    -12.8839  26.6321 -25.6164   C.3       1 RES1   0.0000
    12 C12    -13.2058  28.0811 -25.9496   C.2       1 RES1   0.0000
    13 C13    -13.8002  28.4006 -27.1760   C.2       1 RES1   0.0000
    14 C14    -14.1078  29.7313 -27.4804   C.2       1 RES1   0.0000
    15 C15    -13.7954  30.7434 -26.5721   C.2       1 RES1   0.0000
    16 N16    -13.2050  30.4357 -25.3582   N.2       1 RES1   0.0000
    17 C17    -12.8983  29.1145 -25.0569   C.2       1 RES1   0.0000
    18 C18    -12.6246  25.6735 -23.2852   C.3       1 RES1   0.0000
    19 C19    -11.5266  24.7671 -23.7989   C.2       1 RES1   0.0000
    20 O20    -10.5859  25.2386 -24.4122   O.2       1 RES1   0.0000
    21 N21    -11.6316  23.4668 -23.5552   N.am      1 RES1   0.0000
    22 O22    -10.7096  22.5746 -24.1137   O.3       1 RES1   0.0000
    23 C23    -12.0032  26.8626 -22.5340   C.3       1 RES1   0.0000
    24 C24    -13.0478  27.8203 -21.9563   C.3       1 RES1   0.0000
    25 C25    -11.0750  26.4064 -21.4012   C.3       1 RES1   0.0000
    26 C26    -15.2607  23.1799 -23.4236   C.2       1 RES1   0.0000
    27 C27    -15.4188  21.8089 -23.5926   C.2       1 RES1   0.0000
@<TRIPOS>BOND
     1     1     2    1
     2     2     3    1
     3     3     4    2
     4     4     5    1
     5     5     6    2
     6     6     7    1
     7     7     8    2
     8     7     9    2
     9     7    10    1
    10    10    11    1
    11    11    12    1
    12    12    13    2
    13    13    14    1
    14    14    15    2
    15    15    16    1
    16    16    17    2
    17    10    18    1
    18    18    19    1
    19    19    20    2
    20    19    21   am
    21    21    22    1
    22    18    23    1
    23    23    24    1
    24    23    25    1
    25     6    26    1
    26    26    27    2
    27    27     3    1
    28    17    12    1
@<TRIPOS>SUBSTRUCTURE
     1 RES1        1 GROUP             0 ****  ****    0  
@<TRIPOS>MOLECULE
ligand_9
    27    28     1     0     0
SMALL
NO_CHARGES
****
Generated from the CSD

@<TRIPOS>ATOM
     1 C1     -16.0499  19.3930 -26.3180   C.3       1 RES1   0.0000
     2 O2     -15.8130  19.9490 -25.0190   O.3       1 RES1   0.0000
     3 C3     -15.6580  21.3020 -24.8580   C.2       1 RES1   0.0000
     4 C4     -15.7282  22.1641 -25.9575   C.2       1 RES1   0.0000
     5 C5     -15.5661  23.5391 -25.7865   C.2       1 RES1   0.0000
     6 C6     -15.3348  24.0430 -24.5131   C.2       1 RES1   0.0000
     7 S7     -15.1282  25.7659 -24.2432   S.o2      1 RES1   0.0000
     8 O8     -15.8558  26.4707 -25.2493   O.2       1 RES1   0.0000
     9 O9     -15.4805  26.0276 -22.8774   O.2       1 RES1   0.0000
    10 N10    -13.5291  26.0778 -24.3916   N.pl3     1 RES1   0.0000
    11 C11    -12.8839  26.6321 -25.6164   C.3       1 RES1   0.0000
    12 C12    -13.2239  28.0739 -25.9624   C.2       1 RES1   0.0000
    13 C13    -12.9385  29.0971 -25.0508   C.2       1 RES1   0.0000
    14 C14    -13.2396  30.4256 -25.3711   C.2       1 RES1   0.0000
    15 C15    -13.8512  30.7268 -26.5886   C.2       1 RES1   0.0000
    16 N16    -14.1390  29.7200 -27.4944   N.2       1 RES1   0.0000
    17 C17    -13.8412  28.4009 -27.1753   C.2       1 RES1   0.0000
    18 C18    -12.6246  25.6735 -23.2852   C.3       1 RES1   0.0000
    19 C19    -11.5187  24.7782 -23.8013   C.2       1 RES1   0.0000
    20 O20    -10.5790  25.2603 -24.4079   O.2       1 RES1   0.0000
    21 N21    -11.6158  23.4755 -23.5671   N.am      1 RES1   0.0000
    22 O22    -10.6858  22.5934 -24.1286   O.3       1 RES1   0.0000
    23 C23    -12.0138  26.8625 -22.5253   C.3       1 RES1   0.0000
    24 C24    -13.0670  27.8042 -21.9367   C.3       1 RES1   0.0000
    25 C25    -11.0780  26.4065 -21.3988   C.3       1 RES1   0.0000
    26 C26    -15.2607  23.1799 -23.4236   C.2       1 RES1   0.0000
    27 C27    -15.4188  21.8089 -23.5926   C.2       1 RES1   0.0000
@<TRIPOS>BOND
     1     1     2    1
     2     2     3    1
     3     3     4    2
     4     4     5    1
     5     5     6    2
     6     6     7    1
     7     7     8    2
     8     7     9    2
     9     7    10    1
    10    10    11    1
    11    11    12    1
    12    12    13    2
    13    13    14    1
    14    14    15    2
    15    15    16    1
    16    16    17    2
    17    10    18    1
    18    18    19    1
    19    19    20    2
    20    19    21   am
    21    21    22    1
    22    18    23    1
    23    23    24    1
    24    23    25    1
    25     6    26    1
    26    26    27    2
    27    27     3    1
    28    17    12    1
@<TRIPOS>SUBSTRUCTURE
     1 RES1        1 GROUP             0 ****  ****    0  
@<TRIPOS>MOLECULE
ligand_10
    27    28     1     0     0
SMALL
NO_CHARGES
****
Generated from the CSD

@<TRIPOS>ATOM
     1 C1     -16.0499  19.3930 -26.3180   C.3       1 RES1   0.0000
     2 O2     -15.8130  19.9490 -25.0190   O.3       1 RES1   0.0000
     3 C3     -15.6580  21.3020 -24.8580   C.2       1 RES1   0.0000
     4 C4     -15.7282  22.1641 -25.9575   C.2       1 RES1   0.0000
     5 C5     -15.5661  23.5391 -25.7865   C.2       1 RES1   0.0000
     6 C6     -15.3348  24.0430 -24.5131   C.2       1 RES1   0.0000
     7 S7     -15.1282  25.7659 -24.2432   S.o2      1 RES1   0.0000
     8 O8     -14.2945  25.9465 -23.0984   O.2       1 RES1   0.0000
     9 O9     -14.6759  26.3385 -25.4782   O.2       1 RES1   0.0000
    10 N10    -16.6164  26.3788 -23.9499   N.pl3     1 RES1   0.0000
    11 C11    -17.1601  26.6711 -22.5925   C.3       1 RES1   0.0000
    12 C12    -16.5247  27.8368 -21.8496   C.2       1 RES1   0.0000
    13 C13    -15.9173  27.6252 -20.6064   C.2       1 RES1   0.0000
    14 C14    -15.3220  28.6934 -19.9261   C.2       1 RES1   0.0000
    15 C15    -15.3594  29.9758 -20.4749   C.2       1 RES1   0.0000
    16 N16    -15.9605  30.1935 -21.7030   N.2       1 RES1   0.0000
    17 C17    -16.5528  29.1329 -22.3773   C.2       1 RES1   0.0000
    18 C18    -17.5493  26.5473 -25.0933   C.3       1 RES1   0.0000
    19 C19    -18.8446  25.8074 -24.8374   C.2       1 RES1   0.0000
    20 O20    -19.6726  26.2757 -24.0769   O.2       1 RES1   0.0000
    21 N21    -19.0339  24.6537 -25.4656   N.am      1 RES1   0.0000
    22 O22    -20.1566  23.8728 -25.1692   O.3       1 RES1   0.0000
    23 C23    -17.8517  28.0172 -25.4279   C.3       1 RES1   0.0000
    24 C24    -16.5941  28.8363 -25.7272   C.3       1 RES1   0.0000
    25 C25    -18.8186  28.1512 -26.6112   C.3       1 RES1   0.0000
    26 C26    -15.2607  23.1799 -23.4236   C.2       1 RES1   0.0000
    27 C27    -15.4188  21.8089 -23.5926   C.2       1 RES1   0.0000
@<TRIPOS>BOND
     1     1     2    1
     2     2     3    1
     3     3     4    2
     4     4     5    1
     5     5     6    2
     6     6     7    1
     7     7     8    2
     8     7     9    2
     9     7    10    1
    10    10    11    1
    11    11    12    1
    12    12    13    2
    13    13    14    1
    14    14    15    2
    15    15    16    1
    16    16    17    2
    17    10    18    1
    18    18    19    1
    19    19    20    2
    20    19    21   am
    21    21    22    1
    22    18    23    1
    23    23    24    1
    24    23    25    1
    25     6    26    1
    26    26    27    2
    27    27     3    1
    28    17    12    1
@<TRIPOS>SUBSTRUCTURE
     1 RES1        1 GROUP             0 ****  ****    0  
@<TRIPOS>MOLECULE
ligand_11
    27    28     1     0     0
SMALL
NO_CHARGES
****
Generated from the CSD

@<TRIPOS>ATOM
     1 C1     -16.0499  19.3930 -26.3180   C.3       1 RES1   0.0000
     2 O2     -15.8130  19.9490 -25.0190   O.3       1 RES1   0.0000
     3 C3     -15.6580  21.3020 -24.8580   C.2       1 RES1   0.0000
     4 C4     -15.7282  22.1641 -25.9575   C.2       1 RES1   0.0000
     5 C5     -15.5661  23.5391 -25.7865   C.2       1 RES1   0.0000
     6 C6     -15.3348  24.0430 -24.5131   C.2       1 RES1   0.0000
     7 S7     -15.1282  25.7659 -24.2432   S.o2      1 RES1   0.0000
     8 O8     -14.2945  25.9465 -23.0984   O.2       1 RES1   0.0000
     9 O9     -14.6759  26.3385 -25.4782   O.2       1 RES1   0.0000
    10 N10    -16.6164  26.3788 -23.9499   N.pl3     1 RES1   0.0000
    11 C11    -17.1601  26.6711 -22.5925   C.3       1 RES1   0.0000
    12 C12    -16.5092  27.8221 -21.8402   C.2       1 RES1   0.0000
    13 C13    -16.5176  29.1095 -22.3899   C.2       1 RES1   0.0000
    14 C14    -15.9297  30.1722 -21.6949   C.2       1 RES1   0.0000
    15 C15    -15.3096  29.9425 -20.4662   C.2       1 RES1   0.0000
    16 N16    -15.2949  28.6715 -19.9173   N.2       1 RES1   0.0000
    17 C17    -15.8774  27.6163 -20.6083   C.2       1 RES1   0.0000
    18 C18    -17.5493  26.5473 -25.0933   C.3       1 RES1   0.0000
    19 C19    -18.8499  25.8187 -24.8315   C.2       1 RES1   0.0000
    20 O20    -19.6742  26.2986 -24.0742   O.2       1 RES1   0.0000
    21 N21    -19.0477  24.6618 -25.4510   N.am      1 RES1   0.0000
    22 O22    -20.1759  23.8912 -25.1485   O.3       1 RES1   0.0000
    23 C23    -17.8411  28.0174 -25.4365   C.3       1 RES1   0.0000
    24 C24    -16.5785  28.8228 -25.7514   C.3       1 RES1   0.0000
    25 C25    -18.8156  28.1513 -26.6135   C.3       1 RES1   0.0000
    26 C26    -15.2607  23.1799 -23.4236   C.2       1 RES1   0.0000
    27 C27    -15.4188  21.8089 -23.5926   C.2       1 RES1   0.0000
@<TRIPOS>BOND
     1     1     2    1
     2     2     3    1
     3     3     4    2
     4     4     5    1
     5     5     6    2
     6     6     7    1
     7     7     8    2
     8     7     9    2
     9     7    10    1
    10    10    11    1
    11    11    12    1
    12    12    13    2
    13    13    14    1
    14    14    15    2
    15    15    16    1
    16    16    17    2
    17    10    18    1
    18    18    19    1
    19    19    20    2
    20    19    21   am
    21    21    22    1
    22    18    23    1
    23    23    24    1
    24    23    25    1
    25     6    26    1
    26    26    27    2
    27    27     3    1
    28    17    12    1
@<TRIPOS>SUBSTRUCTURE
     1 RES1        1 GROUP             0 ****  ****    0  
@<TRIPOS>MOLECULE
ligand_12
    27    28     1     0     0
SMALL
NO_CHARGES
****
Generated from the CSD

@<TRIPOS>ATOM
     1 C1     -15.9872  19.3866 -26.3253   C.3       1 RES1   0.0000
     2 O2     -15.8209  19.9499 -25.0185   O.3       1 RES1   0.0000
     3 C3     -15.6629  21.3026 -24.8578   C.2       1 RES1   0.0000
     4 C4     -15.6612  22.1573 -25.9653   C.2       1 RES1   0.0000
     5 C5     -15.4965  23.5320 -25.7944   C.2       1 RES1   0.0000
     6 C6     -15.3348  24.0430 -24.5131   C.2       1 RES1   0.0000
     7 S7     -15.1282  25.7659 -24.2432   S.o2      1 RES1   0.0000
     8 O8     -14.2945  25.9465 -23.0984   O.2       1 RES1   0.0000
     9 O9     -14.6759  26.3385 -25.4782   O.2       1 RES1   0.0000
    10 N10    -16.6164  26.3788 -23.9499   N.pl3     1 RES1   0.0000
    11 C11    -17.3460  27.3058 -24.8620   C.3       1 RES1   0.0000
    12 C12    -18.0692  26.6638 -26.0364   C.2       1 RES1   0.0000
    13 C13    -17.3409  25.9757 -27.0138   C.2       1 RES1   0.0000
    14 C14    -18.0046  25.3745 -28.0890   C.2       1 RES1   0.0000
    15 C15    -19.3910  25.4857 -28.2015   C.2       1 RES1   0.0000
    16 N16    -20.1181  26.1668 -27.2402   N.2       1 RES1   0.0000
    17 C17    -19.4585  26.7650 -26.1736   C.2       1 RES1   0.0000
    18 C18    -17.2483  26.1017 -22.6346   C.3       1 RES1   0.0000
    19 C19    -17.2587  27.3477 -21.7755   C.2       1 RES1   0.0000
    20 O20    -18.0206  28.2610 -22.0380   O.2       1 RES1   0.0000
    21 N21    -16.4217  27.3984 -20.7469   N.am      1 RES1   0.0000
    22 O22    -16.3052  28.5749 -19.9982   O.3       1 RES1   0.0000
    23 C23    -18.6748  25.5385 -22.7449   C.3       1 RES1   0.0000
    24 C24    -18.7612  24.2892 -23.6246   C.3       1 RES1   0.0000
    25 C25    -19.2734  25.2140 -21.3703   C.3       1 RES1   0.0000
    26 C26    -15.3321  23.1872 -23.4154   C.2       1 RES1   0.0000
    27 C27    -15.4928  21.8165 -23.5841   C.2       1 RES1   0.0000
@<TRIPOS>BOND
     1     1     2    1
     2     2     3    1
     3     3     4    2
     4     4     5    1
     5     5     6    2
     6     6     7    1
     7     7     8    2
     8     7     9    2
     9     7    10    1
    10    10    11    1
    11    11    12    1
    12    12    13    2
    13    13    14    1
    14    14    15    2
    15    15    16    1
    16    16    17    2
    17    10    18    1
    18    18    19    1
    19    19    20    2
    20    19    21   am
    21    21    22    1
    22    18    23    1
    23    23    24    1
    24    23    25    1
    25     6    26    1
    26    26    27    2
    27    27     3    1
    28    17    12    1
@<TRIPOS>SUBSTRUCTURE
     1 RES1        1 GROUP             0 ****  ****    0  
@<TRIPOS>MOLECULE
ligand_13
    27    28     1     0     0
SMALL
NO_CHARGES
****
Generated from the CSD

@<TRIPOS>ATOM
     1 C1     -15.9673  19.3847 -26.3267   C.3       1 RES1   0.0000
     2 O2     -15.8051  19.9482 -25.0195   O.3       1 RES1   0.0000
     3 C3     -15.6531  21.3015 -24.8582   C.2       1 RES1   0.0000
     4 C4     -15.4935  21.8546 -23.5832   C.2       1 RES1   0.0000
     5 C5     -15.3428  23.2326 -23.4265   C.2       1 RES1   0.0000
     6 C6     -15.3524  24.0494 -24.5498   C.2       1 RES1   0.0000
     7 S7     -15.1623  25.7894 -24.4077   S.o2      1 RES1   0.0000
     8 O8     -15.9041  26.4115 -25.4570   O.2       1 RES1   0.0000
     9 O9     -15.5082  26.1464 -23.0620   O.2       1 RES1   0.0000
    10 N10    -13.5676  26.1057 -24.5904   N.pl3     1 RES1   0.0000
    11 C11    -12.6742  26.6095 -23.5080   C.3       1 RES1   0.0000
    12 C12    -12.1438  25.5682 -22.5339   C.2       1 RES1   0.0000
    13 C13    -13.0329  24.8527 -21.7235   C.2       1 RES1   0.0000
    14 C14    -12.5488  23.8863 -20.8349   C.2       1 RES1   0.0000
    15 C15    -11.1761  23.6563 -20.7365   C.2       1 RES1   0.0000
    16 N16    -10.2901  24.3618 -21.5328   N.2       1 RES1   0.0000
    17 C17    -10.7711  25.3224 -22.4139   C.2       1 RES1   0.0000
    18 C18    -12.9789  26.0071 -25.9504   C.3       1 RES1   0.0000
    19 C19    -12.6679  27.3837 -26.4974   C.2       1 RES1   0.0000
    20 O20    -11.7288  28.0177 -26.0508   O.2       1 RES1   0.0000
    21 N21    -13.4449  27.8567 -27.4637   N.am      1 RES1   0.0000
    22 O22    -13.2762  29.1700 -27.9161   O.3       1 RES1   0.0000
    23 C23    -11.7173  25.1302 -26.0115   C.3       1 RES1   0.0000
    24 C24    -11.9351  23.7242 -25.4477   C.3       1 RES1   0.0000
    25 C25    -11.1699  25.0078 -27.4392   C.3       1 RES1   0.0000
    26 C26    -15.5168  23.4939 -25.8154   C.2       1 RES1   0.0000
    27 C27    -15.6704  22.1211 -25.9732   C.2       1 RES1   0.0000
@<TRIPOS>BOND
     1     1     2    1
     2     2     3    1
     3     3     4    2
     4     4     5    1
     5     5     6    2
     6     6     7    1
     7     7     8    2
     8     7     9    2
     9     7    10    1
    10    10    11    1
    11    11    12    1
    12    12    13    2
    13    13    14    1
    14    14    15    2
    15    15    16    1
    16    16    17    2
    17    10    18    1
    18    18    19    1
    19    19    20    2
    20    19    21   am
    21    21    22    1
    22    18    23    1
    23    23    24    1
    24    23    25    1
    25     6    26    1
    26    26    27    2
    27    27     3    1
    28    17    12    1
@<TRIPOS>SUBSTRUCTURE
     1 RES1        1 GROUP             0 ****  ****    0  
@<TRIPOS>MOLECULE
ligand_14
    27    28     1     0     0
SMALL
NO_CHARGES
****
Generated from the CSD

@<TRIPOS>ATOM
     1 C1     -15.9787  19.3857 -26.3260   C.3       1 RES1   0.0000
     2 O2     -15.8219  19.9500 -25.0185   O.3       1 RES1   0.0000
     3 C3     -15.6636  21.3026 -24.8578   C.2       1 RES1   0.0000
     4 C4     -15.6521  22.1563 -25.9660   C.2       1 RES1   0.0000
     5 C5     -15.4871  23.5310 -25.7952   C.2       1 RES1   0.0000
     6 C6     -15.3348  24.0430 -24.5131   C.2       1 RES1   0.0000
     7 S7     -15.1282  25.7659 -24.2432   S.o2      1 RES1   0.0000
     8 O8     -14.2945  25.9465 -23.0984   O.2       1 RES1   0.0000
     9 O9     -14.6759  26.3385 -25.4782   O.2       1 RES1   0.0000
    10 N10    -16.6164  26.3788 -23.9499   N.pl3     1 RES1   0.0000
    11 C11    -17.3393  27.3185 -24.8544   C.3       1 RES1   0.0000
    12 C12    -18.0554  26.6928 -26.0418   C.2       1 RES1   0.0000
    13 C13    -19.4471  26.7954 -26.1515   C.2       1 RES1   0.0000
    14 C14    -20.1074  26.2307 -27.2485   C.2       1 RES1   0.0000
    15 C15    -19.3803  25.5402 -28.2188   C.2       1 RES1   0.0000
    16 N16    -18.0038  25.4322 -28.1159   N.2       1 RES1   0.0000
    17 C17    -17.3488  25.9916 -27.0258   C.2       1 RES1   0.0000
    18 C18    -17.2554  26.0874 -22.6412   C.3       1 RES1   0.0000
    19 C19    -17.2667  27.3228 -21.7670   C.2       1 RES1   0.0000
    20 O20    -18.0246  28.2415 -22.0219   O.2       1 RES1   0.0000
    21 N21    -16.4346  27.3585 -20.7337   N.am      1 RES1   0.0000
    22 O22    -16.3185  28.5254 -19.9701   O.3       1 RES1   0.0000
    23 C23    -18.6830  25.5297 -22.7652   C.3       1 RES1   0.0000
    24 C24    -18.7686  24.2918 -23.6611   C.3       1 RES1   0.0000
    25 C25    -19.2890  25.1895 -21.3978   C.3       1 RES1   0.0000
    26 C26    -15.3417  23.1882 -23.4146   C.2       1 RES1   0.0000
    27 C27    -15.5028  21.8175 -23.5833   C.2       1 RES1   0.0000
@<TRIPOS>BOND
     1     1     2    1
     2     2     3    1
     3     3     4    2
     4     4     5    1
     5     5     6    2
     6     6     7    1
     7     7     8    2
     8     7     9    2
     9     7    10    1
    10    10    11    1
    11    11    12    1
    12    12    13    2
    13    13    14    1
    14    14    15    2
    15    15    16    1
    16    16    17    2
    17    10    18    1
    18    18    19    1
    19    19    20    2
    20    19    21   am
    21    21    22    1
    22    18    23    1
    23    23    24    1
    24    23    25    1
    25     6    26    1
    26    26    27    2
    27    27     3    1
    28    17    12    1
@<TRIPOS>SUBSTRUCTURE
     1 RES1        1 GROUP             0 ****  ****    0  
@<TRIPOS>MOLECULE
ligand_15
    27    28     1     0     0
SMALL
NO_CHARGES
****
Generated from the CSD

@<TRIPOS>ATOM
     1 C1     -16.0499  19.3930 -26.3180   C.3       1 RES1   0.0000
     2 O2     -15.8130  19.9490 -25.0190   O.3       1 RES1   0.0000
     3 C3     -15.6580  21.3020 -24.8580   C.2       1 RES1   0.0000
     4 C4     -15.7282  22.1641 -25.9575   C.2       1 RES1   0.0000
     5 C5     -15.5661  23.5391 -25.7865   C.2       1 RES1   0.0000
     6 C6     -15.3348  24.0430 -24.5131   C.2       1 RES1   0.0000
     7 S7     -15.1282  25.7659 -24.2432   S.o2      1 RES1   0.0000
     8 O8     -15.8558  26.4707 -25.2493   O.2       1 RES1   0.0000
     9 O9     -15.4805  26.0276 -22.8774   O.2       1 RES1   0.0000
    10 N10    -13.5291  26.0778 -24.3916   N.pl3     1 RES1   0.0000
    11 C11    -12.6567  26.5744 -23.2889   C.3       1 RES1   0.0000
    12 C12    -12.7020  28.0704 -23.0166   C.2       1 RES1   0.0000
    13 C13    -11.5154  28.8125 -22.9932   C.2       1 RES1   0.0000
    14 C14    -11.5550  30.1907 -22.7543   C.2       1 RES1   0.0000
    15 C15    -12.7763  30.8203 -22.5110   C.2       1 RES1   0.0000
    16 N16    -13.9540  30.0926 -22.5299   N.2       1 RES1   0.0000
    17 C17    -13.9140  28.7239 -22.7656   C.2       1 RES1   0.0000
    18 C18    -12.9126  25.9826 -25.7395   C.3       1 RES1   0.0000
    19 C19    -12.5178  27.3543 -26.2428   C.2       1 RES1   0.0000
    20 O20    -11.5543  27.9242 -25.7628   O.2       1 RES1   0.0000
    21 N21    -13.2500  27.8944 -27.2089   N.am      1 RES1   0.0000
    22 O22    -13.0023  29.2083 -27.6218   O.3       1 RES1   0.0000
    23 C23    -11.6967  25.0429 -25.7939   C.3       1 RES1   0.0000
    24 C24    -11.9953  23.6423 -25.2542   C.3       1 RES1   0.0000
    25 C25    -11.1332  24.9123 -27.2146   C.3       1 RES1   0.0000
    26 C26    -15.2607  23.1799 -23.4236   C.2       1 RES1   0.0000
    27 C27    -15.4188  21.8089 -23.5926   C.2       1 RES1   0.0000
@<TRIPOS>BOND
     1     1     2    1
     2     2     3    1
     3     3     4    2
     4     4     5    1
     5     5     6    2
     6     6     7    1
     7     7     8    2
     8     7     9    2
     9     7    10    1
    10    10    11    1
    11    11    12    1
    12    12    13    2
    13    13    14    1
    14    14    15    2
    15    15    16    1
    16    16    17    2
    17    10    18    1
    18    18    19    1
    19    19    20    2
    20    19    21   am
    21    21    22    1
    22    18    23    1
    23    23    24    1
    24    23    25    1
    25     6    26    1
    26    26    27    2
    27    27     3    1
    28    17    12    1
@<TRIPOS>SUBSTRUCTURE
     1 RES1        1 GROUP             0 ****  ****    0  
@<TRIPOS>MOLECULE
ligand_16
    27    28     1     0     0
SMALL
NO_CHARGES
****
Generated from the CSD

@<TRIPOS>ATOM
     1 C1     -16.0499  19.3930 -26.3180   C.3       1 RES1   0.0000
     2 O2     -15.8130  19.9490 -25.0190   O.3       1 RES1   0.0000
     3 C3     -15.6580  21.3020 -24.8580   C.2       1 RES1   0.0000
     4 C4     -15.7282  22.1641 -25.9575   C.2       1 RES1   0.0000
     5 C5     -15.5661  23.5391 -25.7865   C.2       1 RES1   0.0000
     6 C6     -15.3348  24.0430 -24.5131   C.2       1 RES1   0.0000
     7 S7     -15.1282  25.7659 -24.2432   S.o2      1 RES1   0.0000
     8 O8     -14.2945  25.9465 -23.0984   O.2       1 RES1   0.0000
     9 O9     -14.6759  26.3385 -25.4782   O.2       1 RES1   0.0000
    10 N10    -16.6164  26.3788 -23.9499   N.pl3     1 RES1   0.0000
    11 C11    -17.3102  27.3721 -24.8191   C.3       1 RES1   0.0000
    12 C12    -16.9110  28.8277 -24.6291   C.2       1 RES1   0.0000
    13 C13    -17.8926  29.7952 -24.3846   C.2       1 RES1   0.0000
    14 C14    -17.5272  31.1330 -24.1980   C.2       1 RES1   0.0000
    15 C15    -16.1856  31.5069 -24.2842   C.2       1 RES1   0.0000
    16 N16    -15.2092  30.5562 -24.5282   N.2       1 RES1   0.0000
    17 C17    -15.5725  29.2282 -24.7150   C.2       1 RES1   0.0000
    18 C18    -17.2866  26.0265 -22.6721   C.3       1 RES1   0.0000
    19 C19    -17.3720  27.2348 -21.7646   C.2       1 RES1   0.0000
    20 O20    -18.1599  28.1292 -22.0152   O.2       1 RES1   0.0000
    21 N21    -16.5704  27.2741 -20.7077   N.am      1 RES1   0.0000
    22 O22    -16.5228  28.4222 -19.9091   O.3       1 RES1   0.0000
    23 C23    -18.6877  25.4216 -22.8597   C.3       1 RES1   0.0000
    24 C24    -18.7012  24.2197 -23.8071   C.3       1 RES1   0.0000
    25 C25    -19.3172  25.0024 -21.5251   C.3       1 RES1   0.0000
    26 C26    -15.2607  23.1799 -23.4236   C.2       1 RES1   0.0000
    27 C27    -15.4188  21.8089 -23.5926   C.2       1 RES1   0.0000
@<TRIPOS>BOND
     1     1     2    1
     2     2     3    1
     3     3     4    2
     4     4     5    1
     5     5     6    2
     6     6     7    1
     7     7     8    2
     8     7     9    2
     9     7    10    1
    10    10    11    1
    11    11    12    1
    12    12    13    2
    13    13    14    1
    14    14    15    2
    15    15    16    1
    16    16    17    2
    17    10    18    1
    18    18    19    1
    19    19    20    2
    20    19    21   am
    21    21    22    1
    22    18    23    1
    23    23    24    1
    24    23    25    1
    25     6    26    1
    26    26    27    2
    27    27     3    1
    28    17    12    1
@<TRIPOS>SUBSTRUCTURE
     1 RES1        1 GROUP             0 ****  ****    0  
@<TRIPOS>MOLECULE
ligand_17
    27    28     1     0     0
SMALL
NO_CHARGES
****
Generated from the CSD

@<TRIPOS>ATOM
     1 C1     -16.0499  19.3930 -26.3180   C.3       1 RES1   0.0000
     2 O2     -15.8130  19.9490 -25.0190   O.3       1 RES1   0.0000
     3 C3     -15.6580  21.3020 -24.8580   C.2       1 RES1   0.0000
     4 C4     -15.7282  22.1641 -25.9575   C.2       1 RES1   0.0000
     5 C5     -15.5661  23.5391 -25.7865   C.2       1 RES1   0.0000
     6 C6     -15.3348  24.0430 -24.5131   C.2       1 RES1   0.0000
     7 S7     -15.1282  25.7659 -24.2432   S.o2      1 RES1   0.0000
     8 O8     -15.8558  26.4707 -25.2493   O.2       1 RES1   0.0000
     9 O9     -15.4805  26.0276 -22.8774   O.2       1 RES1   0.0000
    10 N10    -13.5291  26.0778 -24.3916   N.pl3     1 RES1   0.0000
    11 C11    -12.6581  26.5809 -23.2908   C.3       1 RES1   0.0000
    12 C12    -12.6978  28.0795 -23.0325   C.2       1 RES1   0.0000
    13 C13    -13.9250  28.7208 -22.8271   C.2       1 RES1   0.0000
    14 C14    -13.9637  30.0972 -22.5780   C.2       1 RES1   0.0000
    15 C15    -12.7798  30.8356 -22.5628   C.2       1 RES1   0.0000
    16 N16    -11.5623  30.2089 -22.7676   N.2       1 RES1   0.0000
    17 C17    -11.5245  28.8425 -23.0165   C.2       1 RES1   0.0000
    18 C18    -12.9111  25.9755 -25.7383   C.3       1 RES1   0.0000
    19 C19    -12.5166  27.3446 -26.2487   C.2       1 RES1   0.0000
    20 O20    -11.5526  27.9168 -25.7725   O.2       1 RES1   0.0000
    21 N21    -13.2496  27.8801 -27.2168   N.am      1 RES1   0.0000
    22 O22    -13.0021  29.1918 -27.6365   O.3       1 RES1   0.0000
    23 C23    -11.6946  25.0363 -25.7862   C.3       1 RES1   0.0000
    24 C24    -11.9929  23.6385 -25.2392   C.3       1 RES1   0.0000
    25 C25    -11.1294  24.8982 -27.2055   C.3       1 RES1   0.0000
    26 C26    -15.2607  23.1799 -23.4236   C.2       1 RES1   0.0000
    27 C27    -15.4188  21.8089 -23.5926   C.2       1 RES1   0.0000
@<TRIPOS>BOND
     1     1     2    1
     2     2     3    1
     3     3     4    2
     4     4     5    1
     5     5     6    2
     6     6     7    1
     7     7     8    2
     8     7     9    2
     9     7    10    1
    10    10    11    1
    11    11    12    1
    12    12    13    2
    13    13    14    1
    14    14    15    2
    15    15    16    1
    16    16    17    2
    17    10    18    1
    18    18    19    1
    19    19    20    2
    20    19    21   am
    21    21    22    1
    22    18    23    1
    23    23    24    1
    24    23    25    1
    25     6    26    1
    26    26    27    2
    27    27     3    1
    28    17    12    1
@<TRIPOS>SUBSTRUCTURE
     1 RES1        1 GROUP             0 ****  ****    0  
@<TRIPOS>MOLECULE
ligand_18
    27    28     1     0     0
SMALL
NO_CHARGES
****
Generated from the CSD

@<TRIPOS>ATOM
     1 C1     -16.0499  19.3930 -26.3180   C.3       1 RES1   0.0000
     2 O2     -15.8130  19.9490 -25.0190   O.3       1 RES1   0.0000
     3 C3     -15.6580  21.3020 -24.8580   C.2       1 RES1   0.0000
     4 C4     -15.7282  22.1641 -25.9575   C.2       1 RES1   0.0000
     5 C5     -15.5661  23.5391 -25.7865   C.2       1 RES1   0.0000
     6 C6     -15.3348  24.0430 -24.5131   C.2       1 RES1   0.0000
     7 S7     -15.1282  25.7659 -24.2432   S.o2      1 RES1   0.0000
     8 O8     -14.2945  25.9465 -23.0984   O.2       1 RES1   0.0000
     9 O9     -14.6759  26.3385 -25.4782   O.2       1 RES1   0.0000
    10 N10    -16.6164  26.3788 -23.9499   N.pl3     1 RES1   0.0000
    11 C11    -17.3074  27.3773 -24.8155   C.3       1 RES1   0.0000
    12 C12    -16.9135  28.8323 -24.6110   C.2       1 RES1   0.0000
    13 C13    -15.5648  29.2042 -24.6577   C.2       1 RES1   0.0000
    14 C14    -15.2004  30.5437 -24.4813   C.2       1 RES1   0.0000
    15 C15    -16.1806  31.5046 -24.2303   C.2       1 RES1   0.0000
    16 N16    -17.5164  31.1442 -24.1801   N.2       1 RES1   0.0000
    17 C17    -17.8776  29.8139 -24.3537   C.2       1 RES1   0.0000
    18 C18    -17.2896  26.0207 -22.6753   C.3       1 RES1   0.0000
    19 C19    -17.3757  27.2244 -21.7618   C.2       1 RES1   0.0000
    20 O20    -18.1637  28.1198 -22.0082   O.2       1 RES1   0.0000
    21 N21    -16.5743  27.2585 -20.7045   N.am      1 RES1   0.0000
    22 O22    -16.5273  28.4026 -19.9001   O.3       1 RES1   0.0000
    23 C23    -18.6910  25.4182 -22.8689   C.3       1 RES1   0.0000
    24 C24    -18.7039  24.2213 -23.8225   C.3       1 RES1   0.0000
    25 C25    -19.3238  24.9930 -21.5379   C.3       1 RES1   0.0000
    26 C26    -15.2607  23.1799 -23.4236   C.2       1 RES1   0.0000
    27 C27    -15.4188  21.8089 -23.5926   C.2       1 RES1   0.0000
@<TRIPOS>BOND
     1     1     2    1
     2     2     3    1
     3     3     4    2
     4     4     5    1
     5     5     6    2
     6     6     7    1
     7     7     8    2
     8     7     9    2
     9     7    10    1
    10    10    11    1
    11    11    12    1
    12    12    13    2
    13    13    14    1
    14    14    15    2
    15    15    16    1
    16    16    17    2
    17    10    18    1
    18    18    19    1
    19    19    20    2
    20    19    21   am
    21    21    22    1
    22    18    23    1
    23    23    24    1
    24    23    25    1
    25     6    26    1
    26    26    27    2
    27    27     3    1
    28    17    12    1
@<TRIPOS>SUBSTRUCTURE
     1 RES1        1 GROUP             0 ****  ****    0  
@<TRIPOS>MOLECULE
ligand_19
    27    28     1     0     0
SMALL
NO_CHARGES
****
Generated from the CSD

@<TRIPOS>ATOM
     1 C1     -16.0499  19.3930 -26.3180   C.3       1 RES1   0.0000
     2 O2     -15.8130  19.9490 -25.0190   O.3       1 RES1   0.0000
     3 C3     -15.6580  21.3020 -24.8580   C.2       1 RES1   0.0000
     4 C4     -15.7282  22.1641 -25.9575   C.2       1 RES1   0.0000
     5 C5     -15.5661  23.5391 -25.7865   C.2       1 RES1   0.0000
     6 C6     -15.3348  24.0430 -24.5131   C.2       1 RES1   0.0000
     7 S7     -15.1282  25.7659 -24.2432   S.o2      1 RES1   0.0000
     8 O8     -15.8558  26.4707 -25.2493   O.2       1 RES1   0.0000
     9 O9     -15.4805  26.0276 -22.8774   O.2       1 RES1   0.0000
    10 N10    -13.5291  26.0778 -24.3916   N.pl3     1 RES1   0.0000
    11 C11    -12.6336  26.4678 -23.2648   C.3       1 RES1   0.0000
    12 C12    -12.2642  25.3638 -22.2855   C.2       1 RES1   0.0000
    13 C13    -11.1224  24.5854 -22.5086   C.2       1 RES1   0.0000
    14 C14    -10.7738  23.5768 -21.6034   C.2       1 RES1   0.0000
    15 C15    -11.5812  23.3284 -20.4929   C.2       1 RES1   0.0000
    16 N16    -12.7136  24.0923 -20.2668   N.2       1 RES1   0.0000
    17 C17    -13.0602  25.0927 -21.1666   C.2       1 RES1   0.0000
    18 C18    -12.9365  26.0982 -25.7533   C.3       1 RES1   0.0000
    19 C19    -12.5882  27.5134 -26.1615   C.2       1 RES1   0.0000
    20 O20    -11.6416  28.0799 -25.6454   O.2       1 RES1   0.0000
    21 N21    -13.3417  28.0948 -27.0865   N.am      1 RES1   0.0000
    22 O22    -13.1383  29.4414 -27.4083   O.3       1 RES1   0.0000
    23 C23    -11.6972  25.1995 -25.8974   C.3       1 RES1   0.0000
    24 C24    -11.9517  23.7521 -25.4704   C.3       1 RES1   0.0000
    25 C25    -11.1491  25.2000 -27.3301   C.3       1 RES1   0.0000
    26 C26    -15.2607  23.1799 -23.4236   C.2       1 RES1   0.0000
    27 C27    -15.4188  21.8089 -23.5926   C.2       1 RES1   0.0000
@<TRIPOS>BOND
     1     1     2    1
     2     2     3    1
     3     3     4    2
     4     4     5    1
     5     5     6    2
     6     6     7    1
     7     7     8    2
     8     7     9    2
     9     7    10    1
    10    10    11    1
    11    11    12    1
    12    12    13    2
    13    13    14    1
    14    14    15    2
    15    15    16    1
    16    16    17    2
    17    10    18    1
    18    18    19    1
    19    19    20    2
    20    19    21   am
    21    21    22    1
    22    18    23    1
    23    23    24    1
    24    23    25    1
    25     6    26    1
    26    26    27    2
    27    27     3    1
    28    17    12    1
@<TRIPOS>SUBSTRUCTURE
     1 RES1        1 GROUP             0 ****  ****    0  
@<TRIPOS>MOLECULE
ligand_20
    27    28     1     0     0
SMALL
NO_CHARGES
****
Generated from the CSD

@<TRIPOS>ATOM
     1 C1     -16.0499  19.3930 -26.3180   C.3       1 RES1   0.0000
     2 O2     -15.8130  19.9490 -25.0190   O.3       1 RES1   0.0000
     3 C3     -15.6580  21.3020 -24.8580   C.2       1 RES1   0.0000
     4 C4     -15.7282  22.1641 -25.9575   C.2       1 RES1   0.0000
     5 C5     -15.5661  23.5391 -25.7865   C.2       1 RES1   0.0000
     6 C6     -15.3348  24.0430 -24.5131   C.2       1 RES1   0.0000
     7 S7     -15.1282  25.7659 -24.2432   S.o2      1 RES1   0.0000
     8 O8     -15.8558  26.4707 -25.2493   O.2       1 RES1   0.0000
     9 O9     -15.4805  26.0276 -22.8774   O.2       1 RES1   0.0000
    10 N10    -13.5291  26.0778 -24.3916   N.pl3     1 RES1   0.0000
    11 C11    -12.8839  26.6321 -25.6164   C.3       1 RES1   0.0000
    12 C12    -12.3195  28.0401 -25.5013   C.2       1 RES1   0.0000
    13 C13    -13.1329  29.0836 -25.0442   C.2       1 RES1   0.0000
    14 C14    -12.6132  30.3775 -24.9265   C.2       1 RES1   0.0000
    15 C15    -11.2910  30.6327 -25.2923   C.2       1 RES1   0.0000
    16 N16    -10.4810  29.6063 -25.7478   N.2       1 RES1   0.0000
    17 C17    -10.9979  28.3221 -25.8660   C.2       1 RES1   0.0000
    18 C18    -12.6246  25.6735 -23.2852   C.3       1 RES1   0.0000
    19 C19    -11.5565  24.7268 -23.7892   C.2       1 RES1   0.0000
    20 O20    -11.6365  23.5357 -23.5479   O.2       1 RES1   0.0000
    21 N21    -10.5538  25.2406 -24.4906   N.am      1 RES1   0.0000
    22 O22     -9.5090  24.4162 -24.9229   O.3       1 RES1   0.0000
    23 C23    -11.9641  26.8615 -22.5664   C.3       1 RES1   0.0000
    24 C24    -12.9726  27.9029 -22.0758   C.3       1 RES1   0.0000
    25 C25    -11.1060  26.4103 -21.3776   C.3       1 RES1   0.0000
    26 C26    -15.2607  23.1799 -23.4236   C.2       1 RES1   0.0000
    27 C27    -15.4188  21.8089 -23.5926   C.2       1 RES1   0.0000
@<TRIPOS>BOND
     1     1     2    1
     2     2     3    1
     3     3     4    2
     4     4     5    1
     5     5     6    2
     6     6     7    1
     7     7     8    2
     8     7     9    2
     9     7    10    1
    10    10    11    1
    11    11    12    1
    12    12    13    2
    13    13    14    1
    14    14    15    2
    15    15    16    1
    16    16    17    2
    17    10    18    1
    18    18    19    1
    19    19    20    2
    20    19    21   am
    21    21    22    1
    22    18    23    1
    23    23    24    1
    24    23    25    1
    25     6    26    1
    26    26    27    2
    27    27     3    1
    28    17    12    1
@<TRIPOS>SUBSTRUCTURE
     1 RES1        1 GROUP             0 ****  ****    0  
@<TRIPOS>MOLECULE
ligand_21
    27    28     1     0     0
SMALL
NO_CHARGES
****
Generated from the CSD

@<TRIPOS>ATOM
     1 C1     -16.0499  19.3930 -26.3180   C.3       1 RES1   0.0000
     2 O2     -15.8130  19.9490 -25.0190   O.3       1 RES1   0.0000
     3 C3     -15.6580  21.3020 -24.8580   C.2       1 RES1   0.0000
     4 C4     -15.7282  22.1641 -25.9575   C.2       1 RES1   0.0000
     5 C5     -15.5661  23.5391 -25.7865   C.2       1 RES1   0.0000
     6 C6     -15.3348  24.0430 -24.5131   C.2       1 RES1   0.0000
     7 S7     -15.1282  25.7659 -24.2432   S.o2      1 RES1   0.0000
     8 O8     -14.2945  25.9465 -23.0984   O.2       1 RES1   0.0000
     9 O9     -14.6759  26.3385 -25.4782   O.2       1 RES1   0.0000
    10 N10    -16.6164  26.3788 -23.9499   N.pl3     1 RES1   0.0000
    11 C11    -17.1601  26.6711 -22.5925   C.3       1 RES1   0.0000
    12 C12    -17.3797  28.1386 -22.2570   C.2       1 RES1   0.0000
    13 C13    -16.3314  29.0541 -22.4074   C.2       1 RES1   0.0000
    14 C14    -16.5338  30.4065 -22.1105   C.2       1 RES1   0.0000
    15 C15    -17.7736  30.8374 -21.6371   C.2       1 RES1   0.0000
    16 N16    -18.8146  29.9376 -21.4833   N.2       1 RES1   0.0000
    17 C17    -18.6128  28.5946 -21.7767   C.2       1 RES1   0.0000
    18 C18    -17.5493  26.5473 -25.0933   C.3       1 RES1   0.0000
    19 C19    -18.8246  25.7662 -24.8599   C.2       1 RES1   0.0000
    20 O20    -19.0131  24.7186 -25.4517   O.2       1 RES1   0.0000
    21 N21    -19.7062  26.2615 -24.0005   N.am      1 RES1   0.0000
    22 O22    -20.9281  25.6099 -23.7995   O.3       1 RES1   0.0000
    23 C23    -17.8912  28.0155 -25.3960   C.3       1 RES1   0.0000
    24 C24    -16.6524  28.8939 -25.5858   C.3       1 RES1   0.0000
    25 C25    -18.7867  28.1548 -26.6336   C.3       1 RES1   0.0000
    26 C26    -15.2607  23.1799 -23.4236   C.2       1 RES1   0.0000
    27 C27    -15.4188  21.8089 -23.5926   C.2       1 RES1   0.0000
@<TRIPOS>BOND
     1     1     2    1
     2     2     3    1
     3     3     4    2
     4     4     5    1
     5     5     6    2
     6     6     7    1
     7     7     8    2
     8     7     9    2
     9     7    10    1
    10    10    11    1
    11    11    12    1
    12    12    13    2
    13    13    14    1
    14    14    15    2
    15    15    16    1
    16    16    17    2
    17    10    18    1
    18    18    19    1
    19    19    20    2
    20    19    21   am
    21    21    22    1
    22    18    23    1
    23    23    24    1
    24    23    25    1
    25     6    26    1
    26    26    27    2
    27    27     3    1
    28    17    12    1
@<TRIPOS>SUBSTRUCTURE
     1 RES1        1 GROUP             0 ****  ****    0  
@<TRIPOS>MOLECULE
ligand_22
    27    28     1     0     0
SMALL
NO_CHARGES
****
Generated from the CSD

@<TRIPOS>ATOM
     1 C1     -16.0499  19.3930 -26.3180   C.3       1 RES1   0.0000
     2 O2     -15.8130  19.9490 -25.0190   O.3       1 RES1   0.0000
     3 C3     -15.6580  21.3020 -24.8580   C.2       1 RES1   0.0000
     4 C4     -15.7282  22.1641 -25.9575   C.2       1 RES1   0.0000
     5 C5     -15.5661  23.5391 -25.7865   C.2       1 RES1   0.0000
     6 C6     -15.3348  24.0430 -24.5131   C.2       1 RES1   0.0000
     7 S7     -15.1282  25.7659 -24.2432   S.o2      1 RES1   0.0000
     8 O8     -15.8558  26.4707 -25.2493   O.2       1 RES1   0.0000
     9 O9     -15.4805  26.0276 -22.8774   O.2       1 RES1   0.0000
    10 N10    -13.5291  26.0778 -24.3916   N.pl3     1 RES1   0.0000
    11 C11    -12.8839  26.6321 -25.6164   C.3       1 RES1   0.0000
    12 C12    -12.3288  28.0440 -25.5044   C.2       1 RES1   0.0000
    13 C13    -11.0005  28.3029 -25.8622   C.2       1 RES1   0.0000
    14 C14    -10.4906  29.6028 -25.7711   C.2       1 RES1   0.0000
    15 C15    -11.2990  30.6361 -25.2961   C.2       1 RES1   0.0000
    16 N16    -12.6131  30.3875 -24.9378   N.2       1 RES1   0.0000
    17 C17    -13.1186  29.0964 -25.0269   C.2       1 RES1   0.0000
    18 C18    -12.6246  25.6735 -23.2852   C.3       1 RES1   0.0000
    19 C19    -11.5596  24.7228 -23.7881   C.2       1 RES1   0.0000
    20 O20    -11.6450  23.5318 -23.5480   O.2       1 RES1   0.0000
    21 N21    -10.5536  25.2329 -24.4873   N.am      1 RES1   0.0000
    22 O22     -9.5118  24.4044 -24.9190   O.3       1 RES1   0.0000
    23 C23    -11.9601  26.8613 -22.5697   C.3       1 RES1   0.0000
    24 C24    -12.9658  27.9029 -22.0739   C.3       1 RES1   0.0000
    25 C25    -11.0959  26.4098 -21.3855   C.3       1 RES1   0.0000
    26 C26    -15.2607  23.1799 -23.4236   C.2       1 RES1   0.0000
    27 C27    -15.4188  21.8089 -23.5926   C.2       1 RES1   0.0000
@<TRIPOS>BOND
     1     1     2    1
     2     2     3    1
     3     3     4    2
     4     4     5    1
     5     5     6    2
     6     6     7    1
     7     7     8    2
     8     7     9    2
     9     7    10    1
    10    10    11    1
    11    11    12    1
    12    12    13    2
    13    13    14    1
    14    14    15    2
    15    15    16    1
    16    16    17    2
    17    10    18    1
    18    18    19    1
    19    19    20    2
    20    19    21   am
    21    21    22    1
    22    18    23    1
    23    23    24    1
    24    23    25    1
    25     6    26    1
    26    26    27    2
    27    27     3    1
    28    17    12    1
@<TRIPOS>SUBSTRUCTURE
     1 RES1        1 GROUP             0 ****  ****    0  
@<TRIPOS>MOLECULE
ligand_23
    27    28     1     0     0
SMALL
NO_CHARGES
****
Generated from the CSD

@<TRIPOS>ATOM
     1 C1     -16.0499  19.3930 -26.3180   C.3       1 RES1   0.0000
     2 O2     -15.8130  19.9490 -25.0190   O.3       1 RES1   0.0000
     3 C3     -15.6580  21.3020 -24.8580   C.2       1 RES1   0.0000
     4 C4     -15.7282  22.1641 -25.9575   C.2       1 RES1   0.0000
     5 C5     -15.5661  23.5391 -25.7865   C.2       1 RES1   0.0000
     6 C6     -15.3348  24.0430 -24.5131   C.2       1 RES1   0.0000
     7 S7     -15.1282  25.7659 -24.2432   S.o2      1 RES1   0.0000
     8 O8     -14.2945  25.9465 -23.0984   O.2       1 RES1   0.0000
     9 O9     -14.6759  26.3385 -25.4782   O.2       1 RES1   0.0000
    10 N10    -16.6164  26.3788 -23.9499   N.pl3     1 RES1   0.0000
    11 C11    -17.1601  26.6711 -22.5925   C.3       1 RES1   0.0000
    12 C12    -17.3698  28.1392 -22.2532   C.2       1 RES1   0.0000
    13 C13    -18.6146  28.5774 -21.7862   C.2       1 RES1   0.0000
    14 C14    -18.8070  29.9251 -21.4626   C.2       1 RES1   0.0000
    15 C15    -17.7653  30.8376 -21.6328   C.2       1 RES1   0.0000
    16 N16    -16.5320  30.4124 -22.0966   N.2       1 RES1   0.0000
    17 C17    -16.3418  29.0744 -22.4193   C.2       1 RES1   0.0000
    18 C18    -17.5493  26.5473 -25.0933   C.3       1 RES1   0.0000
    19 C19    -18.8224  25.7620 -24.8623   C.2       1 RES1   0.0000
    20 O20    -19.0056  24.7129 -25.4533   O.2       1 RES1   0.0000
    21 N21    -19.7081  26.2552 -24.0059   N.am      1 RES1   0.0000
    22 O22    -20.9279  25.5991 -23.8068   O.3       1 RES1   0.0000
    23 C23    -17.8953  28.0152 -25.3926   C.3       1 RES1   0.0000
    24 C24    -16.6591  28.8962 -25.5873   C.3       1 RES1   0.0000
    25 C25    -18.7969  28.1543 -26.6258   C.3       1 RES1   0.0000
    26 C26    -15.2607  23.1799 -23.4236   C.2       1 RES1   0.0000
    27 C27    -15.4188  21.8089 -23.5926   C.2       1 RES1   0.0000
@<TRIPOS>BOND
     1     1     2    1
     2     2     3    1
     3     3     4    2
     4     4     5    1
     5     5     6    2
     6     6     7    1
     7     7     8    2
     8     7     9    2
     9     7    10    1
    10    10    11    1
    11    11    12    1
    12    12    13    2
    13    13    14    1
    14    14    15    2
    15    15    16    1
    16    16    17    2
    17    10    18    1
    18    18    19    1
    19    19    20    2
    20    19    21   am
    21    21    22    1
    22    18    23    1
    23    23    24    1
    24    23    25    1
    25     6    26    1
    26    26    27    2
    27    27     3    1
    28    17    12    1
@<TRIPOS>SUBSTRUCTURE
     1 RES1        1 GROUP             0 ****  ****    0  
@<TRIPOS>MOLECULE
ligand_24
    27    28     1     0     0
SMALL
NO_CHARGES
****
Generated from the CSD

@<TRIPOS>ATOM
     1 C1     -16.0446  19.3925 -26.3188   C.3       1 RES1   0.0000
     2 O2     -15.8137  19.9491 -25.0189   O.3       1 RES1   0.0000
     3 C3     -15.6584  21.3020 -24.8580   C.2       1 RES1   0.0000
     4 C4     -15.7226  22.1636 -25.9583   C.2       1 RES1   0.0000
     5 C5     -15.5603  23.5385 -25.7873   C.2       1 RES1   0.0000
     6 C6     -15.3348  24.0430 -24.5131   C.2       1 RES1   0.0000
     7 S7     -15.1282  25.7659 -24.2432   S.o2      1 RES1   0.0000
     8 O8     -15.8558  26.4707 -25.2493   O.2       1 RES1   0.0000
     9 O9     -15.4805  26.0276 -22.8774   O.2       1 RES1   0.0000
    10 N10    -13.5291  26.0778 -24.3916   N.pl3     1 RES1   0.0000
    11 C11    -12.6361  26.4795 -23.2670   C.3       1 RES1   0.0000
    12 C12    -11.5747  25.4699 -22.8566   C.2       1 RES1   0.0000
    13 C13    -11.9527  24.1841 -22.4525   C.2       1 RES1   0.0000
    14 C14    -10.9778  23.2498 -22.0855   C.2       1 RES1   0.0000
    15 C15     -9.6297  23.6097 -22.0952   C.2       1 RES1   0.0000
    16 N16     -9.2482  24.8804 -22.4912   N.2       1 RES1   0.0000
    17 C17    -10.2165  25.8083 -22.8540   C.2       1 RES1   0.0000
    18 C18    -12.9339  26.0855 -25.7523   C.3       1 RES1   0.0000
    19 C19    -12.4856  27.4810 -26.1297   C.2       1 RES1   0.0000
    20 O20    -13.1456  28.1411 -26.9121   O.2       1 RES1   0.0000
    21 N21    -11.3687  27.9427 -25.5815   N.am      1 RES1   0.0000
    22 O22    -10.8904  29.2102 -25.9319   O.3       1 RES1   0.0000
    23 C23    -11.7610  25.1047 -25.9154   C.3       1 RES1   0.0000
    24 C24    -12.1213  23.6681 -25.5300   C.3       1 RES1   0.0000
    25 C25    -11.2046  25.1052 -27.3448   C.3       1 RES1   0.0000
    26 C26    -15.2667  23.1805 -23.4228   C.2       1 RES1   0.0000
    27 C27    -15.4250  21.8095 -23.5918   C.2       1 RES1   0.0000
@<TRIPOS>BOND
     1     1     2    1
     2     2     3    1
     3     3     4    2
     4     4     5    1
     5     5     6    2
     6     6     7    1
     7     7     8    2
     8     7     9    2
     9     7    10    1
    10    10    11    1
    11    11    12    1
    12    12    13    2
    13    13    14    1
    14    14    15    2
    15    15    16    1
    16    16    17    2
    17    10    18    1
    18    18    19    1
    19    19    20    2
    20    19    21   am
    21    21    22    1
    22    18    23    1
    23    23    24    1
    24    23    25    1
    25     6    26    1
    26    26    27    2
    27    27     3    1
    28    17    12    1
@<TRIPOS>SUBSTRUCTURE
     1 RES1        1 GROUP             0 ****  ****    0  
@<TRIPOS>MOLECULE
ligand_25
    27    28     1     0     0
SMALL
NO_CHARGES
****
Generated from the CSD

@<TRIPOS>ATOM
     1 C1     -16.0501  19.3930 -26.3180   C.3       1 RES1   0.0000
     2 O2     -15.8130  19.9490 -25.0190   O.3       1 RES1   0.0000
     3 C3     -15.6580  21.3020 -24.8580   C.2       1 RES1   0.0000
     4 C4     -15.7284  22.1641 -25.9574   C.2       1 RES1   0.0000
     5 C5     -15.5664  23.5391 -25.7865   C.2       1 RES1   0.0000
     6 C6     -15.3348  24.0430 -24.5131   C.2       1 RES1   0.0000
     7 S7     -15.1282  25.7659 -24.2432   S.o2      1 RES1   0.0000
     8 O8     -14.2945  25.9465 -23.0984   O.2       1 RES1   0.0000
     9 O9     -14.6759  26.3385 -25.4782   O.2       1 RES1   0.0000
    10 N10    -16.6164  26.3788 -23.9499   N.pl3     1 RES1   0.0000
    11 C11    -17.3544  27.2899 -24.8713   C.3       1 RES1   0.0000
    12 C12    -18.6015  26.7174 -25.5279   C.2       1 RES1   0.0000
    13 C13    -18.5114  25.5578 -26.3068   C.2       1 RES1   0.0000
    14 C14    -19.6588  25.0225 -26.9025   C.2       1 RES1   0.0000
    15 C15    -20.8888  25.6617 -26.7431   C.2       1 RES1   0.0000
    16 N16    -20.9857  26.8104 -25.9763   N.2       1 RES1   0.0000
    17 C17    -19.8459  27.3425 -25.3863   C.2       1 RES1   0.0000
    18 C18    -17.2393  26.1196 -22.6267   C.3       1 RES1   0.0000
    19 C19    -17.3599  27.4033 -21.8341   C.2       1 RES1   0.0000
    20 O20    -16.5896  27.6268 -20.9174   O.2       1 RES1   0.0000
    21 N21    -18.3185  28.2551 -22.1758   N.am      1 RES1   0.0000
    22 O22    -18.4971  29.4356 -21.4460   O.3       1 RES1   0.0000
    23 C23    -18.6146  25.4381 -22.7181   C.3       1 RES1   0.0000
    24 C24    -18.5886  24.1383 -23.5255   C.3       1 RES1   0.0000
    25 C25    -19.2048  25.1445 -21.3330   C.3       1 RES1   0.0000
    26 C26    -15.2605  23.1799 -23.4237   C.2       1 RES1   0.0000
    27 C27    -15.4185  21.8089 -23.5927   C.2       1 RES1   0.0000
@<TRIPOS>BOND
     1     1     2    1
     2     2     3    1
     3     3     4    2
     4     4     5    1
     5     5     6    2
     6     6     7    1
     7     7     8    2
     8     7     9    2
     9     7    10    1
    10    10    11    1
    11    11    12    1
    12    12    13    2
    13    13    14    1
    14    14    15    2
    15    15    16    1
    16    16    17    2
    17    10    18    1
    18    18    19    1
    19    19    20    2
    20    19    21   am
    21    21    22    1
    22    18    23    1
    23    23    24    1
    24    23    25    1
    25     6    26    1
    26    26    27    2
    27    27     3    1
    28    17    12    1
@<TRIPOS>SUBSTRUCTURE
     1 RES1        1 GROUP             0 ****  ****    0  
@<TRIPOS>MOLECULE
ligand_26
    27    28     1     0     0
SMALL
NO_CHARGES
****
Generated from the CSD

@<TRIPOS>ATOM
     1 C1     -16.0446  19.3925 -26.3188   C.3       1 RES1   0.0000
     2 O2     -15.8137  19.9491 -25.0189   O.3       1 RES1   0.0000
     3 C3     -15.6584  21.3020 -24.8580   C.2       1 RES1   0.0000
     4 C4     -15.7225  22.1635 -25.9583   C.2       1 RES1   0.0000
     5 C5     -15.5602  23.5385 -25.7873   C.2       1 RES1   0.0000
     6 C6     -15.3348  24.0430 -24.5131   C.2       1 RES1   0.0000
     7 S7     -15.1282  25.7659 -24.2432   S.o2      1 RES1   0.0000
     8 O8     -15.8558  26.4707 -25.2493   O.2       1 RES1   0.0000
     9 O9     -15.4805  26.0276 -22.8774   O.2       1 RES1   0.0000
    10 N10    -13.5291  26.0778 -24.3916   N.pl3     1 RES1   0.0000
    11 C11    -12.6364  26.4808 -23.2672   C.3       1 RES1   0.0000
    12 C12    -11.5772  25.4704 -22.8533   C.2       1 RES1   0.0000
    13 C13    -10.2241  25.8282 -22.8747   C.2       1 RES1   0.0000
    14 C14     -9.2484  24.9046 -22.4836   C.2       1 RES1   0.0000
    15 C15     -9.6232  23.6166 -22.0993   C.2       1 RES1   0.0000
    16 N16    -10.9593  23.2543 -22.0780   N.2       1 RES1   0.0000
    17 C17    -11.9276  24.1712 -22.4679   C.2       1 RES1   0.0000
    18 C18    -12.9336  26.0841 -25.7522   C.3       1 RES1   0.0000
    19 C19    -12.4761  27.4773 -26.1270   C.2       1 RES1   0.0000
    20 O20    -13.1324  28.1437 -26.9071   O.2       1 RES1   0.0000
    21 N21    -11.3554  27.9301 -25.5789   N.am      1 RES1   0.0000
    22 O22    -10.8680  29.1944 -25.9281   O.3       1 RES1   0.0000
    23 C23    -11.7672  25.0959 -25.9169   C.3       1 RES1   0.0000
    24 C24    -12.1381  23.6603 -25.5380   C.3       1 RES1   0.0000
    25 C25    -11.2079  25.0983 -27.3452   C.3       1 RES1   0.0000
    26 C26    -15.2668  23.1805 -23.4228   C.2       1 RES1   0.0000
    27 C27    -15.4250  21.8095 -23.5917   C.2       1 RES1   0.0000
@<TRIPOS>BOND
     1     1     2    1
     2     2     3    1
     3     3     4    2
     4     4     5    1
     5     5     6    2
     6     6     7    1
     7     7     8    2
     8     7     9    2
     9     7    10    1
    10    10    11    1
    11    11    12    1
    12    12    13    2
    13    13    14    1
    14    14    15    2
    15    15    16    1
    16    16    17    2
    17    10    18    1
    18    18    19    1
    19    19    20    2
    20    19    21   am
    21    21    22    1
    22    18    23    1
    23    23    24    1
    24    23    25    1
    25     6    26    1
    26    26    27    2
    27    27     3    1
    28    17    12    1
@<TRIPOS>SUBSTRUCTURE
     1 RES1        1 GROUP             0 ****  ****    0  
@<TRIPOS>MOLECULE
ligand_27
    27    28     1     0     0
SMALL
NO_CHARGES
****
Generated from the CSD

@<TRIPOS>ATOM
     1 C1     -16.0500  19.3930 -26.3180   C.3       1 RES1   0.0000
     2 O2     -15.8130  19.9490 -25.0190   O.3       1 RES1   0.0000
     3 C3     -15.6580  21.3020 -24.8580   C.2       1 RES1   0.0000
     4 C4     -15.7283  22.1641 -25.9575   C.2       1 RES1   0.0000
     5 C5     -15.5663  23.5391 -25.7865   C.2       1 RES1   0.0000
     6 C6     -15.3348  24.0430 -24.5131   C.2       1 RES1   0.0000
     7 S7     -15.1282  25.7659 -24.2432   S.o2      1 RES1   0.0000
     8 O8     -14.2945  25.9465 -23.0984   O.2       1 RES1   0.0000
     9 O9     -14.6759  26.3385 -25.4782   O.2       1 RES1   0.0000
    10 N10    -16.6164  26.3788 -23.9499   N.pl3     1 RES1   0.0000
    11 C11    -17.3543  27.2899 -24.8713   C.3       1 RES1   0.0000
    12 C12    -18.6003  26.7167 -25.5296   C.2       1 RES1   0.0000
    13 C13    -19.8359  27.3517 -25.3584   C.2       1 RES1   0.0000
    14 C14    -20.9816  26.8332 -25.9721   C.2       1 RES1   0.0000
    15 C15    -20.8966  25.6660 -26.7320   C.2       1 RES1   0.0000
    16 N16    -19.6785  25.0307 -26.9039   N.2       1 RES1   0.0000
    17 C17    -18.5415  25.5450 -26.2931   C.2       1 RES1   0.0000
    18 C18    -17.2393  26.1195 -22.6268   C.3       1 RES1   0.0000
    19 C19    -17.3725  27.4054 -21.8395   C.2       1 RES1   0.0000
    20 O20    -16.6056  27.6394 -20.9227   O.2       1 RES1   0.0000
    21 N21    -18.3382  28.2471 -22.1861   N.am      1 RES1   0.0000
    22 O22    -18.5281  29.4292 -21.4617   O.3       1 RES1   0.0000
    23 C23    -18.6085  25.4257 -22.7177   C.3       1 RES1   0.0000
    24 C24    -18.5687  24.1205 -23.5158   C.3       1 RES1   0.0000
    25 C25    -19.2007  25.1369 -21.3324   C.3       1 RES1   0.0000
    26 C26    -15.2606  23.1799 -23.4237   C.2       1 RES1   0.0000
    27 C27    -15.4186  21.8089 -23.5927   C.2       1 RES1   0.0000
@<TRIPOS>BOND
     1     1     2    1
     2     2     3    1
     3     3     4    2
     4     4     5    1
     5     5     6    2
     6     6     7    1
     7     7     8    2
     8     7     9    2
     9     7    10    1
    10    10    11    1
    11    11    12    1
    12    12    13    2
    13    13    14    1
    14    14    15    2
    15    15    16    1
    16    16    17    2
    17    10    18    1
    18    18    19    1
    19    19    20    2
    20    19    21   am
    21    21    22    1
    22    18    23    1
    23    23    24    1
    24    23    25    1
    25     6    26    1
    26    26    27    2
    27    27     3    1
    28    17    12    1
@<TRIPOS>SUBSTRUCTURE
     1 RES1        1 GROUP             0 ****  ****    0  
@<TRIPOS>MOLECULE
ligand_28
    27    28     1     0     0
SMALL
NO_CHARGES
****
Generated from the CSD

@<TRIPOS>ATOM
     1 C1     -16.0499  19.3930 -26.3180   C.3       1 RES1   0.0000
     2 O2     -15.8130  19.9490 -25.0190   O.3       1 RES1   0.0000
     3 C3     -15.6580  21.3020 -24.8580   C.2       1 RES1   0.0000
     4 C4     -15.7282  22.1641 -25.9575   C.2       1 RES1   0.0000
     5 C5     -15.5661  23.5391 -25.7865   C.2       1 RES1   0.0000
     6 C6     -15.3348  24.0430 -24.5131   C.2       1 RES1   0.0000
     7 S7     -15.1282  25.7659 -24.2432   S.o2      1 RES1   0.0000
     8 O8     -15.8558  26.4707 -25.2493   O.2       1 RES1   0.0000
     9 O9     -15.4805  26.0276 -22.8774   O.2       1 RES1   0.0000
    10 N10    -13.5291  26.0778 -24.3916   N.pl3     1 RES1   0.0000
    11 C11    -12.8857  26.6432 -25.6122   C.3       1 RES1   0.0000
    12 C12    -13.1633  28.1108 -25.9009   C.2       1 RES1   0.0000
    13 C13    -12.5840  28.7250 -27.0175   C.2       1 RES1   0.0000
    14 C14    -12.8467  30.0717 -27.2919   C.2       1 RES1   0.0000
    15 C15    -13.6641  30.8102 -26.4354   C.2       1 RES1   0.0000
    16 N16    -14.2387  30.2106 -25.3276   N.2       1 RES1   0.0000
    17 C17    -13.9764  28.8737 -25.0547   C.2       1 RES1   0.0000
    18 C18    -12.6229  25.6621 -23.2908   C.3       1 RES1   0.0000
    19 C19    -11.7677  24.4889 -23.7190   C.2       1 RES1   0.0000
    20 O20    -10.8656  24.6543 -24.5204   O.2       1 RES1   0.0000
    21 N21    -12.0376  23.3007 -23.1932   N.am      1 RES1   0.0000
    22 O22    -11.3587  22.1648 -23.6482   O.3       1 RES1   0.0000
    23 C23    -11.7221  26.7965 -22.7751   C.3       1 RES1   0.0000
    24 C24    -12.5042  28.0489 -22.3728   C.3       1 RES1   0.0000
    25 C25    -10.8604  26.3523 -21.5864   C.3       1 RES1   0.0000
    26 C26    -15.2607  23.1799 -23.4236   C.2       1 RES1   0.0000
    27 C27    -15.4188  21.8089 -23.5926   C.2       1 RES1   0.0000
@<TRIPOS>BOND
     1     1     2    1
     2     2     3    1
     3     3     4    2
     4     4     5    1
     5     5     6    2
     6     6     7    1
     7     7     8    2
     8     7     9    2
     9     7    10    1
    10    10    11    1
    11    11    12    1
    12    12    13    2
    13    13    14    1
    14    14    15    2
    15    15    16    1
    16    16    17    2
    17    10    18    1
    18    18    19    1
    19    19    20    2
    20    19    21   am
    21    21    22    1
    22    18    23    1
    23    23    24    1
    24    23    25    1
    25     6    26    1
    26    26    27    2
    27    27     3    1
    28    17    12    1
@<TRIPOS>SUBSTRUCTURE
     1 RES1        1 GROUP             0 ****  ****    0  
@<TRIPOS>MOLECULE
ligand_29
    27    28     1     0     0
SMALL
NO_CHARGES
****
Generated from the CSD

@<TRIPOS>ATOM
     1 C1     -16.0499  19.3930 -26.3180   C.3       1 RES1   0.0000
     2 O2     -15.8130  19.9490 -25.0190   O.3       1 RES1   0.0000
     3 C3     -15.6580  21.3020 -24.8580   C.2       1 RES1   0.0000
     4 C4     -15.7282  22.1641 -25.9575   C.2       1 RES1   0.0000
     5 C5     -15.5661  23.5391 -25.7865   C.2       1 RES1   0.0000
     6 C6     -15.3348  24.0430 -24.5131   C.2       1 RES1   0.0000
     7 S7     -15.1282  25.7659 -24.2432   S.o2      1 RES1   0.0000
     8 O8     -14.2945  25.9465 -23.0984   O.2       1 RES1   0.0000
     9 O9     -14.6759  26.3385 -25.4782   O.2       1 RES1   0.0000
    10 N10    -16.6164  26.3788 -23.9499   N.pl3     1 RES1   0.0000
    11 C11    -17.1556  26.6823 -22.5931   C.3       1 RES1   0.0000
    12 C12    -16.5573  27.8889 -21.8856   C.2       1 RES1   0.0000
    13 C13    -17.0190  28.2539 -20.6155   C.2       1 RES1   0.0000
    14 C14    -16.4626  29.3564 -19.9575   C.2       1 RES1   0.0000
    15 C15    -15.4664  30.1091 -20.5804   C.2       1 RES1   0.0000
    16 N16    -15.0062  29.7559 -21.8375   N.2       1 RES1   0.0000
    17 C17    -15.5601  28.6621 -22.4912   C.2       1 RES1   0.0000
    18 C18    -17.5538  26.5353 -25.0913   C.3       1 RES1   0.0000
    19 C19    -18.6715  25.5183 -25.0061   C.2       1 RES1   0.0000
    20 O20    -19.5394  25.6379 -24.1600   O.2       1 RES1   0.0000
    21 N21    -18.6644  24.5154 -25.8752   N.am      1 RES1   0.0000
    22 O22    -19.6031  23.4840 -25.7596   O.3       1 RES1   0.0000
    23 C23    -18.1492  27.9482 -25.2079   C.3       1 RES1   0.0000
    24 C24    -17.0851  29.0476 -25.2418   C.3       1 RES1   0.0000
    25 C25    -19.0466  28.0946 -26.4433   C.3       1 RES1   0.0000
    26 C26    -15.2607  23.1799 -23.4236   C.2       1 RES1   0.0000
    27 C27    -15.4188  21.8089 -23.5926   C.2       1 RES1   0.0000
@<TRIPOS>BOND
     1     1     2    1
     2     2     3    1
     3     3     4    2
     4     4     5    1
     5     5     6    2
     6     6     7    1
     7     7     8    2
     8     7     9    2
     9     7    10    1
    10    10    11    1
    11    11    12    1
    12    12    13    2
    13    13    14    1
    14    14    15    2
    15    15    16    1
    16    16    17    2
    17    10    18    1
    18    18    19    1
    19    19    20    2
    20    19    21   am
    21    21    22    1
    22    18    23    1
    23    23    24    1
    24    23    25    1
    25     6    26    1
    26    26    27    2
    27    27     3    1
    28    17    12    1
@<TRIPOS>SUBSTRUCTURE
     1 RES1        1 GROUP             0 ****  ****    0  
@<TRIPOS>MOLECULE
ligand_30
    27    28     1     0     0
SMALL
NO_CHARGES
****
Generated from the CSD

@<TRIPOS>ATOM
     1 C1     -16.0499  19.3930 -26.3180   C.3       1 RES1   0.0000
     2 O2     -15.8130  19.9490 -25.0190   O.3       1 RES1   0.0000
     3 C3     -15.6580  21.3020 -24.8580   C.2       1 RES1   0.0000
     4 C4     -15.7282  22.1641 -25.9575   C.2       1 RES1   0.0000
     5 C5     -15.5661  23.5391 -25.7865   C.2       1 RES1   0.0000
     6 C6     -15.3348  24.0430 -24.5131   C.2       1 RES1   0.0000
     7 S7     -15.1282  25.7659 -24.2432   S.o2      1 RES1   0.0000
     8 O8     -15.8558  26.4707 -25.2493   O.2       1 RES1   0.0000
     9 O9     -15.4805  26.0276 -22.8774   O.2       1 RES1   0.0000
    10 N10    -13.5291  26.0778 -24.3916   N.pl3     1 RES1   0.0000
    11 C11    -12.8857  26.6431 -25.6123   C.3       1 RES1   0.0000
    12 C12    -13.1559  28.1131 -25.8961   C.2       1 RES1   0.0000
    13 C13    -13.9817  28.8498 -25.0390   C.2       1 RES1   0.0000
    14 C14    -14.2228  30.2049 -25.2912   C.2       1 RES1   0.0000
    15 C15    -13.6621  30.8146 -26.4142   C.2       1 RES1   0.0000
    16 N16    -12.8463  30.0919 -27.2680   N.2       1 RES1   0.0000
    17 C17    -12.6085  28.7460 -27.0181   C.2       1 RES1   0.0000
    18 C18    -12.6229  25.6622 -23.2907   C.3       1 RES1   0.0000
    19 C19    -11.7698  24.4872 -23.7178   C.2       1 RES1   0.0000
    20 O20    -10.8676  24.6502 -24.5196   O.2       1 RES1   0.0000
    21 N21    -12.0414  23.3000 -23.1906   N.am      1 RES1   0.0000
    22 O22    -11.3645  22.1625 -23.6445   O.3       1 RES1   0.0000
    23 C23    -11.7201  26.7960 -22.7771   C.3       1 RES1   0.0000
    24 C24    -12.5027  28.0385 -22.3459   C.3       1 RES1   0.0000
    25 C25    -10.8350  26.3429 -21.6091   C.3       1 RES1   0.0000
    26 C26    -15.2607  23.1799 -23.4236   C.2       1 RES1   0.0000
    27 C27    -15.4188  21.8089 -23.5926   C.2       1 RES1   0.0000
@<TRIPOS>BOND
     1     1     2    1
     2     2     3    1
     3     3     4    2
     4     4     5    1
     5     5     6    2
     6     6     7    1
     7     7     8    2
     8     7     9    2
     9     7    10    1
    10    10    11    1
    11    11    12    1
    12    12    13    2
    13    13    14    1
    14    14    15    2
    15    15    16    1
    16    16    17    2
    17    10    18    1
    18    18    19    1
    19    19    20    2
    20    19    21   am
    21    21    22    1
    22    18    23    1
    23    23    24    1
    24    23    25    1
    25     6    26    1
    26    26    27    2
    27    27     3    1
    28    17    12    1
@<TRIPOS>SUBSTRUCTURE
     1 RES1        1 GROUP             0 ****  ****    0  
@<TRIPOS>MOLECULE
ligand_31
    27    28     1     0     0
SMALL
NO_CHARGES
****
Generated from the CSD

@<TRIPOS>ATOM
     1 C1     -16.0499  19.3930 -26.3180   C.3       1 RES1   0.0000
     2 O2     -15.8130  19.9490 -25.0190   O.3       1 RES1   0.0000
     3 C3     -15.6580  21.3020 -24.8580   C.2       1 RES1   0.0000
     4 C4     -15.7282  22.1641 -25.9575   C.2       1 RES1   0.0000
     5 C5     -15.5661  23.5391 -25.7865   C.2       1 RES1   0.0000
     6 C6     -15.3348  24.0430 -24.5131   C.2       1 RES1   0.0000
     7 S7     -15.1282  25.7659 -24.2432   S.o2      1 RES1   0.0000
     8 O8     -14.2945  25.9465 -23.0984   O.2       1 RES1   0.0000
     9 O9     -14.6759  26.3385 -25.4782   O.2       1 RES1   0.0000
    10 N10    -16.6164  26.3788 -23.9499   N.pl3     1 RES1   0.0000
    11 C11    -17.1557  26.6822 -22.5931   C.3       1 RES1   0.0000
    12 C12    -16.5639  27.8940 -21.8891   C.2       1 RES1   0.0000
    13 C13    -15.5599  28.6434 -22.5134   C.2       1 RES1   0.0000
    14 C14    -15.0218  29.7652 -21.8731   C.2       1 RES1   0.0000
    15 C15    -15.4668  30.1200 -20.5991   C.2       1 RES1   0.0000
    16 N16    -16.4577  29.3823 -19.9740   N.2       1 RES1   0.0000
    17 C17    -16.9906  28.2675 -20.6095   C.2       1 RES1   0.0000
    18 C18    -17.5537  26.5355 -25.0913   C.3       1 RES1   0.0000
    19 C19    -18.6699  25.5167 -25.0079   C.2       1 RES1   0.0000
    20 O20    -19.5385  25.6340 -24.1622   O.2       1 RES1   0.0000
    21 N21    -18.6608  24.5148 -25.8781   N.am      1 RES1   0.0000
    22 O22    -19.5980  23.4819 -25.7642   O.3       1 RES1   0.0000
    23 C23    -18.1512  27.9477 -25.2061   C.3       1 RES1   0.0000
    24 C24    -17.0879  29.0465 -25.2705   C.3       1 RES1   0.0000
    25 C25    -19.0741  28.0851 -26.4236   C.3       1 RES1   0.0000
    26 C26    -15.2607  23.1799 -23.4236   C.2       1 RES1   0.0000
    27 C27    -15.4188  21.8089 -23.5926   C.2       1 RES1   0.0000
@<TRIPOS>BOND
     1     1     2    1
     2     2     3    1
     3     3     4    2
     4     4     5    1
     5     5     6    2
     6     6     7    1
     7     7     8    2
     8     7     9    2
     9     7    10    1
    10    10    11    1
    11    11    12    1
    12    12    13    2
    13    13    14    1
    14    14    15    2
    15    15    16    1
    16    16    17    2
    17    10    18    1
    18    18    19    1
    19    19    20    2
    20    19    21   am
    21    21    22    1
    22    18    23    1
    23    23    24    1
    24    23    25    1
    25     6    26    1
    26    26    27    2
    27    27     3    1
    28    17    12    1
@<TRIPOS>SUBSTRUCTURE
     1 RES1        1 GROUP             0 ****  ****    0  
@<TRIPOS>MOLECULE
ligand_32
    27    28     1     0     0
SMALL
NO_CHARGES
****
Generated from the CSD

@<TRIPOS>ATOM
     1 C1     -15.9024  19.3779 -26.3301   C.3       1 RES1   0.0000
     2 O2     -15.7988  19.9475 -25.0196   O.3       1 RES1   0.0000
     3 C3     -15.6492  21.3010 -24.8581   C.2       1 RES1   0.0000
     4 C4     -15.5469  21.8602 -23.5799   C.2       1 RES1   0.0000
     5 C5     -15.3983  23.2384 -23.4232   C.2       1 RES1   0.0000
     6 C6     -15.3524  24.0494 -24.5498   C.2       1 RES1   0.0000
     7 S7     -15.1623  25.7894 -24.4077   S.o2      1 RES1   0.0000
     8 O8     -15.9041  26.4115 -25.4570   O.2       1 RES1   0.0000
     9 O9     -15.5082  26.1464 -23.0620   O.2       1 RES1   0.0000
    10 N10    -13.5676  26.1057 -24.5904   N.pl3     1 RES1   0.0000
    11 C11    -12.6940  26.6937 -23.5347   C.3       1 RES1   0.0000
    12 C12    -12.2842  25.7619 -22.4041   C.2       1 RES1   0.0000
    13 C13    -11.5239  26.2519 -21.3358   C.2       1 RES1   0.0000
    14 C14    -11.1553  25.3998 -20.2888   C.2       1 RES1   0.0000
    15 C15    -11.5219  24.0539 -20.3245   C.2       1 RES1   0.0000
    16 N16    -12.2716  23.5612 -21.3791   N.2       1 RES1   0.0000
    17 C17    -12.6361  24.4073 -22.4192   C.2       1 RES1   0.0000
    18 C18    -12.9584  25.9148 -25.9314   C.3       1 RES1   0.0000
    19 C19    -12.6731  27.2513 -26.5820   C.2       1 RES1   0.0000
    20 O20    -11.7655  27.9489 -26.1661   O.2       1 RES1   0.0000
    21 N21    -13.4370  27.6192 -27.6030   N.am      1 RES1   0.0000
    22 O22    -13.2945  28.8960 -28.1577   O.3       1 RES1   0.0000
    23 C23    -11.6755  25.0675 -25.9083   C.3       1 RES1   0.0000
    24 C24    -11.8961  23.6586 -25.3530   C.3       1 RES1   0.0000
    25 C25    -11.0358  24.9535 -27.2978   C.3       1 RES1   0.0000
    26 C26    -15.4600  23.4880 -25.8189   C.2       1 RES1   0.0000
    27 C27    -15.6115  22.1149 -25.9768   C.2       1 RES1   0.0000
@<TRIPOS>BOND
     1     1     2    1
     2     2     3    1
     3     3     4    2
     4     4     5    1
     5     5     6    2
     6     6     7    1
     7     7     8    2
     8     7     9    2
     9     7    10    1
    10    10    11    1
    11    11    12    1
    12    12    13    2
    13    13    14    1
    14    14    15    2
    15    15    16    1
    16    16    17    2
    17    10    18    1
    18    18    19    1
    19    19    20    2
    20    19    21   am
    21    21    22    1
    22    18    23    1
    23    23    24    1
    24    23    25    1
    25     6    26    1
    26    26    27    2
    27    27     3    1
    28    17    12    1
@<TRIPOS>SUBSTRUCTURE
     1 RES1        1 GROUP             0 ****  ****    0  
@<TRIPOS>MOLECULE
ligand_33
    27    28     1     0     0
SMALL
NO_CHARGES
****
Generated from the CSD

@<TRIPOS>ATOM
     1 C1     -16.0499  19.3930 -26.3180   C.3       1 RES1   0.0000
     2 O2     -15.8130  19.9490 -25.0190   O.3       1 RES1   0.0000
     3 C3     -15.6580  21.3020 -24.8580   C.2       1 RES1   0.0000
     4 C4     -15.7282  22.1641 -25.9575   C.2       1 RES1   0.0000
     5 C5     -15.5661  23.5391 -25.7865   C.2       1 RES1   0.0000
     6 C6     -15.3348  24.0430 -24.5131   C.2       1 RES1   0.0000
     7 S7     -15.1282  25.7659 -24.2432   S.o2      1 RES1   0.0000
     8 O8     -15.8558  26.4707 -25.2493   O.2       1 RES1   0.0000
     9 O9     -15.4805  26.0276 -22.8774   O.2       1 RES1   0.0000
    10 N10    -13.5291  26.0778 -24.3916   N.pl3     1 RES1   0.0000
    11 C11    -12.6331  26.4651 -23.2643   C.3       1 RES1   0.0000
    12 C12    -12.1147  27.8953 -23.2774   C.2       1 RES1   0.0000
    13 C13    -10.7368  28.1393 -23.2428   C.2       1 RES1   0.0000
    14 C14    -10.2568  29.4535 -23.2663   C.2       1 RES1   0.0000
    15 C15    -11.1538  30.5219 -23.2954   C.2       1 RES1   0.0000
    16 N16    -12.5182  30.2887 -23.3271   N.2       1 RES1   0.0000
    17 C17    -12.9944  28.9837 -23.3022   C.2       1 RES1   0.0000
    18 C18    -12.9371  26.1011 -25.7535   C.3       1 RES1   0.0000
    19 C19    -12.5816  27.5163 -26.1557   C.2       1 RES1   0.0000
    20 O20    -11.4131  27.8441 -26.2584   O.2       1 RES1   0.0000
    21 N21    -13.5767  28.3632 -26.3875   N.am      1 RES1   0.0000
    22 O22    -13.3019  29.7118 -26.6406   O.3       1 RES1   0.0000
    23 C23    -11.7025  25.1966 -25.9023   C.3       1 RES1   0.0000
    24 C24    -11.9488  23.7618 -25.4305   C.3       1 RES1   0.0000
    25 C25    -11.1883  25.1575 -27.3469   C.3       1 RES1   0.0000
    26 C26    -15.2607  23.1799 -23.4236   C.2       1 RES1   0.0000
    27 C27    -15.4188  21.8089 -23.5926   C.2       1 RES1   0.0000
@<TRIPOS>BOND
     1     1     2    1
     2     2     3    1
     3     3     4    2
     4     4     5    1
     5     5     6    2
     6     6     7    1
     7     7     8    2
     8     7     9    2
     9     7    10    1
    10    10    11    1
    11    11    12    1
    12    12    13    2
    13    13    14    1
    14    14    15    2
    15    15    16    1
    16    16    17    2
    17    10    18    1
    18    18    19    1
    19    19    20    2
    20    19    21   am
    21    21    22    1
    22    18    23    1
    23    23    24    1
    24    23    25    1
    25     6    26    1
    26    26    27    2
    27    27     3    1
    28    17    12    1
@<TRIPOS>SUBSTRUCTURE
     1 RES1        1 GROUP             0 ****  ****    0  
@<TRIPOS>MOLECULE
ligand_34
    27    28     1     0     0
SMALL
NO_CHARGES
****
Generated from the CSD

@<TRIPOS>ATOM
     1 C1     -16.0499  19.3930 -26.3180   C.3       1 RES1   0.0000
     2 O2     -15.8130  19.9490 -25.0190   O.3       1 RES1   0.0000
     3 C3     -15.6580  21.3020 -24.8580   C.2       1 RES1   0.0000
     4 C4     -15.7282  22.1641 -25.9575   C.2       1 RES1   0.0000
     5 C5     -15.5661  23.5391 -25.7865   C.2       1 RES1   0.0000
     6 C6     -15.3348  24.0430 -24.5131   C.2       1 RES1   0.0000
     7 S7     -15.1282  25.7659 -24.2432   S.o2      1 RES1   0.0000
     8 O8     -15.8558  26.4707 -25.2493   O.2       1 RES1   0.0000
     9 O9     -15.4805  26.0276 -22.8774   O.2       1 RES1   0.0000
    10 N10    -13.5291  26.0778 -24.3916   N.pl3     1 RES1   0.0000
    11 C11    -12.6331  26.4651 -23.2643   C.3       1 RES1   0.0000
    12 C12    -12.1149  27.8953 -23.2772   C.2       1 RES1   0.0000
    13 C13    -13.0169  28.9648 -23.3234   C.2       1 RES1   0.0000
    14 C14    -12.5435  30.2816 -23.3238   C.2       1 RES1   0.0000
    15 C15    -11.1702  30.5277 -23.3070   C.2       1 RES1   0.0000
    16 N16    -10.2717  29.4752 -23.2638   N.2       1 RES1   0.0000
    17 C17    -10.7421  28.1679 -23.2650   C.2       1 RES1   0.0000
    18 C18    -12.9371  26.1012 -25.7535   C.3       1 RES1   0.0000
    19 C19    -12.5816  27.5164 -26.1556   C.2       1 RES1   0.0000
    20 O20    -11.4130  27.8441 -26.2585   O.2       1 RES1   0.0000
    21 N21    -13.5766  28.3634 -26.3873   N.am      1 RES1   0.0000
    22 O22    -13.3017  29.7119 -26.6403   O.3       1 RES1   0.0000
    23 C23    -11.7026  25.1966 -25.9023   C.3       1 RES1   0.0000
    24 C24    -11.9490  23.7616 -25.4309   C.3       1 RES1   0.0000
    25 C25    -11.1881  25.1578 -27.3469   C.3       1 RES1   0.0000
    26 C26    -15.2607  23.1799 -23.4236   C.2       1 RES1   0.0000
    27 C27    -15.4188  21.8089 -23.5926   C.2       1 RES1   0.0000
@<TRIPOS>BOND
     1     1     2    1
     2     2     3    1
     3     3     4    2
     4     4     5    1
     5     5     6    2
     6     6     7    1
     7     7     8    2
     8     7     9    2
     9     7    10    1
    10    10    11    1
    11    11    12    1
    12    12    13    2
    13    13    14    1
    14    14    15    2
    15    15    16    1
    16    16    17    2
    17    10    18    1
    18    18    19    1
    19    19    20    2
    20    19    21   am
    21    21    22    1
    22    18    23    1
    23    23    24    1
    24    23    25    1
    25     6    26    1
    26    26    27    2
    27    27     3    1
    28    17    12    1
@<TRIPOS>SUBSTRUCTURE
     1 RES1        1 GROUP             0 ****  ****    0  
@<TRIPOS>MOLECULE
ligand_35
    27    28     1     0     0
SMALL
NO_CHARGES
****
Generated from the CSD

@<TRIPOS>ATOM
     1 C1     -16.0499  19.3930 -26.3180   C.3       1 RES1   0.0000
     2 O2     -15.8130  19.9490 -25.0190   O.3       1 RES1   0.0000
     3 C3     -15.6580  21.3020 -24.8580   C.2       1 RES1   0.0000
     4 C4     -15.7282  22.1641 -25.9575   C.2       1 RES1   0.0000
     5 C5     -15.5661  23.5391 -25.7865   C.2       1 RES1   0.0000
     6 C6     -15.3348  24.0430 -24.5131   C.2       1 RES1   0.0000
     7 S7     -15.1282  25.7659 -24.2432   S.o2      1 RES1   0.0000
     8 O8     -14.2945  25.9465 -23.0984   O.2       1 RES1   0.0000
     9 O9     -14.6759  26.3385 -25.4782   O.2       1 RES1   0.0000
    10 N10    -16.6164  26.3788 -23.9499   N.pl3     1 RES1   0.0000
    11 C11    -17.3575  27.2839 -24.8747   C.3       1 RES1   0.0000
    12 C12    -17.5318  28.7226 -24.4122   C.2       1 RES1   0.0000
    13 C13    -18.8140  29.2769 -24.3217   C.2       1 RES1   0.0000
    14 C14    -18.9782  30.5963 -23.8856   C.2       1 RES1   0.0000
    15 C15    -17.8604  31.3689 -23.5681   C.2       1 RES1   0.0000
    16 N16    -16.5888  30.8286 -23.6575   N.2       1 RES1   0.0000
    17 C17    -16.4261  29.5190 -24.0920   C.2       1 RES1   0.0000
    18 C18    -17.2360  26.1264 -22.6239   C.3       1 RES1   0.0000
    19 C19    -17.2694  27.3963 -21.8010   C.2       1 RES1   0.0000
    20 O20    -18.3336  27.9383 -21.5620   O.2       1 RES1   0.0000
    21 N21    -16.1147  27.8801 -21.3607   N.am      1 RES1   0.0000
    22 O22    -16.0798  29.1147 -20.7030   O.3       1 RES1   0.0000
    23 C23    -18.6505  25.5297 -22.7102   C.3       1 RES1   0.0000
    24 C24    -18.7253  24.2878 -23.6014   C.3       1 RES1   0.0000
    25 C25    -19.2118  25.1765 -21.3271   C.3       1 RES1   0.0000
    26 C26    -15.2607  23.1799 -23.4236   C.2       1 RES1   0.0000
    27 C27    -15.4188  21.8089 -23.5926   C.2       1 RES1   0.0000
@<TRIPOS>BOND
     1     1     2    1
     2     2     3    1
     3     3     4    2
     4     4     5    1
     5     5     6    2
     6     6     7    1
     7     7     8    2
     8     7     9    2
     9     7    10    1
    10    10    11    1
    11    11    12    1
    12    12    13    2
    13    13    14    1
    14    14    15    2
    15    15    16    1
    16    16    17    2
    17    10    18    1
    18    18    19    1
    19    19    20    2
    20    19    21   am
    21    21    22    1
    22    18    23    1
    23    23    24    1
    24    23    25    1
    25     6    26    1
    26    26    27    2
    27    27     3    1
    28    17    12    1
@<TRIPOS>SUBSTRUCTURE
     1 RES1        1 GROUP             0 ****  ****    0  
@<TRIPOS>MOLECULE
ligand_36
    27    28     1     0     0
SMALL
NO_CHARGES
****
Generated from the CSD

@<TRIPOS>ATOM
     1 C1     -16.0499  19.3930 -26.3180   C.3       1 RES1   0.0000
     2 O2     -15.8130  19.9490 -25.0190   O.3       1 RES1   0.0000
     3 C3     -15.6580  21.3020 -24.8580   C.2       1 RES1   0.0000
     4 C4     -15.7282  22.1641 -25.9575   C.2       1 RES1   0.0000
     5 C5     -15.5661  23.5391 -25.7865   C.2       1 RES1   0.0000
     6 C6     -15.3348  24.0430 -24.5131   C.2       1 RES1   0.0000
     7 S7     -15.1282  25.7659 -24.2432   S.o2      1 RES1   0.0000
     8 O8     -14.2945  25.9465 -23.0984   O.2       1 RES1   0.0000
     9 O9     -14.6759  26.3385 -25.4782   O.2       1 RES1   0.0000
    10 N10    -16.6164  26.3788 -23.9499   N.pl3     1 RES1   0.0000
    11 C11    -17.3575  27.2839 -24.8747   C.3       1 RES1   0.0000
    12 C12    -17.5316  28.7227 -24.4123   C.2       1 RES1   0.0000
    13 C13    -16.4094  29.4898 -24.0784   C.2       1 RES1   0.0000
    14 C14    -16.5657  30.8171 -23.6638   C.2       1 RES1   0.0000
    15 C15    -17.8436  31.3670 -23.5559   C.2       1 RES1   0.0000
    16 N16    -18.9586  30.6138 -23.8819   N.2       1 RES1   0.0000
    17 C17    -18.8031  29.2954 -24.2921   C.2       1 RES1   0.0000
    18 C18    -17.2360  26.1264 -22.6238   C.3       1 RES1   0.0000
    19 C19    -17.2695  27.3963 -21.8011   C.2       1 RES1   0.0000
    20 O20    -18.3337  27.9382 -21.5620   O.2       1 RES1   0.0000
    21 N21    -16.1148  27.8803 -21.3609   N.am      1 RES1   0.0000
    22 O22    -16.0799  29.1149 -20.7032   O.3       1 RES1   0.0000
    23 C23    -18.6504  25.5297 -22.7102   C.3       1 RES1   0.0000
    24 C24    -18.7251  24.2875 -23.6010   C.3       1 RES1   0.0000
    25 C25    -19.2119  25.1769 -21.3270   C.3       1 RES1   0.0000
    26 C26    -15.2607  23.1799 -23.4236   C.2       1 RES1   0.0000
    27 C27    -15.4188  21.8089 -23.5926   C.2       1 RES1   0.0000
@<TRIPOS>BOND
     1     1     2    1
     2     2     3    1
     3     3     4    2
     4     4     5    1
     5     5     6    2
     6     6     7    1
     7     7     8    2
     8     7     9    2
     9     7    10    1
    10    10    11    1
    11    11    12    1
    12    12    13    2
    13    13    14    1
    14    14    15    2
    15    15    16    1
    16    16    17    2
    17    10    18    1
    18    18    19    1
    19    19    20    2
    20    19    21   am
    21    21    22    1
    22    18    23    1
    23    23    24    1
    24    23    25    1
    25     6    26    1
    26    26    27    2
    27    27     3    1
    28    17    12    1
@<TRIPOS>SUBSTRUCTURE
     1 RES1        1 GROUP             0 ****  ****    0  
@<TRIPOS>MOLECULE
ligand_37
    27    28     1     0     0
SMALL
NO_CHARGES
****
Generated from the CSD

@<TRIPOS>ATOM
     1 C1     -16.0249  19.3905 -26.3214   C.3       1 RES1   0.0000
     2 O2     -15.8162  19.9493 -25.0187   O.3       1 RES1   0.0000
     3 C3     -15.6600  21.3022 -24.8579   C.2       1 RES1   0.0000
     4 C4     -15.7015  22.1615 -25.9611   C.2       1 RES1   0.0000
     5 C5     -15.5383  23.5363 -25.7902   C.2       1 RES1   0.0000
     6 C6     -15.3348  24.0430 -24.5131   C.2       1 RES1   0.0000
     7 S7     -15.1282  25.7659 -24.2432   S.o2      1 RES1   0.0000
     8 O8     -14.2945  25.9465 -23.0984   O.2       1 RES1   0.0000
     9 O9     -14.6759  26.3385 -25.4782   O.2       1 RES1   0.0000
    10 N10    -16.6164  26.3788 -23.9499   N.pl3     1 RES1   0.0000
    11 C11    -17.1216  26.7693 -22.6023   C.3       1 RES1   0.0000
    12 C12    -18.2424  25.9145 -22.0300   C.2       1 RES1   0.0000
    13 C13    -19.4591  26.5065 -21.6716   C.2       1 RES1   0.0000
    14 C14    -20.4958  25.7210 -21.1555   C.2       1 RES1   0.0000
    15 C15    -20.3059  24.3509 -20.9717   C.2       1 RES1   0.0000
    16 N16    -19.1043  23.7584 -21.3213   N.2       1 RES1   0.0000
    17 C17    -18.0747  24.5390 -21.8322   C.2       1 RES1   0.0000
    18 C18    -17.5877  26.4435 -25.0716   C.3       1 RES1   0.0000
    19 C19    -18.8100  25.6044 -24.7670   C.2       1 RES1   0.0000
    20 O20    -19.8796  26.1445 -24.5489   O.2       1 RES1   0.0000
    21 N21    -18.6676  24.2850 -24.7506   N.am      1 RES1   0.0000
    22 O22    -19.7296  23.4727 -24.3379   O.3       1 RES1   0.0000
    23 C23    -18.0202  27.8754 -25.4278   C.3       1 RES1   0.0000
    24 C24    -16.8385  28.8181 -25.6662   C.3       1 RES1   0.0000
    25 C25    -18.9337  27.9113 -26.6596   C.3       1 RES1   0.0000
    26 C26    -15.2892  23.1827 -23.4199   C.2       1 RES1   0.0000
    27 C27    -15.4483  21.8118 -23.5887   C.2       1 RES1   0.0000
@<TRIPOS>BOND
     1     1     2    1
     2     2     3    1
     3     3     4    2
     4     4     5    1
     5     5     6    2
     6     6     7    1
     7     7     8    2
     8     7     9    2
     9     7    10    1
    10    10    11    1
    11    11    12    1
    12    12    13    2
    13    13    14    1
    14    14    15    2
    15    15    16    1
    16    16    17    2
    17    10    18    1
    18    18    19    1
    19    19    20    2
    20    19    21   am
    21    21    22    1
    22    18    23    1
    23    23    24    1
    24    23    25    1
    25     6    26    1
    26    26    27    2
    27    27     3    1
    28    17    12    1
@<TRIPOS>SUBSTRUCTURE
     1 RES1        1 GROUP             0 ****  ****    0  
@<TRIPOS>MOLECULE
ligand_38
    27    28     1     0     0
SMALL
NO_CHARGES
****
Generated from the CSD

@<TRIPOS>ATOM
     1 C1     -16.0340  19.3914 -26.3202   C.3       1 RES1   0.0000
     2 O2     -15.8150  19.9492 -25.0188   O.3       1 RES1   0.0000
     3 C3     -15.6593  21.3021 -24.8579   C.2       1 RES1   0.0000
     4 C4     -15.7112  22.1624 -25.9598   C.2       1 RES1   0.0000
     5 C5     -15.5485  23.5374 -25.7889   C.2       1 RES1   0.0000
     6 C6     -15.3348  24.0430 -24.5131   C.2       1 RES1   0.0000
     7 S7     -15.1282  25.7659 -24.2432   S.o2      1 RES1   0.0000
     8 O8     -14.2945  25.9465 -23.0984   O.2       1 RES1   0.0000
     9 O9     -14.6759  26.3385 -25.4782   O.2       1 RES1   0.0000
    10 N10    -16.6164  26.3788 -23.9499   N.pl3     1 RES1   0.0000
    11 C11    -17.1161  26.7836 -22.6045   C.3       1 RES1   0.0000
    12 C12    -18.2296  25.9307 -22.0154   C.2       1 RES1   0.0000
    13 C13    -18.0329  24.5576 -21.8275   C.2       1 RES1   0.0000
    14 C14    -19.0512  23.7727 -21.2752   C.2       1 RES1   0.0000
    15 C15    -20.2737  24.3547 -20.9381   C.2       1 RES1   0.0000
    16 N16    -20.4768  25.7117 -21.1232   N.2       1 RES1   0.0000
    17 C17    -19.4660  26.4904 -21.6731   C.2       1 RES1   0.0000
    18 C18    -17.5932  26.4284 -25.0676   C.3       1 RES1   0.0000
    19 C19    -18.8120  25.5900 -24.7477   C.2       1 RES1   0.0000
    20 O20    -19.8817  26.1302 -24.5300   O.2       1 RES1   0.0000
    21 N21    -18.6666  24.2713 -24.7174   N.am      1 RES1   0.0000
    22 O22    -19.7248  23.4613 -24.2904   O.3       1 RES1   0.0000
    23 C23    -18.0307  27.8551 -25.4383   C.3       1 RES1   0.0000
    24 C24    -16.8522  28.7981 -25.6916   C.3       1 RES1   0.0000
    25 C25    -18.9488  27.8749 -26.6669   C.3       1 RES1   0.0000
    26 C26    -15.2788  23.1817 -23.4212   C.2       1 RES1   0.0000
    27 C27    -15.4376  21.8108 -23.5901   C.2       1 RES1   0.0000
@<TRIPOS>BOND
     1     1     2    1
     2     2     3    1
     3     3     4    2
     4     4     5    1
     5     5     6    2
     6     6     7    1
     7     7     8    2
     8     7     9    2
     9     7    10    1
    10    10    11    1
    11    11    12    1
    12    12    13    2
    13    13    14    1
    14    14    15    2
    15    15    16    1
    16    16    17    2
    17    10    18    1
    18    18    19    1
    19    19    20    2
    20    19    21   am
    21    21    22    1
    22    18    23    1
    23    23    24    1
    24    23    25    1
    25     6    26    1
    26    26    27    2
    27    27     3    1
    28    17    12    1
@<TRIPOS>SUBSTRUCTURE
     1 RES1        1 GROUP             0 ****  ****    0  
@<TRIPOS>MOLECULE
ligand_39
    27    28     1     0     0
SMALL
NO_CHARGES
****
Generated from the CSD

@<TRIPOS>ATOM
     1 C1     -16.0164  19.3897 -26.3222   C.3       1 RES1   0.0000
     2 O2     -15.8098  19.9487 -25.0193   O.3       1 RES1   0.0000
     3 C3     -15.6560  21.3018 -24.8581   C.2       1 RES1   0.0000
     4 C4     -15.4532  21.8506 -23.5874   C.2       1 RES1   0.0000
     5 C5     -15.3010  23.2284 -23.4307   C.2       1 RES1   0.0000
     6 C6     -15.3524  24.0494 -24.5498   C.2       1 RES1   0.0000
     7 S7     -15.1623  25.7894 -24.4077   S.o2      1 RES1   0.0000
     8 O8     -15.9041  26.4115 -25.4570   O.2       1 RES1   0.0000
     9 O9     -15.5082  26.1464 -23.0620   O.2       1 RES1   0.0000
    10 N10    -13.5676  26.1057 -24.5904   N.pl3     1 RES1   0.0000
    11 C11    -12.9525  26.6750 -25.8238   C.3       1 RES1   0.0000
    12 C12    -12.0359  25.7483 -26.6081   C.2       1 RES1   0.0000
    13 C13    -10.7086  26.1205 -26.8518   C.2       1 RES1   0.0000
    14 C14     -9.8600  25.2650 -27.5631   C.2       1 RES1   0.0000
    15 C15    -10.3458  24.0526 -28.0542   C.2       1 RES1   0.0000
    16 N16    -11.6580  23.6786 -27.8196   N.2       1 RES1   0.0000
    17 C17    -12.5007  24.5290 -27.1146   C.2       1 RES1   0.0000
    18 C18    -12.6365  25.6905 -23.5104   C.3       1 RES1   0.0000
    19 C19    -11.6245  24.6939 -24.0334   C.2       1 RES1   0.0000
    20 O20    -10.4560  25.0173 -24.1488   O.2       1 RES1   0.0000
    21 N21    -12.0571  23.4802 -24.3512   N.am      1 RES1   0.0000
    22 O22    -11.1925  22.5698 -24.9689   O.3       1 RES1   0.0000
    23 C23    -11.9051  26.8674 -22.8437   C.3       1 RES1   0.0000
    24 C24    -12.8528  27.9684 -22.3621   C.3       1 RES1   0.0000
    25 C25    -11.0397  26.4122 -21.6618   C.3       1 RES1   0.0000
    26 C26    -15.5597  23.4983 -25.8110   C.2       1 RES1   0.0000
    27 C27    -15.7149  22.1256 -25.9686   C.2       1 RES1   0.0000
@<TRIPOS>BOND
     1     1     2    1
     2     2     3    1
     3     3     4    2
     4     4     5    1
     5     5     6    2
     6     6     7    1
     7     7     8    2
     8     7     9    2
     9     7    10    1
    10    10    11    1
    11    11    12    1
    12    12    13    2
    13    13    14    1
    14    14    15    2
    15    15    16    1
    16    16    17    2
    17    10    18    1
    18    18    19    1
    19    19    20    2
    20    19    21   am
    21    21    22    1
    22    18    23    1
    23    23    24    1
    24    23    25    1
    25     6    26    1
    26    26    27    2
    27    27     3    1
    28    17    12    1
@<TRIPOS>SUBSTRUCTURE
     1 RES1        1 GROUP             0 ****  ****    0  
@<TRIPOS>MOLECULE
ligand_40
    27    28     1     0     0
SMALL
NO_CHARGES
****
Generated from the CSD

@<TRIPOS>ATOM
     1 C1     -16.0283  19.3909 -26.3208   C.3       1 RES1   0.0000
     2 O2     -15.8110  19.9488 -25.0192   O.3       1 RES1   0.0000
     3 C3     -15.6567  21.3019 -24.8581   C.2       1 RES1   0.0000
     4 C4     -15.4435  21.8496 -23.5886   C.2       1 RES1   0.0000
     5 C5     -15.2909  23.2274 -23.4320   C.2       1 RES1   0.0000
     6 C6     -15.3524  24.0494 -24.5498   C.2       1 RES1   0.0000
     7 S7     -15.1623  25.7894 -24.4077   S.o2      1 RES1   0.0000
     8 O8     -15.9041  26.4115 -25.4570   O.2       1 RES1   0.0000
     9 O9     -15.5082  26.1464 -23.0620   O.2       1 RES1   0.0000
    10 N10    -13.5676  26.1057 -24.5904   N.pl3     1 RES1   0.0000
    11 C11    -12.9547  26.6893 -25.8181   C.3       1 RES1   0.0000
    12 C12    -12.0443  25.7699 -26.6182   C.2       1 RES1   0.0000
    13 C13    -12.5372  24.5571 -27.1137   C.2       1 RES1   0.0000
    14 C14    -11.7054  23.7146 -27.8597   C.2       1 RES1   0.0000
    15 C15    -10.3753  24.0712 -28.0851   C.2       1 RES1   0.0000
    16 N16     -9.8797  25.2679 -27.5961   N.2       1 RES1   0.0000
    17 C17    -10.7056  26.1033 -26.8542   C.2       1 RES1   0.0000
    18 C18    -12.6345  25.6759 -23.5179   C.3       1 RES1   0.0000
    19 C19    -11.6252  24.6844 -24.0556   C.2       1 RES1   0.0000
    20 O20    -10.4566  25.0077 -24.1705   O.2       1 RES1   0.0000
    21 N21    -12.0602  23.4751 -24.3866   N.am      1 RES1   0.0000
    22 O22    -11.1985  22.5710 -25.0176   O.3       1 RES1   0.0000
    23 C23    -11.8998  26.8434 -22.8386   C.3       1 RES1   0.0000
    24 C24    -12.8445  27.9405 -22.3424   C.3       1 RES1   0.0000
    25 C25    -11.0333  26.3727 -21.6636   C.3       1 RES1   0.0000
    26 C26    -15.5701  23.4993 -25.8097   C.2       1 RES1   0.0000
    27 C27    -15.7257  22.1266 -25.9673   C.2       1 RES1   0.0000
@<TRIPOS>BOND
     1     1     2    1
     2     2     3    1
     3     3     4    2
     4     4     5    1
     5     5     6    2
     6     6     7    1
     7     7     8    2
     8     7     9    2
     9     7    10    1
    10    10    11    1
    11    11    12    1
    12    12    13    2
    13    13    14    1
    14    14    15    2
    15    15    16    1
    16    16    17    2
    17    10    18    1
    18    18    19    1
    19    19    20    2
    20    19    21   am
    21    21    22    1
    22    18    23    1
    23    23    24    1
    24    23    25    1
    25     6    26    1
    26    26    27    2
    27    27     3    1
    28    17    12    1
@<TRIPOS>SUBSTRUCTURE
     1 RES1        1 GROUP             0 ****  ****    0  
@<TRIPOS>MOLECULE
ligand_41
    27    28     1     0     0
SMALL
NO_CHARGES
****
Generated from the CSD

@<TRIPOS>ATOM
     1 C1     -15.9828  19.3861 -26.3257   C.3       1 RES1   0.0000
     2 O2     -15.8214  19.9499 -25.0185   O.3       1 RES1   0.0000
     3 C3     -15.6633  21.3026 -24.8578   C.2       1 RES1   0.0000
     4 C4     -15.6565  22.1568 -25.9657   C.2       1 RES1   0.0000
     5 C5     -15.4917  23.5315 -25.7948   C.2       1 RES1   0.0000
     6 C6     -15.3348  24.0430 -24.5131   C.2       1 RES1   0.0000
     7 S7     -15.1282  25.7659 -24.2432   S.o2      1 RES1   0.0000
     8 O8     -14.2945  25.9465 -23.0984   O.2       1 RES1   0.0000
     9 O9     -14.6759  26.3385 -25.4782   O.2       1 RES1   0.0000
    10 N10    -16.6164  26.3788 -23.9499   N.pl3     1 RES1   0.0000
    11 C11    -17.3500  27.2982 -24.8665   C.3       1 RES1   0.0000
    12 C12    -18.0551  26.6494 -26.0480   C.2       1 RES1   0.0000
    13 C13    -17.3095  25.9758 -27.0226   C.2       1 RES1   0.0000
    14 C14    -17.9564  25.3683 -28.1045   C.2       1 RES1   0.0000
    15 C15    -19.3435  25.4588 -28.2265   C.2       1 RES1   0.0000
    16 N16    -20.0876  26.1255 -27.2680   N.2       1 RES1   0.0000
    17 C17    -19.4448  26.7299 -26.1948   C.2       1 RES1   0.0000
    18 C18    -17.2440  26.1102 -22.6308   C.3       1 RES1   0.0000
    19 C19    -17.0732  27.2976 -21.7080   C.2       1 RES1   0.0000
    20 O20    -16.2900  27.2369 -20.7773   O.2       1 RES1   0.0000
    21 N21    -17.7967  28.3827 -21.9538   N.am      1 RES1   0.0000
    22 O22    -17.6950  29.4958 -21.1119   O.3       1 RES1   0.0000
    23 C23    -18.7330  25.7381 -22.7233   C.3       1 RES1   0.0000
    24 C24    -19.0023  24.5692 -23.6737   C.3       1 RES1   0.0000
    25 C25    -19.3289  25.4024 -21.3503   C.3       1 RES1   0.0000
    26 C26    -15.3370  23.1877 -23.4150   C.2       1 RES1   0.0000
    27 C27    -15.4979  21.8170 -23.5837   C.2       1 RES1   0.0000
@<TRIPOS>BOND
     1     1     2    1
     2     2     3    1
     3     3     4    2
     4     4     5    1
     5     5     6    2
     6     6     7    1
     7     7     8    2
     8     7     9    2
     9     7    10    1
    10    10    11    1
    11    11    12    1
    12    12    13    2
    13    13    14    1
    14    14    15    2
    15    15    16    1
    16    16    17    2
    17    10    18    1
    18    18    19    1
    19    19    20    2
    20    19    21   am
    21    21    22    1
    22    18    23    1
    23    23    24    1
    24    23    25    1
    25     6    26    1
    26    26    27    2
    27    27     3    1
    28    17    12    1
@<TRIPOS>SUBSTRUCTURE
     1 RES1        1 GROUP             0 ****  ****    0  
@<TRIPOS>MOLECULE
ligand_42
    27    28     1     0     0
SMALL
NO_CHARGES
****
Generated from the CSD

@<TRIPOS>ATOM
     1 C1     -15.9617  19.3841 -26.3271   C.3       1 RES1   0.0000
     2 O2     -15.8046  19.9481 -25.0195   O.3       1 RES1   0.0000
     3 C3     -15.6527  21.3014 -24.8582   C.2       1 RES1   0.0000
     4 C4     -15.4982  21.8551 -23.5828   C.2       1 RES1   0.0000
     5 C5     -15.3476  23.2331 -23.4261   C.2       1 RES1   0.0000
     6 C6     -15.3524  24.0494 -24.5498   C.2       1 RES1   0.0000
     7 S7     -15.1623  25.7894 -24.4077   S.o2      1 RES1   0.0000
     8 O8     -15.9041  26.4115 -25.4570   O.2       1 RES1   0.0000
     9 O9     -15.5082  26.1464 -23.0620   O.2       1 RES1   0.0000
    10 N10    -13.5676  26.1057 -24.5904   N.pl3     1 RES1   0.0000
    11 C11    -12.6721  26.6004 -23.5055   C.3       1 RES1   0.0000
    12 C12    -12.1611  25.5550 -22.5256   C.2       1 RES1   0.0000
    13 C13    -13.0637  24.8577 -21.7141   C.2       1 RES1   0.0000
    14 C14    -12.5976  23.8875 -20.8200   C.2       1 RES1   0.0000
    15 C15    -11.2290  23.6356 -20.7172   C.2       1 RES1   0.0000
    16 N16    -10.3297  24.3230 -21.5146   N.2       1 RES1   0.0000
    17 C17    -10.7928  25.2873 -22.4011   C.2       1 RES1   0.0000
    18 C18    -12.9810  26.0170 -25.9520   C.3       1 RES1   0.0000
    19 C19    -12.8581  27.3933 -26.5697   C.2       1 RES1   0.0000
    20 O20    -13.6102  27.7261 -27.4681   O.2       1 RES1   0.0000
    21 N21    -11.9176  28.2024 -26.0986   N.am      1 RES1   0.0000
    22 O22    -11.7461  29.4741 -26.6566   O.3       1 RES1   0.0000
    23 C23    -11.6155  25.3112 -25.9877   C.3       1 RES1   0.0000
    24 C24    -11.6391  23.9241 -25.3415   C.3       1 RES1   0.0000
    25 C25    -11.0732  25.1785 -27.4165   C.3       1 RES1   0.0000
    26 C26    -15.5119  23.4934 -25.8158   C.2       1 RES1   0.0000
    27 C27    -15.6653  22.1206 -25.9736   C.2       1 RES1   0.0000
@<TRIPOS>BOND
     1     1     2    1
     2     2     3    1
     3     3     4    2
     4     4     5    1
     5     5     6    2
     6     6     7    1
     7     7     8    2
     8     7     9    2
     9     7    10    1
    10    10    11    1
    11    11    12    1
    12    12    13    2
    13    13    14    1
    14    14    15    2
    15    15    16    1
    16    16    17    2
    17    10    18    1
    18    18    19    1
    19    19    20    2
    20    19    21   am
    21    21    22    1
    22    18    23    1
    23    23    24    1
    24    23    25    1
    25     6    26    1
    26    26    27    2
    27    27     3    1
    28    17    12    1
@<TRIPOS>SUBSTRUCTURE
     1 RES1        1 GROUP             0 ****  ****    0  
@<TRIPOS>MOLECULE
ligand_43
    27    28     1     0     0
SMALL
NO_CHARGES
****
Generated from the CSD

@<TRIPOS>ATOM
     1 C1     -15.9819  19.3860 -26.3258   C.3       1 RES1   0.0000
     2 O2     -15.8215  19.9499 -25.0185   O.3       1 RES1   0.0000
     3 C3     -15.6633  21.3026 -24.8578   C.2       1 RES1   0.0000
     4 C4     -15.6555  22.1567 -25.9657   C.2       1 RES1   0.0000
     5 C5     -15.4907  23.5314 -25.7949   C.2       1 RES1   0.0000
     6 C6     -15.3348  24.0430 -24.5131   C.2       1 RES1   0.0000
     7 S7     -15.1282  25.7659 -24.2432   S.o2      1 RES1   0.0000
     8 O8     -14.2945  25.9465 -23.0984   O.2       1 RES1   0.0000
     9 O9     -14.6759  26.3385 -25.4782   O.2       1 RES1   0.0000
    10 N10    -16.6164  26.3788 -23.9499   N.pl3     1 RES1   0.0000
    11 C11    -17.3455  27.3067 -24.8615   C.3       1 RES1   0.0000
    12 C12    -18.0352  26.6702 -26.0588   C.2       1 RES1   0.0000
    13 C13    -19.4280  26.7384 -26.1805   C.2       1 RES1   0.0000
    14 C14    -20.0641  26.1638 -27.2865   C.2       1 RES1   0.0000
    15 C15    -19.3113  25.4975 -28.2541   C.2       1 RES1   0.0000
    16 N16    -17.9335  25.4236 -28.1395   N.2       1 RES1   0.0000
    17 C17    -17.3025  25.9929 -27.0404   C.2       1 RES1   0.0000
    18 C18    -17.2488  26.1007 -22.6351   C.3       1 RES1   0.0000
    19 C19    -17.0768  27.2793 -21.7013   C.2       1 RES1   0.0000
    20 O20    -16.3008  27.2057 -20.7654   O.2       1 RES1   0.0000
    21 N21    -17.7911  28.3713 -21.9435   N.am      1 RES1   0.0000
    22 O22    -17.6882  29.4767 -21.0917   O.3       1 RES1   0.0000
    23 C23    -18.7387  25.7344 -22.7352   C.3       1 RES1   0.0000
    24 C24    -19.0090  24.5748 -23.6967   C.3       1 RES1   0.0000
    25 C25    -19.3398  25.3884 -21.3670   C.3       1 RES1   0.0000
    26 C26    -15.3381  23.1878 -23.4149   C.2       1 RES1   0.0000
    27 C27    -15.4990  21.8171 -23.5836   C.2       1 RES1   0.0000
@<TRIPOS>BOND
     1     1     2    1
     2     2     3    1
     3     3     4    2
     4     4     5    1
     5     5     6    2
     6     6     7    1
     7     7     8    2
     8     7     9    2
     9     7    10    1
    10    10    11    1
    11    11    12    1
    12    12    13    2
    13    13    14    1
    14    14    15    2
    15    15    16    1
    16    16    17    2
    17    10    18    1
    18    18    19    1
    19    19    20    2
    20    19    21   am
    21    21    22    1
    22    18    23    1
    23    23    24    1
    24    23    25    1
    25     6    26    1
    26    26    27    2
    27    27     3    1
    28    17    12    1
@<TRIPOS>SUBSTRUCTURE
     1 RES1        1 GROUP             0 ****  ****    0  
@<TRIPOS>MOLECULE
ligand_44
    27    28     1     0     0
SMALL
NO_CHARGES
****
Generated from the CSD

@<TRIPOS>ATOM
     1 C1     -15.9605  19.3840 -26.3272   C.3       1 RES1   0.0000
     2 O2     -15.8044  19.9481 -25.0195   O.3       1 RES1   0.0000
     3 C3     -15.6527  21.3014 -24.8582   C.2       1 RES1   0.0000
     4 C4     -15.4992  21.8552 -23.5827   C.2       1 RES1   0.0000
     5 C5     -15.3487  23.2332 -23.4260   C.2       1 RES1   0.0000
     6 C6     -15.3524  24.0494 -24.5498   C.2       1 RES1   0.0000
     7 S7     -15.1623  25.7894 -24.4077   S.o2      1 RES1   0.0000
     8 O8     -15.9041  26.4115 -25.4570   O.2       1 RES1   0.0000
     9 O9     -15.5082  26.1464 -23.0620   O.2       1 RES1   0.0000
    10 N10    -13.5676  26.1057 -24.5904   N.pl3     1 RES1   0.0000
    11 C11    -12.6744  26.6106 -23.5083   C.3       1 RES1   0.0000
    12 C12    -12.1761  25.5767 -22.5098   C.2       1 RES1   0.0000
    13 C13    -10.8069  25.3024 -22.4126   C.2       1 RES1   0.0000
    14 C14    -10.3446  24.3602 -21.4871   C.2       1 RES1   0.0000
    15 C15    -11.2525  23.6731 -20.6805   C.2       1 RES1   0.0000
    16 N16    -12.6085  23.9369 -20.7725   N.2       1 RES1   0.0000
    17 C17    -13.0672  24.8714 -21.6927   C.2       1 RES1   0.0000
    18 C18    -12.9786  26.0060 -25.9502   C.3       1 RES1   0.0000
    19 C19    -12.8585  27.3767 -26.5806   C.2       1 RES1   0.0000
    20 O20    -13.6062  27.6969 -27.4871   O.2       1 RES1   0.0000
    21 N21    -11.9253  28.1952 -26.1111   N.am      1 RES1   0.0000
    22 O22    -11.7564  29.4622 -26.6806   O.3       1 RES1   0.0000
    23 C23    -11.6111  25.3036 -25.9772   C.3       1 RES1   0.0000
    24 C24    -11.6318  23.9226 -25.3180   C.3       1 RES1   0.0000
    25 C25    -11.0662  25.1590 -27.4038   C.3       1 RES1   0.0000
    26 C26    -15.5108  23.4933 -25.8159   C.2       1 RES1   0.0000
    27 C27    -15.6642  22.1204 -25.9737   C.2       1 RES1   0.0000
@<TRIPOS>BOND
     1     1     2    1
     2     2     3    1
     3     3     4    2
     4     4     5    1
     5     5     6    2
     6     6     7    1
     7     7     8    2
     8     7     9    2
     9     7    10    1
    10    10    11    1
    11    11    12    1
    12    12    13    2
    13    13    14    1
    14    14    15    2
    15    15    16    1
    16    16    17    2
    17    10    18    1
    18    18    19    1
    19    19    20    2
    20    19    21   am
    21    21    22    1
    22    18    23    1
    23    23    24    1
    24    23    25    1
    25     6    26    1
    26    26    27    2
    27    27     3    1
    28    17    12    1
@<TRIPOS>SUBSTRUCTURE
     1 RES1        1 GROUP             0 ****  ****    0  
@<TRIPOS>MOLECULE
ligand_45
    27    28     1     0     0
SMALL
NO_CHARGES
****
Generated from the CSD

@<TRIPOS>ATOM
     1 C1     -16.0499  19.3930 -26.3180   C.3       1 RES1   0.0000
     2 O2     -15.8130  19.9490 -25.0190   O.3       1 RES1   0.0000
     3 C3     -15.6580  21.3020 -24.8580   C.2       1 RES1   0.0000
     4 C4     -15.7282  22.1641 -25.9575   C.2       1 RES1   0.0000
     5 C5     -15.5661  23.5391 -25.7865   C.2       1 RES1   0.0000
     6 C6     -15.3348  24.0430 -24.5131   C.2       1 RES1   0.0000
     7 S7     -15.1282  25.7659 -24.2432   S.o2      1 RES1   0.0000
     8 O8     -15.8558  26.4707 -25.2493   O.2       1 RES1   0.0000
     9 O9     -15.4805  26.0276 -22.8774   O.2       1 RES1   0.0000
    10 N10    -13.5291  26.0778 -24.3916   N.pl3     1 RES1   0.0000
    11 C11    -12.6599  26.5890 -23.2931   C.3       1 RES1   0.0000
    12 C12    -12.7329  28.0832 -23.0170   C.2       1 RES1   0.0000
    13 C13    -11.5561  28.8368 -22.9350   C.2       1 RES1   0.0000
    14 C14    -11.6207  30.2135 -22.6926   C.2       1 RES1   0.0000
    15 C15    -12.8583  30.8299 -22.5042   C.2       1 RES1   0.0000
    16 N16    -14.0265  30.0909 -22.5813   N.2       1 RES1   0.0000
    17 C17    -13.9618  28.7237 -22.8204   C.2       1 RES1   0.0000
    18 C18    -12.9093  25.9666 -25.7367   C.3       1 RES1   0.0000
    19 C19    -12.5363  27.3346 -26.2661   C.2       1 RES1   0.0000
    20 O20    -13.1894  27.8389 -27.1620   O.2       1 RES1   0.0000
    21 N21    -11.4918  27.9462 -25.7219   N.am      1 RES1   0.0000
    22 O22    -11.0771  29.1898 -26.2114   O.3       1 RES1   0.0000
    23 C23    -11.6780  25.0463 -25.7716   C.3       1 RES1   0.0000
    24 C24    -11.9525  23.6537 -25.1992   C.3       1 RES1   0.0000
    25 C25    -11.1143  24.8923 -27.1898   C.3       1 RES1   0.0000
    26 C26    -15.2607  23.1799 -23.4236   C.2       1 RES1   0.0000
    27 C27    -15.4188  21.8089 -23.5926   C.2       1 RES1   0.0000
@<TRIPOS>BOND
     1     1     2    1
     2     2     3    1
     3     3     4    2
     4     4     5    1
     5     5     6    2
     6     6     7    1
     7     7     8    2
     8     7     9    2
     9     7    10    1
    10    10    11    1
    11    11    12    1
    12    12    13    2
    13    13    14    1
    14    14    15    2
    15    15    16    1
    16    16    17    2
    17    10    18    1
    18    18    19    1
    19    19    20    2
    20    19    21   am
    21    21    22    1
    22    18    23    1
    23    23    24    1
    24    23    25    1
    25     6    26    1
    26    26    27    2
    27    27     3    1
    28    17    12    1
@<TRIPOS>SUBSTRUCTURE
     1 RES1        1 GROUP             0 ****  ****    0  
@<TRIPOS>MOLECULE
ligand_46
    27    28     1     0     0
SMALL
NO_CHARGES
****
Generated from the CSD

@<TRIPOS>ATOM
     1 C1     -16.0499  19.3930 -26.3180   C.3       1 RES1   0.0000
     2 O2     -15.8130  19.9490 -25.0190   O.3       1 RES1   0.0000
     3 C3     -15.6580  21.3020 -24.8580   C.2       1 RES1   0.0000
     4 C4     -15.7282  22.1641 -25.9575   C.2       1 RES1   0.0000
     5 C5     -15.5661  23.5391 -25.7865   C.2       1 RES1   0.0000
     6 C6     -15.3348  24.0430 -24.5131   C.2       1 RES1   0.0000
     7 S7     -15.1282  25.7659 -24.2432   S.o2      1 RES1   0.0000
     8 O8     -14.2945  25.9465 -23.0984   O.2       1 RES1   0.0000
     9 O9     -14.6759  26.3385 -25.4782   O.2       1 RES1   0.0000
    10 N10    -16.6164  26.3788 -23.9499   N.pl3     1 RES1   0.0000
    11 C11    -17.3039  27.3836 -24.8109   C.3       1 RES1   0.0000
    12 C12    -16.8780  28.8323 -24.6259   C.2       1 RES1   0.0000
    13 C13    -17.8452  29.8259 -24.4342   C.2       1 RES1   0.0000
    14 C14    -17.4559  31.1575 -24.2523   C.2       1 RES1   0.0000
    15 C15    -16.1034  31.4989 -24.2907   C.2       1 RES1   0.0000
    16 N16    -15.1409  30.5223 -24.4824   N.2       1 RES1   0.0000
    17 C17    -15.5281  29.2004 -24.6645   C.2       1 RES1   0.0000
    18 C18    -17.2934  26.0134 -22.6794   C.3       1 RES1   0.0000
    19 C19    -17.3594  27.2053 -21.7490   C.2       1 RES1   0.0000
    20 O20    -16.6404  27.2508 -20.7669   O.2       1 RES1   0.0000
    21 N21    -18.2142  28.1763 -22.0453   N.am      1 RES1   0.0000
    22 O22    -18.3480  29.2748 -21.1888   O.3       1 RES1   0.0000
    23 C23    -18.7043  25.4357 -22.8793   C.3       1 RES1   0.0000
    24 C24    -18.7382  24.2567 -23.8544   C.3       1 RES1   0.0000
    25 C25    -19.3393  24.9957 -21.5540   C.3       1 RES1   0.0000
    26 C26    -15.2607  23.1799 -23.4236   C.2       1 RES1   0.0000
    27 C27    -15.4188  21.8089 -23.5926   C.2       1 RES1   0.0000
@<TRIPOS>BOND
     1     1     2    1
     2     2     3    1
     3     3     4    2
     4     4     5    1
     5     5     6    2
     6     6     7    1
     7     7     8    2
     8     7     9    2
     9     7    10    1
    10    10    11    1
    11    11    12    1
    12    12    13    2
    13    13    14    1
    14    14    15    2
    15    15    16    1
    16    16    17    2
    17    10    18    1
    18    18    19    1
    19    19    20    2
    20    19    21   am
    21    21    22    1
    22    18    23    1
    23    23    24    1
    24    23    25    1
    25     6    26    1
    26    26    27    2
    27    27     3    1
    28    17    12    1
@<TRIPOS>SUBSTRUCTURE
     1 RES1        1 GROUP             0 ****  ****    0  
@<TRIPOS>MOLECULE
ligand_47
    27    28     1     0     0
SMALL
NO_CHARGES
****
Generated from the CSD

@<TRIPOS>ATOM
     1 C1     -16.0499  19.3930 -26.3180   C.3       1 RES1   0.0000
     2 O2     -15.8130  19.9490 -25.0190   O.3       1 RES1   0.0000
     3 C3     -15.6580  21.3020 -24.8580   C.2       1 RES1   0.0000
     4 C4     -15.7282  22.1641 -25.9575   C.2       1 RES1   0.0000
     5 C5     -15.5661  23.5391 -25.7865   C.2       1 RES1   0.0000
     6 C6     -15.3348  24.0430 -24.5131   C.2       1 RES1   0.0000
     7 S7     -15.1282  25.7659 -24.2432   S.o2      1 RES1   0.0000
     8 O8     -15.8558  26.4707 -25.2493   O.2       1 RES1   0.0000
     9 O9     -15.4805  26.0276 -22.8774   O.2       1 RES1   0.0000
    10 N10    -13.5291  26.0778 -24.3916   N.pl3     1 RES1   0.0000
    11 C11    -12.6612  26.5947 -23.2948   C.3       1 RES1   0.0000
    12 C12    -12.7302  28.0913 -23.0304   C.2       1 RES1   0.0000
    13 C13    -13.9729  28.7172 -22.8779   C.2       1 RES1   0.0000
    14 C14    -14.0391  30.0916 -22.6233   C.2       1 RES1   0.0000
    15 C15    -12.8659  30.8433 -22.5499   C.2       1 RES1   0.0000
    16 N16    -11.6330  30.2319 -22.7023   N.2       1 RES1   0.0000
    17 C17    -11.5678  28.8676 -22.9566   C.2       1 RES1   0.0000
    18 C18    -12.9079  25.9603 -25.7355   C.3       1 RES1   0.0000
    19 C19    -12.5340  27.3258 -26.2707   C.2       1 RES1   0.0000
    20 O20    -13.1855  27.8259 -27.1701   O.2       1 RES1   0.0000
    21 N21    -11.4903  27.9398 -25.7277   N.am      1 RES1   0.0000
    22 O22    -11.0738  29.1804 -26.2233   O.3       1 RES1   0.0000
    23 C23    -11.6770  25.0394 -25.7650   C.3       1 RES1   0.0000
    24 C24    -11.9526  23.6494 -25.1870   C.3       1 RES1   0.0000
    25 C25    -11.1116  24.8792 -27.1819   C.3       1 RES1   0.0000
    26 C26    -15.2607  23.1799 -23.4236   C.2       1 RES1   0.0000
    27 C27    -15.4188  21.8089 -23.5926   C.2       1 RES1   0.0000
@<TRIPOS>BOND
     1     1     2    1
     2     2     3    1
     3     3     4    2
     4     4     5    1
     5     5     6    2
     6     6     7    1
     7     7     8    2
     8     7     9    2
     9     7    10    1
    10    10    11    1
    11    11    12    1
    12    12    13    2
    13    13    14    1
    14    14    15    2
    15    15    16    1
    16    16    17    2
    17    10    18    1
    18    18    19    1
    19    19    20    2
    20    19    21   am
    21    21    22    1
    22    18    23    1
    23    23    24    1
    24    23    25    1
    25     6    26    1
    26    26    27    2
    27    27     3    1
    28    17    12    1
@<TRIPOS>SUBSTRUCTURE
     1 RES1        1 GROUP             0 ****  ****    0  
@<TRIPOS>MOLECULE
ligand_48
    27    28     1     0     0
SMALL
NO_CHARGES
****
Generated from the CSD

@<TRIPOS>ATOM
     1 C1     -16.0499  19.3930 -26.3180   C.3       1 RES1   0.0000
     2 O2     -15.8130  19.9490 -25.0190   O.3       1 RES1   0.0000
     3 C3     -15.6580  21.3020 -24.8580   C.2       1 RES1   0.0000
     4 C4     -15.7282  22.1641 -25.9575   C.2       1 RES1   0.0000
     5 C5     -15.5661  23.5391 -25.7865   C.2       1 RES1   0.0000
     6 C6     -15.3348  24.0430 -24.5131   C.2       1 RES1   0.0000
     7 S7     -15.1282  25.7659 -24.2432   S.o2      1 RES1   0.0000
     8 O8     -14.2945  25.9465 -23.0984   O.2       1 RES1   0.0000
     9 O9     -14.6759  26.3385 -25.4782   O.2       1 RES1   0.0000
    10 N10    -16.6164  26.3788 -23.9499   N.pl3     1 RES1   0.0000
    11 C11    -17.3013  27.3882 -24.8076   C.3       1 RES1   0.0000
    12 C12    -16.8792  28.8364 -24.6106   C.2       1 RES1   0.0000
    13 C13    -15.5209  29.1745 -24.6121   C.2       1 RES1   0.0000
    14 C14    -15.1300  30.5074 -24.4426   C.2       1 RES1   0.0000
    15 C15    -16.0946  31.4958 -24.2433   C.2       1 RES1   0.0000
    16 N16    -17.4400  31.1689 -24.2380   N.2       1 RES1   0.0000
    17 C17    -17.8275  29.8451 -24.4048   C.2       1 RES1   0.0000
    18 C18    -17.2961  26.0082 -22.6824   C.3       1 RES1   0.0000
    19 C19    -17.3639  27.1963 -21.7471   C.2       1 RES1   0.0000
    20 O20    -16.6475  27.2373 -20.7630   O.2       1 RES1   0.0000
    21 N21    -18.2173  28.1690 -22.0416   N.am      1 RES1   0.0000
    22 O22    -18.3538  29.2633 -21.1802   O.3       1 RES1   0.0000
    23 C23    -18.7067  25.4316 -22.8875   C.3       1 RES1   0.0000
    24 C24    -18.7386  24.2564 -23.8674   C.3       1 RES1   0.0000
    25 C25    -19.3446  24.9865 -21.5654   C.3       1 RES1   0.0000
    26 C26    -15.2607  23.1799 -23.4236   C.2       1 RES1   0.0000
    27 C27    -15.4188  21.8089 -23.5926   C.2       1 RES1   0.0000
@<TRIPOS>BOND
     1     1     2    1
     2     2     3    1
     3     3     4    2
     4     4     5    1
     5     5     6    2
     6     6     7    1
     7     7     8    2
     8     7     9    2
     9     7    10    1
    10    10    11    1
    11    11    12    1
    12    12    13    2
    13    13    14    1
    14    14    15    2
    15    15    16    1
    16    16    17    2
    17    10    18    1
    18    18    19    1
    19    19    20    2
    20    19    21   am
    21    21    22    1
    22    18    23    1
    23    23    24    1
    24    23    25    1
    25     6    26    1
    26    26    27    2
    27    27     3    1
    28    17    12    1
@<TRIPOS>SUBSTRUCTURE
     1 RES1        1 GROUP             0 ****  ****    0  
@<TRIPOS>MOLECULE
ligand_49
    27    28     1     0     0
SMALL
NO_CHARGES
****
Generated from the CSD

@<TRIPOS>ATOM
     1 C1     -16.0499  19.3930 -26.3180   C.3       1 RES1   0.0000
     2 O2     -15.8130  19.9490 -25.0190   O.3       1 RES1   0.0000
     3 C3     -15.6580  21.3020 -24.8580   C.2       1 RES1   0.0000
     4 C4     -15.7282  22.1641 -25.9575   C.2       1 RES1   0.0000
     5 C5     -15.5661  23.5391 -25.7865   C.2       1 RES1   0.0000
     6 C6     -15.3348  24.0430 -24.5131   C.2       1 RES1   0.0000
     7 S7     -15.1282  25.7659 -24.2432   S.o2      1 RES1   0.0000
     8 O8     -15.8558  26.4707 -25.2493   O.2       1 RES1   0.0000
     9 O9     -15.4805  26.0276 -22.8774   O.2       1 RES1   0.0000
    10 N10    -13.5291  26.0778 -24.3916   N.pl3     1 RES1   0.0000
    11 C11    -12.8877  26.6556 -25.6075   C.3       1 RES1   0.0000
    12 C12    -13.1931  28.1170 -25.8995   C.2       1 RES1   0.0000
    13 C13    -14.2920  28.4552 -26.6978   C.2       1 RES1   0.0000
    14 C14    -14.5820  29.7990 -26.9587   C.2       1 RES1   0.0000
    15 C15    -13.7579  30.8014 -26.4457   C.2       1 RES1   0.0000
    16 N16    -12.6676  30.4748 -25.6574   N.2       1 RES1   0.0000
    17 C17    -12.3791  29.1403 -25.3999   C.2       1 RES1   0.0000
    18 C18    -12.6210  25.6494 -23.2972   C.3       1 RES1   0.0000
    19 C19    -11.8913  24.3789 -23.6769   C.2       1 RES1   0.0000
    20 O20    -12.1814  23.3264 -23.1371   O.2       1 RES1   0.0000
    21 N21    -10.9451  24.4610 -24.6039   N.am      1 RES1   0.0000
    22 O22    -10.2183  23.3206 -24.9633   O.3       1 RES1   0.0000
    23 C23    -11.6031  26.7263 -22.8867   C.3       1 RES1   0.0000
    24 C24    -12.2582  28.0488 -22.4815   C.3       1 RES1   0.0000
    25 C25    -10.6972  26.2556 -21.7418   C.3       1 RES1   0.0000
    26 C26    -15.2607  23.1799 -23.4236   C.2       1 RES1   0.0000
    27 C27    -15.4188  21.8089 -23.5926   C.2       1 RES1   0.0000
@<TRIPOS>BOND
     1     1     2    1
     2     2     3    1
     3     3     4    2
     4     4     5    1
     5     5     6    2
     6     6     7    1
     7     7     8    2
     8     7     9    2
     9     7    10    1
    10    10    11    1
    11    11    12    1
    12    12    13    2
    13    13    14    1
    14    14    15    2
    15    15    16    1
    16    16    17    2
    17    10    18    1
    18    18    19    1
    19    19    20    2
    20    19    21   am
    21    21    22    1
    22    18    23    1
    23    23    24    1
    24    23    25    1
    25     6    26    1
    26    26    27    2
    27    27     3    1
    28    17    12    1
@<TRIPOS>SUBSTRUCTURE
     1 RES1        1 GROUP             0 ****  ****    0  
@<TRIPOS>MOLECULE
ligand_50
    27    28     1     0     0
SMALL
NO_CHARGES
****
Generated from the CSD

@<TRIPOS>ATOM
     1 C1     -16.0499  19.3930 -26.3180   C.3       1 RES1   0.0000
     2 O2     -15.8130  19.9490 -25.0190   O.3       1 RES1   0.0000
     3 C3     -15.6580  21.3020 -24.8580   C.2       1 RES1   0.0000
     4 C4     -15.7282  22.1641 -25.9575   C.2       1 RES1   0.0000
     5 C5     -15.5661  23.5391 -25.7865   C.2       1 RES1   0.0000
     6 C6     -15.3348  24.0430 -24.5131   C.2       1 RES1   0.0000
     7 S7     -15.1282  25.7659 -24.2432   S.o2      1 RES1   0.0000
     8 O8     -15.8558  26.4707 -25.2493   O.2       1 RES1   0.0000
     9 O9     -15.4805  26.0276 -22.8774   O.2       1 RES1   0.0000
    10 N10    -13.5291  26.0778 -24.3916   N.pl3     1 RES1   0.0000
    11 C11    -12.8873  26.6530 -25.6085   C.3       1 RES1   0.0000
    12 C12    -13.1935  28.1135 -25.9043   C.2       1 RES1   0.0000
    13 C13    -12.3767  29.1197 -25.3752   C.2       1 RES1   0.0000
    14 C14    -12.6492  30.4633 -25.6550   C.2       1 RES1   0.0000
    15 C15    -13.7530  30.8013 -26.4389   C.2       1 RES1   0.0000
    16 N16    -14.5670  29.8120 -26.9638   N.2       1 RES1   0.0000
    17 C17    -14.2970  28.4780 -26.6844   C.2       1 RES1   0.0000
    18 C18    -12.6214  25.6521 -23.2958   C.3       1 RES1   0.0000
    19 C19    -11.8767  24.3917 -23.6803   C.2       1 RES1   0.0000
    20 O20    -12.1651  23.3309 -23.1559   O.2       1 RES1   0.0000
    21 N21    -10.9195  24.4917 -24.5941   N.am      1 RES1   0.0000
    22 O22    -10.1821  23.3602 -24.9602   O.3       1 RES1   0.0000
    23 C23    -11.6167  26.7370 -22.8740   C.3       1 RES1   0.0000
    24 C24    -12.2883  28.0439 -22.4460   C.3       1 RES1   0.0000
    25 C25    -10.6987  26.2621 -21.7405   C.3       1 RES1   0.0000
    26 C26    -15.2607  23.1799 -23.4236   C.2       1 RES1   0.0000
    27 C27    -15.4188  21.8089 -23.5926   C.2       1 RES1   0.0000
@<TRIPOS>BOND
     1     1     2    1
     2     2     3    1
     3     3     4    2
     4     4     5    1
     5     5     6    2
     6     6     7    1
     7     7     8    2
     8     7     9    2
     9     7    10    1
    10    10    11    1
    11    11    12    1
    12    12    13    2
    13    13    14    1
    14    14    15    2
    15    15    16    1
    16    16    17    2
    17    10    18    1
    18    18    19    1
    19    19    20    2
    20    19    21   am
    21    21    22    1
    22    18    23    1
    23    23    24    1
    24    23    25    1
    25     6    26    1
    26    26    27    2
    27    27     3    1
    28    17    12    1
@<TRIPOS>SUBSTRUCTURE
     1 RES1        1 GROUP             0 ****  ****    0  
@<TRIPOS>MOLECULE
ligand_51
    27    28     1     0     0
SMALL
NO_CHARGES
****
Generated from the CSD

@<TRIPOS>ATOM
     1 C1     -16.0499  19.3930 -26.3180   C.3       1 RES1   0.0000
     2 O2     -15.8130  19.9490 -25.0190   O.3       1 RES1   0.0000
     3 C3     -15.6580  21.3020 -24.8580   C.2       1 RES1   0.0000
     4 C4     -15.7282  22.1641 -25.9575   C.2       1 RES1   0.0000
     5 C5     -15.5661  23.5391 -25.7865   C.2       1 RES1   0.0000
     6 C6     -15.3348  24.0430 -24.5131   C.2       1 RES1   0.0000
     7 S7     -15.1282  25.7659 -24.2432   S.o2      1 RES1   0.0000
     8 O8     -14.2945  25.9465 -23.0984   O.2       1 RES1   0.0000
     9 O9     -14.6759  26.3385 -25.4782   O.2       1 RES1   0.0000
    10 N10    -16.6164  26.3788 -23.9499   N.pl3     1 RES1   0.0000
    11 C11    -17.1507  26.6947 -22.5940   C.3       1 RES1   0.0000
    12 C12    -16.5270  27.8881 -21.8861   C.2       1 RES1   0.0000
    13 C13    -15.4092  27.7064 -21.0633   C.2       1 RES1   0.0000
    14 C14    -14.8265  28.8040 -20.4199   C.2       1 RES1   0.0000
    15 C15    -15.3779  30.0762 -20.5765   C.2       1 RES1   0.0000
    16 N16    -16.4849  30.2635 -21.3867   N.2       1 RES1   0.0000
    17 C17    -17.0641  29.1733 -22.0240   C.2       1 RES1   0.0000
    18 C18    -17.5587  26.5222 -25.0889   C.3       1 RES1   0.0000
    19 C19    -18.5752  25.4008 -25.0839   C.2       1 RES1   0.0000
    20 O20    -18.5166  24.5230 -25.9262   O.2       1 RES1   0.0000
    21 N21    -19.5098  25.4156 -24.1418   N.am      1 RES1   0.0000
    22 O22    -20.4928  24.4200 -24.1170   O.3       1 RES1   0.0000
    23 C23    -18.2850  27.8772 -25.1185   C.3       1 RES1   0.0000
    24 C24    -17.3282  29.0715 -25.1293   C.3       1 RES1   0.0000
    25 C25    -19.2331  27.9962 -26.3184   C.3       1 RES1   0.0000
    26 C26    -15.2607  23.1799 -23.4236   C.2       1 RES1   0.0000
    27 C27    -15.4188  21.8089 -23.5926   C.2       1 RES1   0.0000
@<TRIPOS>BOND
     1     1     2    1
     2     2     3    1
     3     3     4    2
     4     4     5    1
     5     5     6    2
     6     6     7    1
     7     7     8    2
     8     7     9    2
     9     7    10    1
    10    10    11    1
    11    11    12    1
    12    12    13    2
    13    13    14    1
    14    14    15    2
    15    15    16    1
    16    16    17    2
    17    10    18    1
    18    18    19    1
    19    19    20    2
    20    19    21   am
    21    21    22    1
    22    18    23    1
    23    23    24    1
    24    23    25    1
    25     6    26    1
    26    26    27    2
    27    27     3    1
    28    17    12    1
@<TRIPOS>SUBSTRUCTURE
     1 RES1        1 GROUP             0 ****  ****    0  
@<TRIPOS>MOLECULE
ligand_52
    27    28     1     0     0
SMALL
NO_CHARGES
****
Generated from the CSD

@<TRIPOS>ATOM
     1 C1     -16.0499  19.3930 -26.3180   C.3       1 RES1   0.0000
     2 O2     -15.8130  19.9490 -25.0190   O.3       1 RES1   0.0000
     3 C3     -15.6580  21.3020 -24.8580   C.2       1 RES1   0.0000
     4 C4     -15.7282  22.1641 -25.9575   C.2       1 RES1   0.0000
     5 C5     -15.5661  23.5391 -25.7865   C.2       1 RES1   0.0000
     6 C6     -15.3348  24.0430 -24.5131   C.2       1 RES1   0.0000
     7 S7     -15.1282  25.7659 -24.2432   S.o2      1 RES1   0.0000
     8 O8     -14.2945  25.9465 -23.0984   O.2       1 RES1   0.0000
     9 O9     -14.6759  26.3385 -25.4782   O.2       1 RES1   0.0000
    10 N10    -16.6164  26.3788 -23.9499   N.pl3     1 RES1   0.0000
    11 C11    -17.1517  26.6921 -22.5938   C.3       1 RES1   0.0000
    12 C12    -16.5275  27.8832 -21.8825   C.2       1 RES1   0.0000
    13 C13    -17.0703  29.1621 -22.0537   C.2       1 RES1   0.0000
    14 C14    -16.5052  30.2578 -21.3916   C.2       1 RES1   0.0000
    15 C15    -15.3823  30.0792 -20.5828   C.2       1 RES1   0.0000
    16 N16    -14.8381  28.8178 -20.4106   N.2       1 RES1   0.0000
    17 C17    -15.3985  27.7304 -21.0693   C.2       1 RES1   0.0000
    18 C18    -17.5577  26.5250 -25.0894   C.3       1 RES1   0.0000
    19 C19    -18.5865  25.4149 -25.0764   C.2       1 RES1   0.0000
    20 O20    -18.5319  24.5253 -25.9064   O.2       1 RES1   0.0000
    21 N21    -19.5272  25.4526 -24.1410   N.am      1 RES1   0.0000
    22 O22    -20.5186  24.4657 -24.1069   O.3       1 RES1   0.0000
    23 C23    -18.2690  27.8877 -25.1277   C.3       1 RES1   0.0000
    24 C24    -17.2990  29.0708 -25.1657   C.3       1 RES1   0.0000
    25 C25    -19.2303  28.0020 -26.3176   C.3       1 RES1   0.0000
    26 C26    -15.2607  23.1799 -23.4236   C.2       1 RES1   0.0000
    27 C27    -15.4188  21.8089 -23.5926   C.2       1 RES1   0.0000
@<TRIPOS>BOND
     1     1     2    1
     2     2     3    1
     3     3     4    2
     4     4     5    1
     5     5     6    2
     6     6     7    1
     7     7     8    2
     8     7     9    2
     9     7    10    1
    10    10    11    1
    11    11    12    1
    12    12    13    2
    13    13    14    1
    14    14    15    2
    15    15    16    1
    16    16    17    2
    17    10    18    1
    18    18    19    1
    19    19    20    2
    20    19    21   am
    21    21    22    1
    22    18    23    1
    23    23    24    1
    24    23    25    1
    25     6    26    1
    26    26    27    2
    27    27     3    1
    28    17    12    1
@<TRIPOS>SUBSTRUCTURE
     1 RES1        1 GROUP             0 ****  ****    0  
@<TRIPOS>MOLECULE
ligand_53
    27    28     1     0     0
SMALL
NO_CHARGES
****
Generated from the CSD

@<TRIPOS>ATOM
     1 C1     -16.1074  19.3983 -26.3080   C.3       1 RES1   0.0000
     2 O2     -15.8058  19.9483 -25.0199   O.3       1 RES1   0.0000
     3 C3     -15.6535  21.3015 -24.8584   C.2       1 RES1   0.0000
     4 C4     -15.7896  22.1698 -25.9468   C.2       1 RES1   0.0000
     5 C5     -15.6299  23.5450 -25.7756   C.2       1 RES1   0.0000
     6 C6     -15.3348  24.0430 -24.5131   C.2       1 RES1   0.0000
     7 S7     -15.1282  25.7659 -24.2432   S.o2      1 RES1   0.0000
     8 O8     -15.8558  26.4707 -25.2493   O.2       1 RES1   0.0000
     9 O9     -15.4805  26.0276 -22.8774   O.2       1 RES1   0.0000
    10 N10    -13.5291  26.0778 -24.3916   N.pl3     1 RES1   0.0000
    11 C11    -12.6354  26.4758 -23.2663   C.3       1 RES1   0.0000
    12 C12    -12.3203  25.3956 -22.2425   C.2       1 RES1   0.0000
    13 C13    -12.6997  25.5676 -20.9061   C.2       1 RES1   0.0000
    14 C14    -12.4213  24.5707 -19.9645   C.2       1 RES1   0.0000
    15 C15    -11.7396  23.4168 -20.3530   C.2       1 RES1   0.0000
    16 N16    -11.3588  23.2405 -21.6724   N.2       1 RES1   0.0000
    17 C17    -11.6340  24.2314 -22.6067   C.2       1 RES1   0.0000
    18 C18    -12.9347  26.0895 -25.7526   C.3       1 RES1   0.0000
    19 C19    -12.2948  27.4301 -26.0429   C.2       1 RES1   0.0000
    20 O20    -11.0827  27.5215 -26.1197   O.2       1 RES1   0.0000
    21 N21    -13.0948  28.4760 -26.2079   N.am      1 RES1   0.0000
    22 O22    -12.5496  29.7564 -26.3548   O.3       1 RES1   0.0000
    23 C23    -11.9099  24.9670 -25.9851   C.3       1 RES1   0.0000
    24 C24    -12.4743  23.5716 -25.7088   C.3       1 RES1   0.0000
    25 C25    -11.3401  24.9936 -27.4090   C.3       1 RES1   0.0000
    26 C26    -15.1953  23.1738 -23.4349   C.2       1 RES1   0.0000
    27 C27    -15.3509  21.8026 -23.6043   C.2       1 RES1   0.0000
@<TRIPOS>BOND
     1     1     2    1
     2     2     3    1
     3     3     4    2
     4     4     5    1
     5     5     6    2
     6     6     7    1
     7     7     8    2
     8     7     9    2
     9     7    10    1
    10    10    11    1
    11    11    12    1
    12    12    13    2
    13    13    14    1
    14    14    15    2
    15    15    16    1
    16    16    17    2
    17    10    18    1
    18    18    19    1
    19    19    20    2
    20    19    21   am
    21    21    22    1
    22    18    23    1
    23    23    24    1
    24    23    25    1
    25     6    26    1
    26    26    27    2
    27    27     3    1
    28    17    12    1
@<TRIPOS>SUBSTRUCTURE
     1 RES1        1 GROUP             0 ****  ****    0  
@<TRIPOS>MOLECULE
ligand_54
    27    28     1     0     0
SMALL
NO_CHARGES
****
Generated from the CSD

@<TRIPOS>ATOM
     1 C1     -16.1240  19.4001 -26.3059   C.3       1 RES1   0.0000
     2 O2     -15.8202  19.9497 -25.0181   O.3       1 RES1   0.0000
     3 C3     -15.6625  21.3025 -24.8576   C.2       1 RES1   0.0000
     4 C4     -15.3651  21.8421 -23.6017   C.2       1 RES1   0.0000
     5 C5     -15.2094  23.2196 -23.4453   C.2       1 RES1   0.0000
     6 C6     -15.3524  24.0494 -24.5498   C.2       1 RES1   0.0000
     7 S7     -15.1623  25.7894 -24.4077   S.o2      1 RES1   0.0000
     8 O8     -14.3229  26.0613 -23.2853   O.2       1 RES1   0.0000
     9 O9     -14.7244  26.2750 -25.6845   O.2       1 RES1   0.0000
    10 N10    -16.6549  26.4069 -24.1487   N.pl3     1 RES1   0.0000
    11 C11    -17.4072  27.2439 -25.1270   C.3       1 RES1   0.0000
    12 C12    -17.9280  26.5286 -26.3645   C.2       1 RES1   0.0000
    13 C13    -17.4845  26.9164 -27.6342   C.2       1 RES1   0.0000
    14 C14    -17.9531  26.2527 -28.7735   C.2       1 RES1   0.0000
    15 C15    -18.8850  25.2221 -28.6449   C.2       1 RES1   0.0000
    16 N16    -19.3304  24.8344 -27.3926   N.2       1 RES1   0.0000
    17 C17    -18.8661  25.4948 -26.2618   C.2       1 RES1   0.0000
    18 C18    -17.2677  26.2353 -22.8066   C.3       1 RES1   0.0000
    19 C19    -17.6000  27.5801 -22.1968   C.2       1 RES1   0.0000
    20 O20    -18.7627  27.9193 -22.0687   O.2       1 RES1   0.0000
    21 N21    -16.5915  28.3539 -21.8153   N.am      1 RES1   0.0000
    22 O22    -16.8410  29.6538 -21.3614   O.3       1 RES1   0.0000
    23 C23    -18.5228  25.3472 -22.8134   C.3       1 RES1   0.0000
    24 C24    -18.2768  23.9640 -23.4204   C.3       1 RES1   0.0000
    25 C25    -19.1100  25.1695 -21.4075   C.3       1 RES1   0.0000
    26 C26    -15.6537  23.5073 -25.7959   C.2       1 RES1   0.0000
    27 C27    -15.8124  22.1349 -25.9530   C.2       1 RES1   0.0000
@<TRIPOS>BOND
     1     1     2    1
     2     2     3    1
     3     3     4    2
     4     4     5    1
     5     5     6    2
     6     6     7    1
     7     7     8    2
     8     7     9    2
     9     7    10    1
    10    10    11    1
    11    11    12    1
    12    12    13    2
    13    13    14    1
    14    14    15    2
    15    15    16    1
    16    16    17    2
    17    10    18    1
    18    18    19    1
    19    19    20    2
    20    19    21   am
    21    21    22    1
    22    18    23    1
    23    23    24    1
    24    23    25    1
    25     6    26    1
    26    26    27    2
    27    27     3    1
    28    17    12    1
@<TRIPOS>SUBSTRUCTURE
     1 RES1        1 GROUP             0 ****  ****    0  
@<TRIPOS>MOLECULE
ligand_55
    27    28     1     0     0
SMALL
NO_CHARGES
****
Generated from the CSD

@<TRIPOS>ATOM
     1 C1     -16.1295  19.4006 -26.3048   C.3       1 RES1   0.0000
     2 O2     -15.8208  19.9498 -25.0180   O.3       1 RES1   0.0000
     3 C3     -15.6629  21.3025 -24.8575   C.2       1 RES1   0.0000
     4 C4     -15.3605  21.8417 -23.6026   C.2       1 RES1   0.0000
     5 C5     -15.2047  23.2191 -23.4462   C.2       1 RES1   0.0000
     6 C6     -15.3524  24.0494 -24.5498   C.2       1 RES1   0.0000
     7 S7     -15.1623  25.7894 -24.4077   S.o2      1 RES1   0.0000
     8 O8     -14.3229  26.0613 -23.2853   O.2       1 RES1   0.0000
     9 O9     -14.7244  26.2750 -25.6845   O.2       1 RES1   0.0000
    10 N10    -16.6549  26.4069 -24.1487   N.pl3     1 RES1   0.0000
    11 C11    -17.4075  27.2433 -25.1273   C.3       1 RES1   0.0000
    12 C12    -17.9088  26.5320 -26.3752   C.2       1 RES1   0.0000
    13 C13    -18.8316  25.4858 -26.2599   C.2       1 RES1   0.0000
    14 C14    -19.3031  24.8374 -27.4068   C.2       1 RES1   0.0000
    15 C15    -18.8309  25.2156 -28.6642   C.2       1 RES1   0.0000
    16 N16    -17.9163  26.2478 -28.7862   N.2       1 RES1   0.0000
    17 C17    -17.4472  26.8903 -27.6471   C.2       1 RES1   0.0000
    18 C18    -17.2673  26.2361 -22.8064   C.3       1 RES1   0.0000
    19 C19    -17.6037  27.5810 -22.1992   C.2       1 RES1   0.0000
    20 O20    -18.7675  27.9177 -22.0736   O.2       1 RES1   0.0000
    21 N21    -16.5977  28.3577 -21.8172   N.am      1 RES1   0.0000
    22 O22    -16.8510  29.6577 -21.3657   O.3       1 RES1   0.0000
    23 C23    -18.5198  25.3442 -22.8116   C.3       1 RES1   0.0000
    24 C24    -18.2667  23.9565 -23.4054   C.3       1 RES1   0.0000
    25 C25    -19.1133  25.1768 -21.4071   C.3       1 RES1   0.0000
    26 C26    -15.6585  23.5077 -25.7949   C.2       1 RES1   0.0000
    27 C27    -15.8173  22.1354 -25.9520   C.2       1 RES1   0.0000
@<TRIPOS>BOND
     1     1     2    1
     2     2     3    1
     3     3     4    2
     4     4     5    1
     5     5     6    2
     6     6     7    1
     7     7     8    2
     8     7     9    2
     9     7    10    1
    10    10    11    1
    11    11    12    1
    12    12    13    2
    13    13    14    1
    14    14    15    2
    15    15    16    1
    16    16    17    2
    17    10    18    1
    18    18    19    1
    19    19    20    2
    20    19    21   am
    21    21    22    1
    22    18    23    1
    23    23    24    1
    24    23    25    1
    25     6    26    1
    26    26    27    2
    27    27     3    1
    28    17    12    1
@<TRIPOS>SUBSTRUCTURE
     1 RES1        1 GROUP             0 ****  ****    0  
@<TRIPOS>MOLECULE
ligand_56
    27    28     1     0     0
SMALL
NO_CHARGES
****
Generated from the CSD

@<TRIPOS>ATOM
     1 C1     -16.0663  19.3946 -26.3155   C.3       1 RES1   0.0000
     2 O2     -15.8109  19.9488 -25.0192   O.3       1 RES1   0.0000
     3 C3     -15.6567  21.3019 -24.8581   C.2       1 RES1   0.0000
     4 C4     -15.7457  22.1658 -25.9548   C.2       1 RES1   0.0000
     5 C5     -15.5843  23.5408 -25.7838   C.2       1 RES1   0.0000
     6 C6     -15.3348  24.0430 -24.5131   C.2       1 RES1   0.0000
     7 S7     -15.1282  25.7659 -24.2432   S.o2      1 RES1   0.0000
     8 O8     -15.8558  26.4707 -25.2493   O.2       1 RES1   0.0000
     9 O9     -15.4805  26.0276 -22.8774   O.2       1 RES1   0.0000
    10 N10    -13.5291  26.0778 -24.3916   N.pl3     1 RES1   0.0000
    11 C11    -12.8867  26.6496 -25.6098   C.3       1 RES1   0.0000
    12 C12    -12.7660  25.7187 -26.8070   C.2       1 RES1   0.0000
    13 C13    -13.8141  25.6287 -27.7304   C.2       1 RES1   0.0000
    14 C14    -13.7012  24.7819 -28.8387   C.2       1 RES1   0.0000
    15 C15    -12.5542  24.0053 -29.0076   C.2       1 RES1   0.0000
    16 N16    -11.5144  24.0869 -28.0971   N.2       1 RES1   0.0000
    17 C17    -11.6276  24.9266 -26.9960   C.2       1 RES1   0.0000
    18 C18    -12.6219  25.6556 -23.2940   C.3       1 RES1   0.0000
    19 C19    -11.4851  24.8159 -23.8358   C.2       1 RES1   0.0000
    20 O20    -10.3517  25.2616 -23.8474   O.2       1 RES1   0.0000
    21 N21    -11.7717  23.6005 -24.2851   N.am      1 RES1   0.0000
    22 O22    -10.7804  22.8340 -24.9078   O.3       1 RES1   0.0000
    23 C23    -12.0540  26.8302 -22.4804   C.3       1 RES1   0.0000
    24 C24    -13.1353  27.7833 -21.9662   C.3       1 RES1   0.0000
    25 C25    -11.2133  26.3525 -21.2896   C.3       1 RES1   0.0000
    26 C26    -15.2421  23.1781 -23.4265   C.2       1 RES1   0.0000
    27 C27    -15.3995  21.8071 -23.5956   C.2       1 RES1   0.0000
@<TRIPOS>BOND
     1     1     2    1
     2     2     3    1
     3     3     4    2
     4     4     5    1
     5     5     6    2
     6     6     7    1
     7     7     8    2
     8     7     9    2
     9     7    10    1
    10    10    11    1
    11    11    12    1
    12    12    13    2
    13    13    14    1
    14    14    15    2
    15    15    16    1
    16    16    17    2
    17    10    18    1
    18    18    19    1
    19    19    20    2
    20    19    21   am
    21    21    22    1
    22    18    23    1
    23    23    24    1
    24    23    25    1
    25     6    26    1
    26    26    27    2
    27    27     3    1
    28    17    12    1
@<TRIPOS>SUBSTRUCTURE
     1 RES1        1 GROUP             0 ****  ****    0  
@<TRIPOS>MOLECULE
ligand_57
    27    28     1     0     0
SMALL
NO_CHARGES
****
Generated from the CSD

@<TRIPOS>ATOM
     1 C1     -16.0778  19.3956 -26.3136   C.3       1 RES1   0.0000
     2 O2     -15.8095  19.9486 -25.0194   O.3       1 RES1   0.0000
     3 C3     -15.6558  21.3018 -24.8582   C.2       1 RES1   0.0000
     4 C4     -15.7580  22.1669 -25.9527   C.2       1 RES1   0.0000
     5 C5     -15.5971  23.5421 -25.7817   C.2       1 RES1   0.0000
     6 C6     -15.3348  24.0430 -24.5131   C.2       1 RES1   0.0000
     7 S7     -15.1282  25.7659 -24.2432   S.o2      1 RES1   0.0000
     8 O8     -14.2945  25.9465 -23.0984   O.2       1 RES1   0.0000
     9 O9     -14.6759  26.3385 -25.4782   O.2       1 RES1   0.0000
    10 N10    -16.6164  26.3788 -23.9499   N.pl3     1 RES1   0.0000
    11 C11    -17.1495  26.6976 -22.5942   C.3       1 RES1   0.0000
    12 C12    -17.5213  25.5089 -21.7205   C.2       1 RES1   0.0000
    13 C13    -16.5543  24.9146 -20.9013   C.2       1 RES1   0.0000
    14 C14    -16.8962  23.8284 -20.0880   C.2       1 RES1   0.0000
    15 C15    -18.1953  23.3197 -20.1156   C.2       1 RES1   0.0000
    16 N16    -19.1566  23.9005 -20.9252   N.2       1 RES1   0.0000
    17 C17    -18.8163  24.9780 -21.7337   C.2       1 RES1   0.0000
    18 C18    -17.5599  26.5192 -25.0884   C.3       1 RES1   0.0000
    19 C19    -18.8761  25.8403 -24.7763   C.2       1 RES1   0.0000
    20 O20    -19.8768  26.5094 -24.5915   O.2       1 RES1   0.0000
    21 N21    -18.8908  24.5146 -24.7166   N.am      1 RES1   0.0000
    22 O22    -20.0515  23.8462 -24.3113   O.3       1 RES1   0.0000
    23 C23    -17.8162  27.9791 -25.4973   C.3       1 RES1   0.0000
    24 C24    -16.5287  28.7688 -25.7439   C.3       1 RES1   0.0000
    25 C25    -18.7015  28.0803 -26.7458   C.3       1 RES1   0.0000
    26 C26    -15.2290  23.1769 -23.4287   C.2       1 RES1   0.0000
    27 C27    -15.3858  21.8058 -23.5978   C.2       1 RES1   0.0000
@<TRIPOS>BOND
     1     1     2    1
     2     2     3    1
     3     3     4    2
     4     4     5    1
     5     5     6    2
     6     6     7    1
     7     7     8    2
     8     7     9    2
     9     7    10    1
    10    10    11    1
    11    11    12    1
    12    12    13    2
    13    13    14    1
    14    14    15    2
    15    15    16    1
    16    16    17    2
    17    10    18    1
    18    18    19    1
    19    19    20    2
    20    19    21   am
    21    21    22    1
    22    18    23    1
    23    23    24    1
    24    23    25    1
    25     6    26    1
    26    26    27    2
    27    27     3    1
    28    17    12    1
@<TRIPOS>SUBSTRUCTURE
     1 RES1        1 GROUP             0 ****  ****    0  
@<TRIPOS>MOLECULE
ligand_58
    27    28     1     0     0
SMALL
NO_CHARGES
****
Generated from the CSD

@<TRIPOS>ATOM
     1 C1     -16.0604  19.3940 -26.3164   C.3       1 RES1   0.0000
     2 O2     -15.8117  19.9489 -25.0191   O.3       1 RES1   0.0000
     3 C3     -15.6572  21.3019 -24.8581   C.2       1 RES1   0.0000
     4 C4     -15.7394  22.1652 -25.9558   C.2       1 RES1   0.0000
     5 C5     -15.5778  23.5402 -25.7848   C.2       1 RES1   0.0000
     6 C6     -15.3348  24.0430 -24.5131   C.2       1 RES1   0.0000
     7 S7     -15.1282  25.7659 -24.2432   S.o2      1 RES1   0.0000
     8 O8     -15.8558  26.4707 -25.2493   O.2       1 RES1   0.0000
     9 O9     -15.4805  26.0276 -22.8774   O.2       1 RES1   0.0000
    10 N10    -13.5291  26.0778 -24.3916   N.pl3     1 RES1   0.0000
    11 C11    -12.8857  26.6429 -25.6123   C.3       1 RES1   0.0000
    12 C12    -12.7616  25.7048 -26.8034   C.2       1 RES1   0.0000
    13 C13    -11.6002  24.9422 -26.9741   C.2       1 RES1   0.0000
    14 C14    -11.4880  24.0699 -28.0625   C.2       1 RES1   0.0000
    15 C15    -12.5233  23.9819 -28.9938   C.2       1 RES1   0.0000
    16 N16    -13.6740  24.7348 -28.8333   N.2       1 RES1   0.0000
    17 C17    -13.7844  25.6019 -27.7534   C.2       1 RES1   0.0000
    18 C18    -12.6229  25.6624 -23.2906   C.3       1 RES1   0.0000
    19 C19    -11.4845  24.8211 -23.8265   C.2       1 RES1   0.0000
    20 O20    -10.3514  25.2678 -23.8384   O.2       1 RES1   0.0000
    21 N21    -11.7693  23.6033 -24.2703   N.am      1 RES1   0.0000
    22 O22    -10.7761  22.8345 -24.8873   O.3       1 RES1   0.0000
    23 C23    -12.0573  26.8418 -22.4824   C.3       1 RES1   0.0000
    24 C24    -13.1403  27.7971 -21.9758   C.3       1 RES1   0.0000
    25 C25    -11.2188  26.3713 -21.2872   C.3       1 RES1   0.0000
    26 C26    -15.2488  23.1788 -23.4254   C.2       1 RES1   0.0000
    27 C27    -15.4064  21.8077 -23.5945   C.2       1 RES1   0.0000
@<TRIPOS>BOND
     1     1     2    1
     2     2     3    1
     3     3     4    2
     4     4     5    1
     5     5     6    2
     6     6     7    1
     7     7     8    2
     8     7     9    2
     9     7    10    1
    10    10    11    1
    11    11    12    1
    12    12    13    2
    13    13    14    1
    14    14    15    2
    15    15    16    1
    16    16    17    2
    17    10    18    1
    18    18    19    1
    19    19    20    2
    20    19    21   am
    21    21    22    1
    22    18    23    1
    23    23    24    1
    24    23    25    1
    25     6    26    1
    26    26    27    2
    27    27     3    1
    28    17    12    1
@<TRIPOS>SUBSTRUCTURE
     1 RES1        1 GROUP             0 ****  ****    0  
@<TRIPOS>MOLECULE
ligand_59
    27    28     1     0     0
SMALL
NO_CHARGES
****
Generated from the CSD

@<TRIPOS>ATOM
     1 C1     -16.0716  19.3951 -26.3146   C.3       1 RES1   0.0000
     2 O2     -15.8103  19.9487 -25.0193   O.3       1 RES1   0.0000
     3 C3     -15.6563  21.3018 -24.8581   C.2       1 RES1   0.0000
     4 C4     -15.7514  22.1663 -25.9538   C.2       1 RES1   0.0000
     5 C5     -15.5903  23.5414 -25.7828   C.2       1 RES1   0.0000
     6 C6     -15.3348  24.0430 -24.5131   C.2       1 RES1   0.0000
     7 S7     -15.1282  25.7659 -24.2432   S.o2      1 RES1   0.0000
     8 O8     -14.2945  25.9465 -23.0984   O.2       1 RES1   0.0000
     9 O9     -14.6759  26.3385 -25.4782   O.2       1 RES1   0.0000
    10 N10    -16.6164  26.3788 -23.9499   N.pl3     1 RES1   0.0000
    11 C11    -17.1521  26.6910 -22.5937   C.3       1 RES1   0.0000
    12 C12    -17.5286  25.4982 -21.7277   C.2       1 RES1   0.0000
    13 C13    -18.8383  25.0047 -21.7495   C.2       1 RES1   0.0000
    14 C14    -19.1846  23.9006 -20.9627   C.2       1 RES1   0.0000
    15 C15    -18.2301  23.3093 -20.1342   C.2       1 RES1   0.0000
    16 N16    -16.9332  23.7932 -20.1052   N.2       1 RES1   0.0000
    17 C17    -16.5902  24.8905 -20.8855   C.2       1 RES1   0.0000
    18 C18    -17.5573  26.5262 -25.0896   C.3       1 RES1   0.0000
    19 C19    -18.8750  25.8473 -24.7839   C.2       1 RES1   0.0000
    20 O20    -19.8754  26.5167 -24.5983   O.2       1 RES1   0.0000
    21 N21    -18.8913  24.5213 -24.7303   N.am      1 RES1   0.0000
    22 O22    -20.0535  23.8525 -24.3302   O.3       1 RES1   0.0000
    23 C23    -17.8109  27.9885 -25.4917   C.3       1 RES1   0.0000
    24 C24    -16.5219  28.7770 -25.7346   C.3       1 RES1   0.0000
    25 C25    -18.6960  28.0972 -26.7398   C.3       1 RES1   0.0000
    26 C26    -15.2360  23.1775 -23.4275   C.2       1 RES1   0.0000
    27 C27    -15.3931  21.8065 -23.5966   C.2       1 RES1   0.0000
@<TRIPOS>BOND
     1     1     2    1
     2     2     3    1
     3     3     4    2
     4     4     5    1
     5     5     6    2
     6     6     7    1
     7     7     8    2
     8     7     9    2
     9     7    10    1
    10    10    11    1
    11    11    12    1
    12    12    13    2
    13    13    14    1
    14    14    15    2
    15    15    16    1
    16    16    17    2
    17    10    18    1
    18    18    19    1
    19    19    20    2
    20    19    21   am
    21    21    22    1
    22    18    23    1
    23    23    24    1
    24    23    25    1
    25     6    26    1
    26    26    27    2
    27    27     3    1
    28    17    12    1
@<TRIPOS>SUBSTRUCTURE
     1 RES1        1 GROUP             0 ****  ****    0  
@<TRIPOS>MOLECULE
ligand_60
    27    28     1     0     0
SMALL
NO_CHARGES
****
Generated from the CSD

@<TRIPOS>ATOM
     1 C1     -16.0499  19.3930 -26.3180   C.3       1 RES1   0.0000
     2 O2     -15.8130  19.9490 -25.0190   O.3       1 RES1   0.0000
     3 C3     -15.6580  21.3020 -24.8580   C.2       1 RES1   0.0000
     4 C4     -15.7282  22.1641 -25.9575   C.2       1 RES1   0.0000
     5 C5     -15.5661  23.5391 -25.7865   C.2       1 RES1   0.0000
     6 C6     -15.3348  24.0430 -24.5131   C.2       1 RES1   0.0000
     7 S7     -15.1282  25.7659 -24.2432   S.o2      1 RES1   0.0000
     8 O8     -15.8558  26.4707 -25.2493   O.2       1 RES1   0.0000
     9 O9     -15.4805  26.0276 -22.8774   O.2       1 RES1   0.0000
    10 N10    -13.5291  26.0778 -24.3916   N.pl3     1 RES1   0.0000
    11 C11    -12.6338  26.4685 -23.2649   C.3       1 RES1   0.0000
    12 C12    -12.9373  27.7999 -22.5946   C.2       1 RES1   0.0000
    13 C13    -13.2656  27.8385 -21.2343   C.2       1 RES1   0.0000
    14 C14    -13.5341  29.0629 -20.6124   C.2       1 RES1   0.0000
    15 C15    -13.5024  30.2432 -21.3560   C.2       1 RES1   0.0000
    16 N16    -13.1811  30.2130 -22.7024   N.2       1 RES1   0.0000
    17 C17    -12.9161  28.9969 -23.3198   C.2       1 RES1   0.0000
    18 C18    -12.9363  26.0975 -25.7532   C.3       1 RES1   0.0000
    19 C19    -12.6203  27.5160 -26.1762   C.2       1 RES1   0.0000
    20 O20    -11.4618  27.8839 -26.2531   O.2       1 RES1   0.0000
    21 N21    -13.6379  28.3210 -26.4546   N.am      1 RES1   0.0000
    22 O22    -13.4043  29.6731 -26.7291   O.3       1 RES1   0.0000
    23 C23    -11.6767  25.2259 -25.8876   C.3       1 RES1   0.0000
    24 C24    -11.8829  23.7920 -25.3939   C.3       1 RES1   0.0000
    25 C25    -11.1603  25.1791 -27.3312   C.3       1 RES1   0.0000
    26 C26    -15.2607  23.1799 -23.4236   C.2       1 RES1   0.0000
    27 C27    -15.4188  21.8089 -23.5926   C.2       1 RES1   0.0000
@<TRIPOS>BOND
     1     1     2    1
     2     2     3    1
     3     3     4    2
     4     4     5    1
     5     5     6    2
     6     6     7    1
     7     7     8    2
     8     7     9    2
     9     7    10    1
    10    10    11    1
    11    11    12    1
    12    12    13    2
    13    13    14    1
    14    14    15    2
    15    15    16    1
    16    16    17    2
    17    10    18    1
    18    18    19    1
    19    19    20    2
    20    19    21   am
    21    21    22    1
    22    18    23    1
    23    23    24    1
    24    23    25    1
    25     6    26    1
    26    26    27    2
    27    27     3    1
    28    17    12    1
@<TRIPOS>SUBSTRUCTURE
     1 RES1        1 GROUP             0 ****  ****    0  
@<TRIPOS>MOLECULE
ligand_61
    27    28     1     0     0
SMALL
NO_CHARGES
****
Generated from the CSD

@<TRIPOS>ATOM
     1 C1     -16.0499  19.3930 -26.3180   C.3       1 RES1   0.0000
     2 O2     -15.8130  19.9490 -25.0190   O.3       1 RES1   0.0000
     3 C3     -15.6580  21.3020 -24.8580   C.2       1 RES1   0.0000
     4 C4     -15.7282  22.1641 -25.9575   C.2       1 RES1   0.0000
     5 C5     -15.5661  23.5391 -25.7865   C.2       1 RES1   0.0000
     6 C6     -15.3348  24.0430 -24.5131   C.2       1 RES1   0.0000
     7 S7     -15.1282  25.7659 -24.2432   S.o2      1 RES1   0.0000
     8 O8     -14.2945  25.9465 -23.0984   O.2       1 RES1   0.0000
     9 O9     -14.6759  26.3385 -25.4782   O.2       1 RES1   0.0000
    10 N10    -16.6164  26.3788 -23.9499   N.pl3     1 RES1   0.0000
    11 C11    -17.3561  27.2867 -24.8731   C.3       1 RES1   0.0000
    12 C12    -16.7293  28.6504 -25.1212   C.2       1 RES1   0.0000
    13 C13    -16.3520  29.0206 -26.4174   C.2       1 RES1   0.0000
    14 C14    -15.7858  30.2788 -26.6504   C.2       1 RES1   0.0000
    15 C15    -15.5711  31.1538 -25.5849   C.2       1 RES1   0.0000
    16 N16    -15.9392  30.7939 -24.2996   N.2       1 RES1   0.0000
    17 C17    -16.4999  29.5439 -24.0685   C.2       1 RES1   0.0000
    18 C18    -17.2375  26.1232 -22.6252   C.3       1 RES1   0.0000
    19 C19    -17.2327  27.3808 -21.7830   C.2       1 RES1   0.0000
    20 O20    -18.2770  27.9654 -21.5569   O.2       1 RES1   0.0000
    21 N21    -16.0674  27.8067 -21.3118   N.am      1 RES1   0.0000
    22 O22    -15.9923  29.0286 -20.6340   O.3       1 RES1   0.0000
    23 C23    -18.6683  25.5672 -22.7145   C.3       1 RES1   0.0000
    24 C24    -18.7809  24.3421 -23.6247   C.3       1 RES1   0.0000
    25 C25    -19.2334  25.2077 -21.3345   C.3       1 RES1   0.0000
    26 C26    -15.2607  23.1799 -23.4236   C.2       1 RES1   0.0000
    27 C27    -15.4188  21.8089 -23.5926   C.2       1 RES1   0.0000
@<TRIPOS>BOND
     1     1     2    1
     2     2     3    1
     3     3     4    2
     4     4     5    1
     5     5     6    2
     6     6     7    1
     7     7     8    2
     8     7     9    2
     9     7    10    1
    10    10    11    1
    11    11    12    1
    12    12    13    2
    13    13    14    1
    14    14    15    2
    15    15    16    1
    16    16    17    2
    17    10    18    1
    18    18    19    1
    19    19    20    2
    20    19    21   am
    21    21    22    1
    22    18    23    1
    23    23    24    1
    24    23    25    1
    25     6    26    1
    26    26    27    2
    27    27     3    1
    28    17    12    1
@<TRIPOS>SUBSTRUCTURE
     1 RES1        1 GROUP             0 ****  ****    0  
@<TRIPOS>MOLECULE
ligand_62
    27    28     1     0     0
SMALL
NO_CHARGES
****
Generated from the CSD

@<TRIPOS>ATOM
     1 C1     -16.0499  19.3930 -26.3180   C.3       1 RES1   0.0000
     2 O2     -15.8130  19.9490 -25.0190   O.3       1 RES1   0.0000
     3 C3     -15.6580  21.3020 -24.8580   C.2       1 RES1   0.0000
     4 C4     -15.7282  22.1641 -25.9575   C.2       1 RES1   0.0000
     5 C5     -15.5661  23.5391 -25.7865   C.2       1 RES1   0.0000
     6 C6     -15.3348  24.0430 -24.5131   C.2       1 RES1   0.0000
     7 S7     -15.1282  25.7659 -24.2432   S.o2      1 RES1   0.0000
     8 O8     -15.8558  26.4707 -25.2493   O.2       1 RES1   0.0000
     9 O9     -15.4805  26.0276 -22.8774   O.2       1 RES1   0.0000
    10 N10    -13.5291  26.0778 -24.3916   N.pl3     1 RES1   0.0000
    11 C11    -12.6541  25.5255 -25.4654   C.3       1 RES1   0.0000
    12 C12    -12.0419  26.5378 -26.4218   C.2       1 RES1   0.0000
    13 C13    -10.6532  26.5889 -26.5900   C.2       1 RES1   0.0000
    14 C14    -10.0880  27.5113 -27.4776   C.2       1 RES1   0.0000
    15 C15    -10.9081  28.3998 -28.1740   C.2       1 RES1   0.0000
    16 N16    -12.2823  28.3572 -28.0111   N.2       1 RES1   0.0000
    17 C17    -12.8430  27.4422 -27.1285   C.2       1 RES1   0.0000
    18 C18    -12.8602  26.8637 -23.3235   C.3       1 RES1   0.0000
    19 C19    -11.6335  26.1366 -22.8160   C.2       1 RES1   0.0000
    20 O20    -10.6136  26.1267 -23.4816   O.2       1 RES1   0.0000
    21 N21    -11.7168  25.5266 -21.6403   N.am      1 RES1   0.0000
    22 O22    -10.6536  24.7388 -21.1851   O.3       1 RES1   0.0000
    23 C23    -12.4737  28.2869 -23.7585   C.3       1 RES1   0.0000
    24 C24    -13.6474  29.0759 -24.3434   C.3       1 RES1   0.0000
    25 C25    -11.8636  29.0953 -22.6065   C.3       1 RES1   0.0000
    26 C26    -15.2607  23.1799 -23.4236   C.2       1 RES1   0.0000
    27 C27    -15.4188  21.8089 -23.5926   C.2       1 RES1   0.0000
@<TRIPOS>BOND
     1     1     2    1
     2     2     3    1
     3     3     4    2
     4     4     5    1
     5     5     6    2
     6     6     7    1
     7     7     8    2
     8     7     9    2
     9     7    10    1
    10    10    11    1
    11    11    12    1
    12    12    13    2
    13    13    14    1
    14    14    15    2
    15    15    16    1
    16    16    17    2
    17    10    18    1
    18    18    19    1
    19    19    20    2
    20    19    21   am
    21    21    22    1
    22    18    23    1
    23    23    24    1
    24    23    25    1
    25     6    26    1
    26    26    27    2
    27    27     3    1
    28    17    12    1
@<TRIPOS>SUBSTRUCTURE
     1 RES1        1 GROUP             0 ****  ****    0  
@<TRIPOS>MOLECULE
ligand_63
    27    28     1     0     0
SMALL
NO_CHARGES
****
Generated from the CSD

@<TRIPOS>ATOM
     1 C1     -16.0499  19.3930 -26.3180   C.3       1 RES1   0.0000
     2 O2     -15.8130  19.9490 -25.0190   O.3       1 RES1   0.0000
     3 C3     -15.6580  21.3020 -24.8580   C.2       1 RES1   0.0000
     4 C4     -15.7282  22.1641 -25.9575   C.2       1 RES1   0.0000
     5 C5     -15.5661  23.5391 -25.7865   C.2       1 RES1   0.0000
     6 C6     -15.3348  24.0430 -24.5131   C.2       1 RES1   0.0000
     7 S7     -15.1282  25.7659 -24.2432   S.o2      1 RES1   0.0000
     8 O8     -15.8558  26.4707 -25.2493   O.2       1 RES1   0.0000
     9 O9     -15.4805  26.0276 -22.8774   O.2       1 RES1   0.0000
    10 N10    -13.5291  26.0778 -24.3916   N.pl3     1 RES1   0.0000
    11 C11    -12.6542  25.5259 -25.4657   C.3       1 RES1   0.0000
    12 C12    -12.0412  26.5386 -26.4211   C.2       1 RES1   0.0000
    13 C13    -12.8668  27.4188 -27.1303   C.2       1 RES1   0.0000
    14 C14    -12.3049  28.3590 -28.0012   C.2       1 RES1   0.0000
    15 C15    -10.9222  28.3995 -28.1840   C.2       1 RES1   0.0000
    16 N16    -10.0991  27.5305 -27.4881   N.2       1 RES1   0.0000
    17 C17    -10.6575  26.5961 -26.6247   C.2       1 RES1   0.0000
    18 C18    -12.8601  26.8632 -23.3233   C.3       1 RES1   0.0000
    19 C19    -11.6338  26.1357 -22.8157   C.2       1 RES1   0.0000
    20 O20    -10.6138  26.1253 -23.4812   O.2       1 RES1   0.0000
    21 N21    -11.7173  25.5257 -21.6400   N.am      1 RES1   0.0000
    22 O22    -10.6545  24.7375 -21.1848   O.3       1 RES1   0.0000
    23 C23    -12.4731  28.2864 -23.7580   C.3       1 RES1   0.0000
    24 C24    -13.6461  29.0754 -24.3442   C.3       1 RES1   0.0000
    25 C25    -11.8641  29.0949 -22.6054   C.3       1 RES1   0.0000
    26 C26    -15.2607  23.1799 -23.4236   C.2       1 RES1   0.0000
    27 C27    -15.4188  21.8089 -23.5926   C.2       1 RES1   0.0000
@<TRIPOS>BOND
     1     1     2    1
     2     2     3    1
     3     3     4    2
     4     4     5    1
     5     5     6    2
     6     6     7    1
     7     7     8    2
     8     7     9    2
     9     7    10    1
    10    10    11    1
    11    11    12    1
    12    12    13    2
    13    13    14    1
    14    14    15    2
    15    15    16    1
    16    16    17    2
    17    10    18    1
    18    18    19    1
    19    19    20    2
    20    19    21   am
    21    21    22    1
    22    18    23    1
    23    23    24    1
    24    23    25    1
    25     6    26    1
    26    26    27    2
    27    27     3    1
    28    17    12    1
@<TRIPOS>SUBSTRUCTURE
     1 RES1        1 GROUP             0 ****  ****    0  
@<TRIPOS>MOLECULE
ligand_64
    27    28     1     0     0
SMALL
NO_CHARGES
****
Generated from the CSD

@<TRIPOS>ATOM
     1 C1     -16.0499  19.3930 -26.3180   C.3       1 RES1   0.0000
     2 O2     -15.8130  19.9490 -25.0190   O.3       1 RES1   0.0000
     3 C3     -15.6580  21.3020 -24.8580   C.2       1 RES1   0.0000
     4 C4     -15.7282  22.1641 -25.9575   C.2       1 RES1   0.0000
     5 C5     -15.5662  23.5391 -25.7865   C.2       1 RES1   0.0000
     6 C6     -15.3348  24.0430 -24.5131   C.2       1 RES1   0.0000
     7 S7     -15.1282  25.7659 -24.2432   S.o2      1 RES1   0.0000
     8 O8     -15.8558  26.4707 -25.2493   O.2       1 RES1   0.0000
     9 O9     -15.4805  26.0276 -22.8774   O.2       1 RES1   0.0000
    10 N10    -13.5291  26.0778 -24.3916   N.pl3     1 RES1   0.0000
    11 C11    -12.4571  25.3992 -23.6080   C.3       1 RES1   0.0000
    12 C12    -11.4659  24.5651 -24.4055   C.2       1 RES1   0.0000
    13 C13    -10.0946  24.8301 -24.3110   C.2       1 RES1   0.0000
    14 C14     -9.1797  24.0572 -25.0346   C.2       1 RES1   0.0000
    15 C15     -9.6373  23.0400 -25.8730   C.2       1 RES1   0.0000
    16 N16    -10.9922  22.7735 -25.9739   N.2       1 RES1   0.0000
    17 C17    -11.9004  23.5422 -25.2564   C.2       1 RES1   0.0000
    18 C18    -13.1059  27.1955 -25.2733   C.3       1 RES1   0.0000
    19 C19    -12.1564  28.1204 -24.5425   C.2       1 RES1   0.0000
    20 O20    -10.9980  27.7879 -24.3672   O.2       1 RES1   0.0000
    21 N21    -12.6313  29.2829 -24.1133   N.am      1 RES1   0.0000
    22 O22    -11.8296  30.1174 -23.3265   O.3       1 RES1   0.0000
    23 C23    -12.4620  26.7296 -26.5896   C.3       1 RES1   0.0000
    24 C24    -13.3370  25.7474 -27.3718   C.3       1 RES1   0.0000
    25 C25    -12.1065  27.9078 -27.5053   C.3       1 RES1   0.0000
    26 C26    -15.2607  23.1799 -23.4236   C.2       1 RES1   0.0000
    27 C27    -15.4187  21.8089 -23.5926   C.2       1 RES1   0.0000
@<TRIPOS>BOND
     1     1     2    1
     2     2     3    1
     3     3     4    2
     4     4     5    1
     5     5     6    2
     6     6     7    1
     7     7     8    2
     8     7     9    2
     9     7    10    1
    10    10    11    1
    11    11    12    1
    12    12    13    2
    13    13    14    1
    14    14    15    2
    15    15    16    1
    16    16    17    2
    17    10    18    1
    18    18    19    1
    19    19    20    2
    20    19    21   am
    21    21    22    1
    22    18    23    1
    23    23    24    1
    24    23    25    1
    25     6    26    1
    26    26    27    2
    27    27     3    1
    28    17    12    1
@<TRIPOS>SUBSTRUCTURE
     1 RES1        1 GROUP             0 ****  ****    0  
@<TRIPOS>MOLECULE
ligand_65
    27    28     1     0     0
SMALL
NO_CHARGES
****
Generated from the CSD

@<TRIPOS>ATOM
     1 C1     -16.0500  19.3930 -26.3180   C.3       1 RES1   0.0000
     2 O2     -15.8130  19.9490 -25.0190   O.3       1 RES1   0.0000
     3 C3     -15.6580  21.3020 -24.8580   C.2       1 RES1   0.0000
     4 C4     -15.7283  22.1641 -25.9575   C.2       1 RES1   0.0000
     5 C5     -15.5662  23.5391 -25.7865   C.2       1 RES1   0.0000
     6 C6     -15.3348  24.0430 -24.5131   C.2       1 RES1   0.0000
     7 S7     -15.1282  25.7659 -24.2432   S.o2      1 RES1   0.0000
     8 O8     -15.8558  26.4707 -25.2493   O.2       1 RES1   0.0000
     9 O9     -15.4805  26.0276 -22.8774   O.2       1 RES1   0.0000
    10 N10    -13.5291  26.0778 -24.3916   N.pl3     1 RES1   0.0000
    11 C11    -12.4571  25.3987 -23.6085   C.3       1 RES1   0.0000
    12 C12    -11.4619  24.5705 -24.4072   C.2       1 RES1   0.0000
    13 C13    -11.9182  23.5415 -25.2393   C.2       1 RES1   0.0000
    14 C14    -11.0061  22.7855 -25.9840   C.2       1 RES1   0.0000
    15 C15     -9.6384  23.0394 -25.8747   C.2       1 RES1   0.0000
    16 N16     -9.1791  24.0538 -25.0519   N.2       1 RES1   0.0000
    17 C17    -10.0850  24.8032 -24.3115   C.2       1 RES1   0.0000
    18 C18    -13.1059  27.1959 -25.2728   C.3       1 RES1   0.0000
    19 C19    -12.1553  28.1196 -24.5421   C.2       1 RES1   0.0000
    20 O20    -10.9971  27.7859 -24.3672   O.2       1 RES1   0.0000
    21 N21    -12.6288  29.2825 -24.1124   N.am      1 RES1   0.0000
    22 O22    -11.8260  30.1160 -23.3256   O.3       1 RES1   0.0000
    23 C23    -12.4634  26.7307 -26.5900   C.3       1 RES1   0.0000
    24 C24    -13.3394  25.7491 -27.3718   C.3       1 RES1   0.0000
    25 C25    -12.1087  27.9093 -27.5053   C.3       1 RES1   0.0000
    26 C26    -15.2606  23.1799 -23.4237   C.2       1 RES1   0.0000
    27 C27    -15.4187  21.8089 -23.5927   C.2       1 RES1   0.0000
@<TRIPOS>BOND
     1     1     2    1
     2     2     3    1
     3     3     4    2
     4     4     5    1
     5     5     6    2
     6     6     7    1
     7     7     8    2
     8     7     9    2
     9     7    10    1
    10    10    11    1
    11    11    12    1
    12    12    13    2
    13    13    14    1
    14    14    15    2
    15    15    16    1
    16    16    17    2
    17    10    18    1
    18    18    19    1
    19    19    20    2
    20    19    21   am
    21    21    22    1
    22    18    23    1
    23    23    24    1
    24    23    25    1
    25     6    26    1
    26    26    27    2
    27    27     3    1
    28    17    12    1
@<TRIPOS>SUBSTRUCTURE
     1 RES1        1 GROUP             0 ****  ****    0  
@<TRIPOS>MOLECULE
ligand_66
    27    28     1     0     0
SMALL
NO_CHARGES
****
Generated from the CSD

@<TRIPOS>ATOM
     1 C1     -16.0499  19.3930 -26.3180   C.3       1 RES1   0.0000
     2 O2     -15.8130  19.9490 -25.0190   O.3       1 RES1   0.0000
     3 C3     -15.6580  21.3020 -24.8580   C.2       1 RES1   0.0000
     4 C4     -15.7282  22.1641 -25.9575   C.2       1 RES1   0.0000
     5 C5     -15.5661  23.5391 -25.7865   C.2       1 RES1   0.0000
     6 C6     -15.3348  24.0430 -24.5131   C.2       1 RES1   0.0000
     7 S7     -15.1282  25.7659 -24.2432   S.o2      1 RES1   0.0000
     8 O8     -14.2945  25.9465 -23.0984   O.2       1 RES1   0.0000
     9 O9     -14.6759  26.3385 -25.4782   O.2       1 RES1   0.0000
    10 N10    -16.6164  26.3788 -23.9499   N.pl3     1 RES1   0.0000
    11 C11    -17.6335  25.7460 -23.0617   C.3       1 RES1   0.0000
    12 C12    -18.0297  26.5354 -21.8231   C.2       1 RES1   0.0000
    13 C13    -19.3743  26.8525 -21.5972   C.2       1 RES1   0.0000
    14 C14    -19.7430  27.5685 -20.4529   C.2       1 RES1   0.0000
    15 C15    -18.7657  27.9912 -19.5511   C.2       1 RES1   0.0000
    16 N16    -17.4334  27.6836 -19.7688   N.2       1 RES1   0.0000
    17 C17    -17.0676  26.9740 -20.9059   C.2       1 RES1   0.0000
    18 C18    -17.0468  27.5823 -24.7063   C.3       1 RES1   0.0000
    19 C19    -18.3890  27.3460 -25.3647   C.2       1 RES1   0.0000
    20 O20    -19.4071  27.3715 -24.6967   O.2       1 RES1   0.0000
    21 N21    -18.4064  27.1170 -26.6718   N.am      1 RES1   0.0000
    22 O22    -19.6055  26.7710 -27.3047   O.3       1 RES1   0.0000
    23 C23    -17.1098  28.8569 -23.8486   C.3       1 RES1   0.0000
    24 C24    -15.8076  29.1395 -23.0959   C.3       1 RES1   0.0000
    25 C25    -17.4747  30.0931 -24.6803   C.3       1 RES1   0.0000
    26 C26    -15.2607  23.1799 -23.4236   C.2       1 RES1   0.0000
    27 C27    -15.4188  21.8089 -23.5926   C.2       1 RES1   0.0000
@<TRIPOS>BOND
     1     1     2    1
     2     2     3    1
     3     3     4    2
     4     4     5    1
     5     5     6    2
     6     6     7    1
     7     7     8    2
     8     7     9    2
     9     7    10    1
    10    10    11    1
    11    11    12    1
    12    12    13    2
    13    13    14    1
    14    14    15    2
    15    15    16    1
    16    16    17    2
    17    10    18    1
    18    18    19    1
    19    19    20    2
    20    19    21   am
    21    21    22    1
    22    18    23    1
    23    23    24    1
    24    23    25    1
    25     6    26    1
    26    26    27    2
    27    27     3    1
    28    17    12    1
@<TRIPOS>SUBSTRUCTURE
     1 RES1        1 GROUP             0 ****  ****    0  
@<TRIPOS>MOLECULE
ligand_67
    27    28     1     0     0
SMALL
NO_CHARGES
****
Generated from the CSD

@<TRIPOS>ATOM
     1 C1     -16.0499  19.3930 -26.3180   C.3       1 RES1   0.0000
     2 O2     -15.8130  19.9490 -25.0190   O.3       1 RES1   0.0000
     3 C3     -15.6580  21.3020 -24.8580   C.2       1 RES1   0.0000
     4 C4     -15.7282  22.1641 -25.9575   C.2       1 RES1   0.0000
     5 C5     -15.5661  23.5391 -25.7865   C.2       1 RES1   0.0000
     6 C6     -15.3348  24.0430 -24.5131   C.2       1 RES1   0.0000
     7 S7     -15.1282  25.7659 -24.2432   S.o2      1 RES1   0.0000
     8 O8     -14.2945  25.9465 -23.0984   O.2       1 RES1   0.0000
     9 O9     -14.6759  26.3385 -25.4782   O.2       1 RES1   0.0000
    10 N10    -16.6164  26.3788 -23.9499   N.pl3     1 RES1   0.0000
    11 C11    -17.6333  25.7463 -23.0614   C.3       1 RES1   0.0000
    12 C12    -18.0302  26.5365 -21.8235   C.2       1 RES1   0.0000
    13 C13    -17.0499  26.9463 -20.9122   C.2       1 RES1   0.0000
    14 C14    -17.4107  27.6831 -19.7786   C.2       1 RES1   0.0000
    15 C15    -18.7524  27.9847 -19.5422   C.2       1 RES1   0.0000
    16 N16    -19.7281  27.5806 -20.4375   N.2       1 RES1   0.0000
    17 C17    -19.3696  26.8477 -21.5621   C.2       1 RES1   0.0000
    18 C18    -17.0470  27.5820 -24.7067   C.3       1 RES1   0.0000
    19 C19    -18.3890  27.3452 -25.3653   C.2       1 RES1   0.0000
    20 O20    -19.4072  27.3703 -24.6974   O.2       1 RES1   0.0000
    21 N21    -18.4060  27.1162 -26.6724   N.am      1 RES1   0.0000
    22 O22    -19.6049  26.7696 -27.3054   O.3       1 RES1   0.0000
    23 C23    -17.1105  28.8568 -23.8493   C.3       1 RES1   0.0000
    24 C24    -15.8090  29.1392 -23.0953   C.3       1 RES1   0.0000
    25 C25    -17.4743  30.0929 -24.6816   C.3       1 RES1   0.0000
    26 C26    -15.2607  23.1799 -23.4236   C.2       1 RES1   0.0000
    27 C27    -15.4188  21.8089 -23.5926   C.2       1 RES1   0.0000
@<TRIPOS>BOND
     1     1     2    1
     2     2     3    1
     3     3     4    2
     4     4     5    1
     5     5     6    2
     6     6     7    1
     7     7     8    2
     8     7     9    2
     9     7    10    1
    10    10    11    1
    11    11    12    1
    12    12    13    2
    13    13    14    1
    14    14    15    2
    15    15    16    1
    16    16    17    2
    17    10    18    1
    18    18    19    1
    19    19    20    2
    20    19    21   am
    21    21    22    1
    22    18    23    1
    23    23    24    1
    24    23    25    1
    25     6    26    1
    26    26    27    2
    27    27     3    1
    28    17    12    1
@<TRIPOS>SUBSTRUCTURE
     1 RES1        1 GROUP             0 ****  ****    0  
@<TRIPOS>MOLECULE
ligand_68
    27    28     1     0     0
SMALL
NO_CHARGES
****
Generated from the CSD

@<TRIPOS>ATOM
     1 C1     -16.0506  19.3931 -26.3179   C.3       1 RES1   0.0000
     2 O2     -15.8129  19.9490 -25.0190   O.3       1 RES1   0.0000
     3 C3     -15.6579  21.3020 -24.8580   C.2       1 RES1   0.0000
     4 C4     -15.7290  22.1642 -25.9574   C.2       1 RES1   0.0000
     5 C5     -15.5670  23.5392 -25.7864   C.2       1 RES1   0.0000
     6 C6     -15.3348  24.0430 -24.5131   C.2       1 RES1   0.0000
     7 S7     -15.1282  25.7659 -24.2432   S.o2      1 RES1   0.0000
     8 O8     -14.2945  25.9465 -23.0984   O.2       1 RES1   0.0000
     9 O9     -14.6759  26.3385 -25.4782   O.2       1 RES1   0.0000
    10 N10    -16.6164  26.3788 -23.9499   N.pl3     1 RES1   0.0000
    11 C11    -17.7873  26.2341 -24.8619   C.3       1 RES1   0.0000
    12 C12    -18.9722  25.4510 -24.3171   C.2       1 RES1   0.0000
    13 C13    -20.2409  26.0411 -24.2771   C.2       1 RES1   0.0000
    14 C14    -21.3348  25.3191 -23.7871   C.2       1 RES1   0.0000
    15 C15    -21.1547  24.0197 -23.3115   C.2       1 RES1   0.0000
    16 N16    -19.9025  23.4300 -23.3453   N.2       1 RES1   0.0000
    17 C17    -18.8163  24.1478 -23.8305   C.2       1 RES1   0.0000
    18 C18    -16.8016  27.2452 -22.7579   C.3       1 RES1   0.0000
    19 C19    -17.4851  28.5401 -23.1415   C.2       1 RES1   0.0000
    20 O20    -18.6819  28.5525 -23.3668   O.2       1 RES1   0.0000
    21 N21    -16.7396  29.6354 -23.2177   N.am      1 RES1   0.0000
    22 O22    -17.2982  30.8294 -23.6873   O.3       1 RES1   0.0000
    23 C23    -17.5825  26.5665 -21.6204   C.3       1 RES1   0.0000
    24 C24    -16.9862  25.2207 -21.2020   C.3       1 RES1   0.0000
    25 C25    -17.6896  27.4634 -20.3806   C.3       1 RES1   0.0000
    26 C26    -15.2599  23.1798 -23.4238   C.2       1 RES1   0.0000
    27 C27    -15.4179  21.8088 -23.5928   C.2       1 RES1   0.0000
@<TRIPOS>BOND
     1     1     2    1
     2     2     3    1
     3     3     4    2
     4     4     5    1
     5     5     6    2
     6     6     7    1
     7     7     8    2
     8     7     9    2
     9     7    10    1
    10    10    11    1
    11    11    12    1
    12    12    13    2
    13    13    14    1
    14    14    15    2
    15    15    16    1
    16    16    17    2
    17    10    18    1
    18    18    19    1
    19    19    20    2
    20    19    21   am
    21    21    22    1
    22    18    23    1
    23    23    24    1
    24    23    25    1
    25     6    26    1
    26    26    27    2
    27    27     3    1
    28    17    12    1
@<TRIPOS>SUBSTRUCTURE
     1 RES1        1 GROUP             0 ****  ****    0  
@<TRIPOS>MOLECULE
ligand_69
    27    28     1     0     0
SMALL
NO_CHARGES
****
Generated from the CSD

@<TRIPOS>ATOM
     1 C1     -16.0508  19.3931 -26.3179   C.3       1 RES1   0.0000
     2 O2     -15.8129  19.9490 -25.0190   O.3       1 RES1   0.0000
     3 C3     -15.6579  21.3020 -24.8580   C.2       1 RES1   0.0000
     4 C4     -15.7291  22.1642 -25.9573   C.2       1 RES1   0.0000
     5 C5     -15.5671  23.5392 -25.7864   C.2       1 RES1   0.0000
     6 C6     -15.3348  24.0430 -24.5131   C.2       1 RES1   0.0000
     7 S7     -15.1282  25.7659 -24.2432   S.o2      1 RES1   0.0000
     8 O8     -14.2945  25.9465 -23.0984   O.2       1 RES1   0.0000
     9 O9     -14.6759  26.3385 -25.4782   O.2       1 RES1   0.0000
    10 N10    -16.6164  26.3788 -23.9499   N.pl3     1 RES1   0.0000
    11 C11    -17.7875  26.2335 -24.8616   C.3       1 RES1   0.0000
    12 C12    -18.9748  25.4562 -24.3135   C.2       1 RES1   0.0000
    13 C13    -18.7985  24.1481 -23.8473   C.2       1 RES1   0.0000
    14 C14    -19.8865  23.4349 -23.3321   C.2       1 RES1   0.0000
    15 C15    -21.1538  24.0184 -23.3096   C.2       1 RES1   0.0000
    16 N16    -21.3367  25.3108 -23.7712   N.2       1 RES1   0.0000
    17 C17    -20.2564  26.0181 -24.2842   C.2       1 RES1   0.0000
    18 C18    -16.8014  27.2459 -22.7584   C.3       1 RES1   0.0000
    19 C19    -17.4858  28.5401 -23.1425   C.2       1 RES1   0.0000
    20 O20    -18.6827  28.5517 -23.3677   O.2       1 RES1   0.0000
    21 N21    -16.7411  29.6360 -23.2191   N.am      1 RES1   0.0000
    22 O22    -17.3005  30.8294 -23.6891   O.3       1 RES1   0.0000
    23 C23    -17.5814  26.5676 -21.6200   C.3       1 RES1   0.0000
    24 C24    -16.9844  25.2220 -21.2015   C.3       1 RES1   0.0000
    25 C25    -17.6876  27.4649 -20.3805   C.3       1 RES1   0.0000
    26 C26    -15.2597  23.1798 -23.4238   C.2       1 RES1   0.0000
    27 C27    -15.4178  21.8088 -23.5928   C.2       1 RES1   0.0000
@<TRIPOS>BOND
     1     1     2    1
     2     2     3    1
     3     3     4    2
     4     4     5    1
     5     5     6    2
     6     6     7    1
     7     7     8    2
     8     7     9    2
     9     7    10    1
    10    10    11    1
    11    11    12    1
    12    12    13    2
    13    13    14    1
    14    14    15    2
    15    15    16    1
    16    16    17    2
    17    10    18    1
    18    18    19    1
    19    19    20    2
    20    19    21   am
    21    21    22    1
    22    18    23    1
    23    23    24    1
    24    23    25    1
    25     6    26    1
    26    26    27    2
    27    27     3    1
    28    17    12    1
@<TRIPOS>SUBSTRUCTURE
     1 RES1        1 GROUP             0 ****  ****    0  
@<TRIPOS>MOLECULE
ligand_70
    27    28     1     0     0
SMALL
NO_CHARGES
****
Generated from the CSD

@<TRIPOS>ATOM
     1 C1     -16.0499  19.3930 -26.3180   C.3       1 RES1   0.0000
     2 O2     -15.8130  19.9490 -25.0190   O.3       1 RES1   0.0000
     3 C3     -15.6580  21.3020 -24.8580   C.2       1 RES1   0.0000
     4 C4     -15.7282  22.1641 -25.9575   C.2       1 RES1   0.0000
     5 C5     -15.5661  23.5391 -25.7865   C.2       1 RES1   0.0000
     6 C6     -15.3348  24.0430 -24.5131   C.2       1 RES1   0.0000
     7 S7     -15.1282  25.7659 -24.2432   S.o2      1 RES1   0.0000
     8 O8     -15.8558  26.4707 -25.2493   O.2       1 RES1   0.0000
     9 O9     -15.4805  26.0276 -22.8774   O.2       1 RES1   0.0000
    10 N10    -13.5291  26.0778 -24.3916   N.pl3     1 RES1   0.0000
    11 C11    -12.6339  26.4692 -23.2651   C.3       1 RES1   0.0000
    12 C12    -12.9315  27.8057 -22.6021   C.2       1 RES1   0.0000
    13 C13    -12.9088  28.9821 -23.3603   C.2       1 RES1   0.0000
    14 C14    -13.1934  30.2115 -22.7555   C.2       1 RES1   0.0000
    15 C15    -13.4719  30.2675 -21.3894   C.2       1 RES1   0.0000
    16 N16    -13.4938  29.1086 -20.6322   N.2       1 RES1   0.0000
    17 C17    -13.2096  27.8883 -21.2327   C.2       1 RES1   0.0000
    18 C18    -12.9362  26.0967 -25.7532   C.3       1 RES1   0.0000
    19 C19    -12.8187  27.5168 -26.2634   C.2       1 RES1   0.0000
    20 O20    -11.7200  28.0214 -26.4102   O.2       1 RES1   0.0000
    21 N21    -13.9400  28.1711 -26.5389   N.am      1 RES1   0.0000
    22 O22    -13.8904  29.5237 -26.8942   O.3       1 RES1   0.0000
    23 C23    -11.5663  25.4032 -25.8363   C.3       1 RES1   0.0000
    24 C24    -11.5596  24.0088 -25.2058   C.3       1 RES1   0.0000
    25 C25    -11.0644  25.2914 -27.2815   C.3       1 RES1   0.0000
    26 C26    -15.2607  23.1799 -23.4236   C.2       1 RES1   0.0000
    27 C27    -15.4188  21.8089 -23.5926   C.2       1 RES1   0.0000
@<TRIPOS>BOND
     1     1     2    1
     2     2     3    1
     3     3     4    2
     4     4     5    1
     5     5     6    2
     6     6     7    1
     7     7     8    2
     8     7     9    2
     9     7    10    1
    10    10    11    1
    11    11    12    1
    12    12    13    2
    13    13    14    1
    14    14    15    2
    15    15    16    1
    16    16    17    2
    17    10    18    1
    18    18    19    1
    19    19    20    2
    20    19    21   am
    21    21    22    1
    22    18    23    1
    23    23    24    1
    24    23    25    1
    25     6    26    1
    26    26    27    2
    27    27     3    1
    28    17    12    1
@<TRIPOS>SUBSTRUCTURE
     1 RES1        1 GROUP             0 ****  ****    0  
@<TRIPOS>MOLECULE
ligand_71
    27    28     1     0     0
SMALL
NO_CHARGES
****
Generated from the CSD

@<TRIPOS>ATOM
     1 C1     -16.0499  19.3930 -26.3180   C.3       1 RES1   0.0000
     2 O2     -15.8130  19.9490 -25.0190   O.3       1 RES1   0.0000
     3 C3     -15.6580  21.3020 -24.8580   C.2       1 RES1   0.0000
     4 C4     -15.7282  22.1641 -25.9575   C.2       1 RES1   0.0000
     5 C5     -15.5661  23.5391 -25.7865   C.2       1 RES1   0.0000
     6 C6     -15.3348  24.0430 -24.5131   C.2       1 RES1   0.0000
     7 S7     -15.1282  25.7659 -24.2432   S.o2      1 RES1   0.0000
     8 O8     -14.2945  25.9465 -23.0984   O.2       1 RES1   0.0000
     9 O9     -14.6759  26.3385 -25.4782   O.2       1 RES1   0.0000
    10 N10    -16.6164  26.3788 -23.9499   N.pl3     1 RES1   0.0000
    11 C11    -17.3557  27.2873 -24.8728   C.3       1 RES1   0.0000
    12 C12    -16.7339  28.6549 -25.1121   C.2       1 RES1   0.0000
    13 C13    -16.5118  29.5198 -24.0341   C.2       1 RES1   0.0000
    14 C14    -15.9295  30.7737 -24.2499   C.2       1 RES1   0.0000
    15 C15    -15.5963  31.1732 -25.5446   C.2       1 RES1   0.0000
    16 N16    -15.8152  30.3244 -26.6163   N.2       1 RES1   0.0000
    17 C17    -16.3949  29.0801 -26.4019   C.2       1 RES1   0.0000
    18 C18    -17.2379  26.1225 -22.6255   C.3       1 RES1   0.0000
    19 C19    -17.0427  27.3095 -21.7068   C.2       1 RES1   0.0000
    20 O20    -17.9998  27.9856 -21.3751   O.2       1 RES1   0.0000
    21 N21    -15.8114  27.5728 -21.2876   N.am      1 RES1   0.0000
    22 O22    -15.5602  28.7283 -20.5394   O.3       1 RES1   0.0000
    23 C23    -18.7329  25.7722 -22.7058   C.3       1 RES1   0.0000
    24 C24    -19.0385  24.6739 -23.7269   C.3       1 RES1   0.0000
    25 C25    -19.2990  25.3488 -21.3445   C.3       1 RES1   0.0000
    26 C26    -15.2607  23.1799 -23.4236   C.2       1 RES1   0.0000
    27 C27    -15.4188  21.8089 -23.5926   C.2       1 RES1   0.0000
@<TRIPOS>BOND
     1     1     2    1
     2     2     3    1
     3     3     4    2
     4     4     5    1
     5     5     6    2
     6     6     7    1
     7     7     8    2
     8     7     9    2
     9     7    10    1
    10    10    11    1
    11    11    12    1
    12    12    13    2
    13    13    14    1
    14    14    15    2
    15    15    16    1
    16    16    17    2
    17    10    18    1
    18    18    19    1
    19    19    20    2
    20    19    21   am
    21    21    22    1
    22    18    23    1
    23    23    24    1
    24    23    25    1
    25     6    26    1
    26    26    27    2
    27    27     3    1
    28    17    12    1
@<TRIPOS>SUBSTRUCTURE
     1 RES1        1 GROUP             0 ****  ****    0  
@<TRIPOS>MOLECULE
ligand_72
    27    28     1     0     0
SMALL
NO_CHARGES
****
Generated from the CSD

@<TRIPOS>ATOM
     1 C1     -16.0499  19.3930 -26.3180   C.3       1 RES1   0.0000
     2 O2     -15.8130  19.9490 -25.0190   O.3       1 RES1   0.0000
     3 C3     -15.6580  21.3020 -24.8580   C.2       1 RES1   0.0000
     4 C4     -15.7282  22.1641 -25.9575   C.2       1 RES1   0.0000
     5 C5     -15.5661  23.5391 -25.7865   C.2       1 RES1   0.0000
     6 C6     -15.3348  24.0430 -24.5131   C.2       1 RES1   0.0000
     7 S7     -15.1282  25.7659 -24.2432   S.o2      1 RES1   0.0000
     8 O8     -15.8558  26.4707 -25.2493   O.2       1 RES1   0.0000
     9 O9     -15.4805  26.0276 -22.8774   O.2       1 RES1   0.0000
    10 N10    -13.5291  26.0778 -24.3916   N.pl3     1 RES1   0.0000
    11 C11    -12.8869  26.6504 -25.6095   C.3       1 RES1   0.0000
    12 C12    -13.2003  28.1076 -25.9138   C.2       1 RES1   0.0000
    13 C13    -12.6363  28.7237 -27.0371   C.2       1 RES1   0.0000
    14 C14    -12.9319  30.0606 -27.3258   C.2       1 RES1   0.0000
    15 C15    -13.7670  30.7880 -26.4769   C.2       1 RES1   0.0000
    16 N16    -14.3266  30.1864 -25.3626   N.2       1 RES1   0.0000
    17 C17    -14.0316  28.8594 -25.0754   C.2       1 RES1   0.0000
    18 C18    -12.6218  25.6548 -23.2945   C.3       1 RES1   0.0000
    19 C19    -11.9352  24.3518 -23.6434   C.2       1 RES1   0.0000
    20 O20    -12.2275  23.3314 -23.0462   O.2       1 RES1   0.0000
    21 N21    -11.0236  24.3705 -24.6076   N.am      1 RES1   0.0000
    22 O22    -10.3250  23.2020 -24.9314   O.3       1 RES1   0.0000
    23 C23    -11.5672  26.7119 -22.9274   C.3       1 RES1   0.0000
    24 C24    -12.1737  28.0808 -22.6107   C.3       1 RES1   0.0000
    25 C25    -10.7000  26.2722 -21.7410   C.3       1 RES1   0.0000
    26 C26    -15.2607  23.1799 -23.4236   C.2       1 RES1   0.0000
    27 C27    -15.4188  21.8089 -23.5926   C.2       1 RES1   0.0000
@<TRIPOS>BOND
     1     1     2    1
     2     2     3    1
     3     3     4    2
     4     4     5    1
     5     5     6    2
     6     6     7    1
     7     7     8    2
     8     7     9    2
     9     7    10    1
    10    10    11    1
    11    11    12    1
    12    12    13    2
    13    13    14    1
    14    14    15    2
    15    15    16    1
    16    16    17    2
    17    10    18    1
    18    18    19    1
    19    19    20    2
    20    19    21   am
    21    21    22    1
    22    18    23    1
    23    23    24    1
    24    23    25    1
    25     6    26    1
    26    26    27    2
    27    27     3    1
    28    17    12    1
@<TRIPOS>SUBSTRUCTURE
     1 RES1        1 GROUP             0 ****  ****    0  
@<TRIPOS>MOLECULE
ligand_73
    27    28     1     0     0
SMALL
NO_CHARGES
****
Generated from the CSD

@<TRIPOS>ATOM
     1 C1     -16.0499  19.3930 -26.3180   C.3       1 RES1   0.0000
     2 O2     -15.8130  19.9490 -25.0190   O.3       1 RES1   0.0000
     3 C3     -15.6580  21.3020 -24.8580   C.2       1 RES1   0.0000
     4 C4     -15.7282  22.1641 -25.9575   C.2       1 RES1   0.0000
     5 C5     -15.5661  23.5391 -25.7865   C.2       1 RES1   0.0000
     6 C6     -15.3348  24.0430 -24.5131   C.2       1 RES1   0.0000
     7 S7     -15.1282  25.7659 -24.2432   S.o2      1 RES1   0.0000
     8 O8     -14.2945  25.9465 -23.0984   O.2       1 RES1   0.0000
     9 O9     -14.6759  26.3385 -25.4782   O.2       1 RES1   0.0000
    10 N10    -16.6164  26.3788 -23.9499   N.pl3     1 RES1   0.0000
    11 C11    -17.1528  26.6894 -22.5936   C.3       1 RES1   0.0000
    12 C12    -16.5226  27.8733 -21.8756   C.2       1 RES1   0.0000
    13 C13    -16.9694  28.2347 -20.5991   C.2       1 RES1   0.0000
    14 C14    -16.3838  29.3161 -19.9316   C.2       1 RES1   0.0000
    15 C15    -15.3732  30.0523 -20.5511   C.2       1 RES1   0.0000
    16 N16    -14.9277  29.7026 -21.8145   N.2       1 RES1   0.0000
    17 C17    -15.5104  28.6298 -22.4777   C.2       1 RES1   0.0000
    18 C18    -17.5566  26.5278 -25.0899   C.3       1 RES1   0.0000
    19 C19    -18.5376  25.3758 -25.1256   C.2       1 RES1   0.0000
    20 O20    -18.4674  24.5444 -26.0128   O.2       1 RES1   0.0000
    21 N21    -19.4546  25.3128 -24.1683   N.am      1 RES1   0.0000
    22 O22    -20.4153  24.2955 -24.1869   O.3       1 RES1   0.0000
    23 C23    -18.3247  27.8599 -25.0827   C.3       1 RES1   0.0000
    24 C24    -17.4074  29.0817 -24.9936   C.3       1 RES1   0.0000
    25 C25    -19.2265  28.0112 -26.3143   C.3       1 RES1   0.0000
    26 C26    -15.2607  23.1799 -23.4236   C.2       1 RES1   0.0000
    27 C27    -15.4188  21.8089 -23.5926   C.2       1 RES1   0.0000
@<TRIPOS>BOND
     1     1     2    1
     2     2     3    1
     3     3     4    2
     4     4     5    1
     5     5     6    2
     6     6     7    1
     7     7     8    2
     8     7     9    2
     9     7    10    1
    10    10    11    1
    11    11    12    1
    12    12    13    2
    13    13    14    1
    14    14    15    2
    15    15    16    1
    16    16    17    2
    17    10    18    1
    18    18    19    1
    19    19    20    2
    20    19    21   am
    21    21    22    1
    22    18    23    1
    23    23    24    1
    24    23    25    1
    25     6    26    1
    26    26    27    2
    27    27     3    1
    28    17    12    1
@<TRIPOS>SUBSTRUCTURE
     1 RES1        1 GROUP             0 ****  ****    0  
@<TRIPOS>MOLECULE
ligand_74
    27    28     1     0     0
SMALL
NO_CHARGES
****
Generated from the CSD

@<TRIPOS>ATOM
     1 C1     -16.0499  19.3930 -26.3180   C.3       1 RES1   0.0000
     2 O2     -15.8130  19.9490 -25.0190   O.3       1 RES1   0.0000
     3 C3     -15.6580  21.3020 -24.8580   C.2       1 RES1   0.0000
     4 C4     -15.7282  22.1641 -25.9575   C.2       1 RES1   0.0000
     5 C5     -15.5661  23.5391 -25.7865   C.2       1 RES1   0.0000
     6 C6     -15.3348  24.0430 -24.5131   C.2       1 RES1   0.0000
     7 S7     -15.1282  25.7659 -24.2432   S.o2      1 RES1   0.0000
     8 O8     -15.8558  26.4707 -25.2493   O.2       1 RES1   0.0000
     9 O9     -15.4805  26.0276 -22.8774   O.2       1 RES1   0.0000
    10 N10    -13.5291  26.0778 -24.3916   N.pl3     1 RES1   0.0000
    11 C11    -12.8874  26.6535 -25.6083   C.3       1 RES1   0.0000
    12 C12    -13.1921  28.1146 -25.9026   C.2       1 RES1   0.0000
    13 C13    -14.0302  28.8395 -25.0473   C.2       1 RES1   0.0000
    14 C14    -14.3032  30.1867 -25.3092   C.2       1 RES1   0.0000
    15 C15    -13.7619  30.7997 -26.4399   C.2       1 RES1   0.0000
    16 N16    -12.9341  30.0886 -27.2920   N.2       1 RES1   0.0000
    17 C17    -12.6647  28.7506 -27.0324   C.2       1 RES1   0.0000
    18 C18    -12.6213  25.6516 -23.2961   C.3       1 RES1   0.0000
    19 C19    -11.9357  24.3491 -23.6486   C.2       1 RES1   0.0000
    20 O20    -12.2297  23.3270 -23.0551   O.2       1 RES1   0.0000
    21 N21    -11.0230  24.3700 -24.6118   N.am      1 RES1   0.0000
    22 O22    -10.3256  23.2018 -24.9390   O.3       1 RES1   0.0000
    23 C23    -11.5659  26.7072 -22.9272   C.3       1 RES1   0.0000
    24 C24    -12.1720  28.0739 -22.5999   C.3       1 RES1   0.0000
    25 C25    -10.6935  26.2612 -21.7469   C.3       1 RES1   0.0000
    26 C26    -15.2607  23.1799 -23.4236   C.2       1 RES1   0.0000
    27 C27    -15.4188  21.8089 -23.5926   C.2       1 RES1   0.0000
@<TRIPOS>BOND
     1     1     2    1
     2     2     3    1
     3     3     4    2
     4     4     5    1
     5     5     6    2
     6     6     7    1
     7     7     8    2
     8     7     9    2
     9     7    10    1
    10    10    11    1
    11    11    12    1
    12    12    13    2
    13    13    14    1
    14    14    15    2
    15    15    16    1
    16    16    17    2
    17    10    18    1
    18    18    19    1
    19    19    20    2
    20    19    21   am
    21    21    22    1
    22    18    23    1
    23    23    24    1
    24    23    25    1
    25     6    26    1
    26    26    27    2
    27    27     3    1
    28    17    12    1
@<TRIPOS>SUBSTRUCTURE
     1 RES1        1 GROUP             0 ****  ****    0  
@<TRIPOS>MOLECULE
ligand_75
    27    28     1     0     0
SMALL
NO_CHARGES
****
Generated from the CSD

@<TRIPOS>ATOM
     1 C1     -16.0499  19.3930 -26.3180   C.3       1 RES1   0.0000
     2 O2     -15.8130  19.9490 -25.0190   O.3       1 RES1   0.0000
     3 C3     -15.6580  21.3020 -24.8580   C.2       1 RES1   0.0000
     4 C4     -15.7282  22.1641 -25.9575   C.2       1 RES1   0.0000
     5 C5     -15.5661  23.5391 -25.7865   C.2       1 RES1   0.0000
     6 C6     -15.3348  24.0430 -24.5131   C.2       1 RES1   0.0000
     7 S7     -15.1282  25.7659 -24.2432   S.o2      1 RES1   0.0000
     8 O8     -14.2945  25.9465 -23.0984   O.2       1 RES1   0.0000
     9 O9     -14.6759  26.3385 -25.4782   O.2       1 RES1   0.0000
    10 N10    -16.6164  26.3788 -23.9499   N.pl3     1 RES1   0.0000
    11 C11    -17.1515  26.6925 -22.5938   C.3       1 RES1   0.0000
    12 C12    -16.5286  27.8850 -21.8838   C.2       1 RES1   0.0000
    13 C13    -15.5154  28.6200 -22.5103   C.2       1 RES1   0.0000
    14 C14    -14.9485  29.7243 -21.8643   C.2       1 RES1   0.0000
    15 C15    -15.3742  30.0753 -20.5826   C.2       1 RES1   0.0000
    16 N16    -16.3740  29.3517 -19.9553   N.2       1 RES1   0.0000
    17 C17    -16.9355  28.2544 -20.5965   C.2       1 RES1   0.0000
    18 C18    -17.5579  26.5246 -25.0893   C.3       1 RES1   0.0000
    19 C19    -18.5379  25.3716 -25.1215   C.2       1 RES1   0.0000
    20 O20    -18.4666  24.5372 -26.0059   O.2       1 RES1   0.0000
    21 N21    -19.4554  25.3112 -24.1645   N.am      1 RES1   0.0000
    22 O22    -20.4151  24.2929 -24.1799   O.3       1 RES1   0.0000
    23 C23    -18.3270  27.8560 -25.0843   C.3       1 RES1   0.0000
    24 C24    -17.4104  29.0790 -25.0058   C.3       1 RES1   0.0000
    25 C25    -19.2355  28.0007 -26.3118   C.3       1 RES1   0.0000
    26 C26    -15.2607  23.1799 -23.4236   C.2       1 RES1   0.0000
    27 C27    -15.4188  21.8089 -23.5926   C.2       1 RES1   0.0000
@<TRIPOS>BOND
     1     1     2    1
     2     2     3    1
     3     3     4    2
     4     4     5    1
     5     5     6    2
     6     6     7    1
     7     7     8    2
     8     7     9    2
     9     7    10    1
    10    10    11    1
    11    11    12    1
    12    12    13    2
    13    13    14    1
    14    14    15    2
    15    15    16    1
    16    16    17    2
    17    10    18    1
    18    18    19    1
    19    19    20    2
    20    19    21   am
    21    21    22    1
    22    18    23    1
    23    23    24    1
    24    23    25    1
    25     6    26    1
    26    26    27    2
    27    27     3    1
    28    17    12    1
@<TRIPOS>SUBSTRUCTURE
     1 RES1        1 GROUP             0 ****  ****    0  
@<TRIPOS>MOLECULE
ligand_76
    27    28     1     0     0
SMALL
NO_CHARGES
****
Generated from the CSD

@<TRIPOS>ATOM
     1 C1     -16.0330  19.3913 -26.3204   C.3       1 RES1   0.0000
     2 O2     -15.8151  19.9492 -25.0188   O.3       1 RES1   0.0000
     3 C3     -15.6593  21.3021 -24.8579   C.2       1 RES1   0.0000
     4 C4     -15.7101  22.1623 -25.9600   C.2       1 RES1   0.0000
     5 C5     -15.5473  23.5372 -25.7891   C.2       1 RES1   0.0000
     6 C6     -15.3348  24.0430 -24.5131   C.2       1 RES1   0.0000
     7 S7     -15.1282  25.7659 -24.2432   S.o2      1 RES1   0.0000
     8 O8     -14.2945  25.9465 -23.0984   O.2       1 RES1   0.0000
     9 O9     -14.6759  26.3385 -25.4782   O.2       1 RES1   0.0000
    10 N10    -16.6164  26.3788 -23.9499   N.pl3     1 RES1   0.0000
    11 C11    -17.1569  26.6791 -22.5929   C.3       1 RES1   0.0000
    12 C12    -17.2317  28.1491 -22.2084   C.2       1 RES1   0.0000
    13 C13    -16.0890  28.9529 -22.2950   C.2       1 RES1   0.0000
    14 C14    -16.1576  30.3080 -21.9529   C.2       1 RES1   0.0000
    15 C15    -17.3597  30.8513 -21.4979   C.2       1 RES1   0.0000
    16 N16    -18.4936  30.0621 -21.4071   N.2       1 RES1   0.0000
    17 C17    -18.4247  28.7163 -21.7454   C.2       1 RES1   0.0000
    18 C18    -17.5525  26.5388 -25.0918   C.3       1 RES1   0.0000
    19 C19    -18.5063  25.3659 -25.1672   C.2       1 RES1   0.0000
    20 O20    -19.3742  25.2326 -24.3232   O.2       1 RES1   0.0000
    21 N21    -18.3590  24.5109 -26.1714   N.am      1 RES1   0.0000
    22 O22    -19.1333  23.3462 -26.2167   O.3       1 RES1   0.0000
    23 C23    -18.3512  27.8520 -25.0521   C.3       1 RES1   0.0000
    24 C24    -17.4733  29.0944 -25.2193   C.3       1 RES1   0.0000
    25 C25    -19.4574  27.8855 -26.1143   C.3       1 RES1   0.0000
    26 C26    -15.2800  23.1818 -23.4210   C.2       1 RES1   0.0000
    27 C27    -15.4388  21.8109 -23.5899   C.2       1 RES1   0.0000
@<TRIPOS>BOND
     1     1     2    1
     2     2     3    1
     3     3     4    2
     4     4     5    1
     5     5     6    2
     6     6     7    1
     7     7     8    2
     8     7     9    2
     9     7    10    1
    10    10    11    1
    11    11    12    1
    12    12    13    2
    13    13    14    1
    14    14    15    2
    15    15    16    1
    16    16    17    2
    17    10    18    1
    18    18    19    1
    19    19    20    2
    20    19    21   am
    21    21    22    1
    22    18    23    1
    23    23    24    1
    24    23    25    1
    25     6    26    1
    26    26    27    2
    27    27     3    1
    28    17    12    1
@<TRIPOS>SUBSTRUCTURE
     1 RES1        1 GROUP             0 ****  ****    0  
@<TRIPOS>MOLECULE
ligand_77
    27    28     1     0     0
SMALL
NO_CHARGES
****
Generated from the CSD

@<TRIPOS>ATOM
     1 C1     -16.0270  19.3907 -26.3209   C.3       1 RES1   0.0000
     2 O2     -15.8109  19.9488 -25.0192   O.3       1 RES1   0.0000
     3 C3     -15.6567  21.3019 -24.8581   C.2       1 RES1   0.0000
     4 C4     -15.4446  21.8497 -23.5885   C.2       1 RES1   0.0000
     5 C5     -15.2920  23.2275 -23.4318   C.2       1 RES1   0.0000
     6 C6     -15.3524  24.0494 -24.5498   C.2       1 RES1   0.0000
     7 S7     -15.1623  25.7894 -24.4077   S.o2      1 RES1   0.0000
     8 O8     -15.9041  26.4115 -25.4570   O.2       1 RES1   0.0000
     9 O9     -15.5082  26.1464 -23.0620   O.2       1 RES1   0.0000
    10 N10    -13.5676  26.1057 -24.5904   N.pl3     1 RES1   0.0000
    11 C11    -12.9380  26.5839 -25.8547   C.3       1 RES1   0.0000
    12 C12    -12.5270  28.0482 -25.8900   C.2       1 RES1   0.0000
    13 C13    -13.4635  29.0442 -25.5893   C.2       1 RES1   0.0000
    14 C14    -13.0854  30.3913 -25.6099   C.2       1 RES1   0.0000
    15 C15    -11.7808  30.7429 -25.9583   C.2       1 RES1   0.0000
    16 N16    -10.8495  29.7638 -26.2595   N.2       1 RES1   0.0000
    17 C17    -11.2258  28.4265 -26.2406   C.2       1 RES1   0.0000
    18 C18    -12.6501  25.7839 -23.4677   C.3       1 RES1   0.0000
    19 C19    -11.9843  24.4432 -23.6914   C.2       1 RES1   0.0000
    20 O20    -11.1459  24.3188 -24.5661   O.2       1 RES1   0.0000
    21 N21    -12.3452  23.4338 -22.9090   N.am      1 RES1   0.0000
    22 O22    -11.8516  22.1477 -23.1554   O.3       1 RES1   0.0000
    23 C23    -11.5778  26.8585 -23.2233   C.3       1 RES1   0.0000
    24 C24    -12.1606  28.1919 -22.7496   C.3       1 RES1   0.0000
    25 C25    -10.5206  26.3973 -22.2120   C.3       1 RES1   0.0000
    26 C26    -15.5690  23.4992 -25.8099   C.2       1 RES1   0.0000
    27 C27    -15.7245  22.1265 -25.9674   C.2       1 RES1   0.0000
@<TRIPOS>BOND
     1     1     2    1
     2     2     3    1
     3     3     4    2
     4     4     5    1
     5     5     6    2
     6     6     7    1
     7     7     8    2
     8     7     9    2
     9     7    10    1
    10    10    11    1
    11    11    12    1
    12    12    13    2
    13    13    14    1
    14    14    15    2
    15    15    16    1
    16    16    17    2
    17    10    18    1
    18    18    19    1
    19    19    20    2
    20    19    21   am
    21    21    22    1
    22    18    23    1
    23    23    24    1
    24    23    25    1
    25     6    26    1
    26    26    27    2
    27    27     3    1
    28    17    12    1
@<TRIPOS>SUBSTRUCTURE
     1 RES1        1 GROUP             0 ****  ****    0  
@<TRIPOS>MOLECULE
ligand_78
    27    28     1     0     0
SMALL
NO_CHARGES
****
Generated from the CSD

@<TRIPOS>ATOM
     1 C1     -16.0338  19.3914 -26.3202   C.3       1 RES1   0.0000
     2 O2     -15.8150  19.9492 -25.0188   O.3       1 RES1   0.0000
     3 C3     -15.6593  21.3021 -24.8579   C.2       1 RES1   0.0000
     4 C4     -15.7110  22.1624 -25.9599   C.2       1 RES1   0.0000
     5 C5     -15.5483  23.5373 -25.7889   C.2       1 RES1   0.0000
     6 C6     -15.3348  24.0430 -24.5131   C.2       1 RES1   0.0000
     7 S7     -15.1282  25.7659 -24.2432   S.o2      1 RES1   0.0000
     8 O8     -14.2945  25.9465 -23.0984   O.2       1 RES1   0.0000
     9 O9     -14.6759  26.3385 -25.4782   O.2       1 RES1   0.0000
    10 N10    -16.6164  26.3788 -23.9499   N.pl3     1 RES1   0.0000
    11 C11    -17.1568  26.6792 -22.5929   C.3       1 RES1   0.0000
    12 C12    -17.2266  28.1489 -22.2065   C.2       1 RES1   0.0000
    13 C13    -18.4341  28.6968 -21.7578   C.2       1 RES1   0.0000
    14 C14    -18.4984  30.0456 -21.3907   C.2       1 RES1   0.0000
    15 C15    -17.3646  30.8515 -21.4994   C.2       1 RES1   0.0000
    16 N16    -16.1673  30.3176 -21.9448   N.2       1 RES1   0.0000
    17 C17    -16.1042  28.9787 -22.3106   C.2       1 RES1   0.0000
    18 C18    -17.5525  26.5387 -25.0918   C.3       1 RES1   0.0000
    19 C19    -18.5063  25.3658 -25.1671   C.2       1 RES1   0.0000
    20 O20    -19.3741  25.2325 -24.3229   O.2       1 RES1   0.0000
    21 N21    -18.3592  24.5108 -26.1713   N.am      1 RES1   0.0000
    22 O22    -19.1335  23.3461 -26.2164   O.3       1 RES1   0.0000
    23 C23    -18.3513  27.8519 -25.0522   C.3       1 RES1   0.0000
    24 C24    -17.4729  29.0945 -25.2157   C.3       1 RES1   0.0000
    25 C25    -19.4550  27.8869 -26.1168   C.3       1 RES1   0.0000
    26 C26    -15.2790  23.1817 -23.4211   C.2       1 RES1   0.0000
    27 C27    -15.4377  21.8108 -23.5900   C.2       1 RES1   0.0000
@<TRIPOS>BOND
     1     1     2    1
     2     2     3    1
     3     3     4    2
     4     4     5    1
     5     5     6    2
     6     6     7    1
     7     7     8    2
     8     7     9    2
     9     7    10    1
    10    10    11    1
    11    11    12    1
    12    12    13    2
    13    13    14    1
    14    14    15    2
    15    15    16    1
    16    16    17    2
    17    10    18    1
    18    18    19    1
    19    19    20    2
    20    19    21   am
    21    21    22    1
    22    18    23    1
    23    23    24    1
    24    23    25    1
    25     6    26    1
    26    26    27    2
    27    27     3    1
    28    17    12    1
@<TRIPOS>SUBSTRUCTURE
     1 RES1        1 GROUP             0 ****  ****    0  
@<TRIPOS>MOLECULE
ligand_79
    27    28     1     0     0
SMALL
NO_CHARGES
****
Generated from the CSD

@<TRIPOS>ATOM
     1 C1     -16.0282  19.3908 -26.3208   C.3       1 RES1   0.0000
     2 O2     -15.8110  19.9488 -25.0192   O.3       1 RES1   0.0000
     3 C3     -15.6567  21.3019 -24.8581   C.2       1 RES1   0.0000
     4 C4     -15.4437  21.8496 -23.5886   C.2       1 RES1   0.0000
     5 C5     -15.2911  23.2274 -23.4320   C.2       1 RES1   0.0000
     6 C6     -15.3524  24.0494 -24.5498   C.2       1 RES1   0.0000
     7 S7     -15.1623  25.7894 -24.4077   S.o2      1 RES1   0.0000
     8 O8     -15.9041  26.4115 -25.4570   O.2       1 RES1   0.0000
     9 O9     -15.5082  26.1464 -23.0620   O.2       1 RES1   0.0000
    10 N10    -13.5676  26.1057 -24.5904   N.pl3     1 RES1   0.0000
    11 C11    -12.9380  26.5840 -25.8547   C.3       1 RES1   0.0000
    12 C12    -12.5320  28.0497 -25.8919   C.2       1 RES1   0.0000
    13 C13    -11.2213  28.4030 -26.2333   C.2       1 RES1   0.0000
    14 C14    -10.8480  29.7509 -26.2795   C.2       1 RES1   0.0000
    15 C15    -11.7760  30.7417 -25.9569   C.2       1 RES1   0.0000
    16 N16    -13.0736  30.4000 -25.6158   N.2       1 RES1   0.0000
    17 C17    -13.4434  29.0616 -25.5685   C.2       1 RES1   0.0000
    18 C18    -12.6501  25.7838 -23.4677   C.3       1 RES1   0.0000
    19 C19    -11.9843  24.4431 -23.6916   C.2       1 RES1   0.0000
    20 O20    -11.1460  24.3188 -24.5664   O.2       1 RES1   0.0000
    21 N21    -12.3450  23.4336 -22.9092   N.am      1 RES1   0.0000
    22 O22    -11.8514  22.1477 -23.1557   O.3       1 RES1   0.0000
    23 C23    -11.5778  26.8583 -23.2232   C.3       1 RES1   0.0000
    24 C24    -12.1610  28.1929 -22.7530   C.3       1 RES1   0.0000
    25 C25    -10.5227  26.3986 -22.2092   C.3       1 RES1   0.0000
    26 C26    -15.5699  23.4993 -25.8097   C.2       1 RES1   0.0000
    27 C27    -15.7255  22.1266 -25.9673   C.2       1 RES1   0.0000
@<TRIPOS>BOND
     1     1     2    1
     2     2     3    1
     3     3     4    2
     4     4     5    1
     5     5     6    2
     6     6     7    1
     7     7     8    2
     8     7     9    2
     9     7    10    1
    10    10    11    1
    11    11    12    1
    12    12    13    2
    13    13    14    1
    14    14    15    2
    15    15    16    1
    16    16    17    2
    17    10    18    1
    18    18    19    1
    19    19    20    2
    20    19    21   am
    21    21    22    1
    22    18    23    1
    23    23    24    1
    24    23    25    1
    25     6    26    1
    26    26    27    2
    27    27     3    1
    28    17    12    1
@<TRIPOS>SUBSTRUCTURE
     1 RES1        1 GROUP             0 ****  ****    0  
@<TRIPOS>MOLECULE
ligand_80
    27    28     1     0     0
SMALL
NO_CHARGES
****
Generated from the CSD

@<TRIPOS>ATOM
     1 C1     -16.0499  19.3930 -26.3180   C.3       1 RES1   0.0000
     2 O2     -15.8130  19.9490 -25.0190   O.3       1 RES1   0.0000
     3 C3     -15.6580  21.3020 -24.8580   C.2       1 RES1   0.0000
     4 C4     -15.7282  22.1641 -25.9575   C.2       1 RES1   0.0000
     5 C5     -15.5661  23.5391 -25.7865   C.2       1 RES1   0.0000
     6 C6     -15.3348  24.0430 -24.5131   C.2       1 RES1   0.0000
     7 S7     -15.1282  25.7659 -24.2432   S.o2      1 RES1   0.0000
     8 O8     -15.8558  26.4707 -25.2493   O.2       1 RES1   0.0000
     9 O9     -15.4805  26.0276 -22.8774   O.2       1 RES1   0.0000
    10 N10    -13.5291  26.0778 -24.3916   N.pl3     1 RES1   0.0000
    11 C11    -12.6530  25.5210 -25.4621   C.3       1 RES1   0.0000
    12 C12    -12.8944  26.0449 -26.8698   C.2       1 RES1   0.0000
    13 C13    -13.2364  25.1571 -27.8966   C.2       1 RES1   0.0000
    14 C14    -13.4702  25.6376 -29.1898   C.2       1 RES1   0.0000
    15 C15    -13.3343  26.9995 -29.4617   C.2       1 RES1   0.0000
    16 N16    -12.9939  27.8835 -28.4520   N.2       1 RES1   0.0000
    17 C17    -12.7603  27.4058 -27.1684   C.2       1 RES1   0.0000
    18 C18    -12.8615  26.8688 -23.3265   C.3       1 RES1   0.0000
    19 C19    -11.6924  26.1019 -22.7469   C.2       1 RES1   0.0000
    20 O20    -10.6463  26.0281 -23.3662   O.2       1 RES1   0.0000
    21 N21    -11.8541  25.5287 -21.5609   N.am      1 RES1   0.0000
    22 O22    -10.8487  24.7069 -21.0392   O.3       1 RES1   0.0000
    23 C23    -12.3882  28.2545 -23.7956   C.3       1 RES1   0.0000
    24 C24    -13.5174  29.1113 -24.3728   C.3       1 RES1   0.0000
    25 C25    -11.7014  29.0395 -22.6710   C.3       1 RES1   0.0000
    26 C26    -15.2607  23.1799 -23.4236   C.2       1 RES1   0.0000
    27 C27    -15.4188  21.8089 -23.5926   C.2       1 RES1   0.0000
@<TRIPOS>BOND
     1     1     2    1
     2     2     3    1
     3     3     4    2
     4     4     5    1
     5     5     6    2
     6     6     7    1
     7     7     8    2
     8     7     9    2
     9     7    10    1
    10    10    11    1
    11    11    12    1
    12    12    13    2
    13    13    14    1
    14    14    15    2
    15    15    16    1
    16    16    17    2
    17    10    18    1
    18    18    19    1
    19    19    20    2
    20    19    21   am
    21    21    22    1
    22    18    23    1
    23    23    24    1
    24    23    25    1
    25     6    26    1
    26    26    27    2
    27    27     3    1
    28    17    12    1
@<TRIPOS>SUBSTRUCTURE
     1 RES1        1 GROUP             0 ****  ****    0  
@<TRIPOS>MOLECULE
ligand_81
    27    28     1     0     0
SMALL
NO_CHARGES
****
Generated from the CSD

@<TRIPOS>ATOM
     1 C1     -16.0499  19.3930 -26.3180   C.3       1 RES1   0.0000
     2 O2     -15.8130  19.9490 -25.0190   O.3       1 RES1   0.0000
     3 C3     -15.6580  21.3020 -24.8580   C.2       1 RES1   0.0000
     4 C4     -15.7282  22.1641 -25.9575   C.2       1 RES1   0.0000
     5 C5     -15.5661  23.5391 -25.7865   C.2       1 RES1   0.0000
     6 C6     -15.3348  24.0430 -24.5131   C.2       1 RES1   0.0000
     7 S7     -15.1282  25.7659 -24.2432   S.o2      1 RES1   0.0000
     8 O8     -15.8558  26.4707 -25.2493   O.2       1 RES1   0.0000
     9 O9     -15.4805  26.0276 -22.8774   O.2       1 RES1   0.0000
    10 N10    -13.5291  26.0778 -24.3916   N.pl3     1 RES1   0.0000
    11 C11    -12.6532  25.5220 -25.4628   C.3       1 RES1   0.0000
    12 C12    -12.9100  26.0304 -26.8735   C.2       1 RES1   0.0000
    13 C13    -12.8015  27.3975 -27.1539   C.2       1 RES1   0.0000
    14 C14    -13.0260  27.8666 -28.4530   C.2       1 RES1   0.0000
    15 C15    -13.3861  26.9738 -29.4631   C.2       1 RES1   0.0000
    16 N16    -13.4979  25.6205 -29.1930   N.2       1 RES1   0.0000
    17 C17    -13.2765  25.1553 -27.9026   C.2       1 RES1   0.0000
    18 C18    -12.8612  26.8677 -23.3258   C.3       1 RES1   0.0000
    19 C19    -11.6829  26.1063 -22.7576   C.2       1 RES1   0.0000
    20 O20    -10.6396  26.0452 -23.3830   O.2       1 RES1   0.0000
    21 N21    -11.8336  25.5239 -21.5747   N.am      1 RES1   0.0000
    22 O22    -10.8189  24.7068 -21.0639   O.3       1 RES1   0.0000
    23 C23    -12.4013  28.2597 -23.7896   C.3       1 RES1   0.0000
    24 C24    -13.5419  29.1142 -24.3473   C.3       1 RES1   0.0000
    25 C25    -11.7062  29.0401 -22.6668   C.3       1 RES1   0.0000
    26 C26    -15.2607  23.1799 -23.4236   C.2       1 RES1   0.0000
    27 C27    -15.4188  21.8089 -23.5926   C.2       1 RES1   0.0000
@<TRIPOS>BOND
     1     1     2    1
     2     2     3    1
     3     3     4    2
     4     4     5    1
     5     5     6    2
     6     6     7    1
     7     7     8    2
     8     7     9    2
     9     7    10    1
    10    10    11    1
    11    11    12    1
    12    12    13    2
    13    13    14    1
    14    14    15    2
    15    15    16    1
    16    16    17    2
    17    10    18    1
    18    18    19    1
    19    19    20    2
    20    19    21   am
    21    21    22    1
    22    18    23    1
    23    23    24    1
    24    23    25    1
    25     6    26    1
    26    26    27    2
    27    27     3    1
    28    17    12    1
@<TRIPOS>SUBSTRUCTURE
     1 RES1        1 GROUP             0 ****  ****    0  
@<TRIPOS>MOLECULE
ligand_82
    27    28     1     0     0
SMALL
NO_CHARGES
****
Generated from the CSD

@<TRIPOS>ATOM
     1 C1     -16.0080  19.3888 -26.3233   C.3       1 RES1   0.0000
     2 O2     -15.8183  19.9496 -25.0186   O.3       1 RES1   0.0000
     3 C3     -15.6613  21.3024 -24.8579   C.2       1 RES1   0.0000
     4 C4     -15.6834  22.1596 -25.9631   C.2       1 RES1   0.0000
     5 C5     -15.5196  23.5344 -25.7922   C.2       1 RES1   0.0000
     6 C6     -15.3348  24.0430 -24.5131   C.2       1 RES1   0.0000
     7 S7     -15.1282  25.7659 -24.2432   S.o2      1 RES1   0.0000
     8 O8     -15.8558  26.4707 -25.2493   O.2       1 RES1   0.0000
     9 O9     -15.4805  26.0276 -22.8774   O.2       1 RES1   0.0000
    10 N10    -13.5291  26.0778 -24.3916   N.pl3     1 RES1   0.0000
    11 C11    -12.4585  25.4130 -23.5944   C.3       1 RES1   0.0000
    12 C12    -12.2054  23.9444 -23.9000   C.2       1 RES1   0.0000
    13 C13    -12.2980  22.9921 -22.8783   C.2       1 RES1   0.0000
    14 C14    -12.0769  21.6391 -23.1588   C.2       1 RES1   0.0000
    15 C15    -11.7358  21.2431 -24.4526   C.2       1 RES1   0.0000
    16 N16    -11.6397  22.1793 -25.4680   N.2       1 RES1   0.0000
    17 C17    -11.8578  23.5228 -25.1887   C.2       1 RES1   0.0000
    18 C18    -13.1048  27.1823 -25.2893   C.3       1 RES1   0.0000
    19 C19    -12.2378  28.1728 -24.5421   C.2       1 RES1   0.0000
    20 O20    -11.0724  27.9065 -24.3094   O.2       1 RES1   0.0000
    21 N21    -12.7910  29.3179 -24.1628   N.am      1 RES1   0.0000
    22 O22    -12.0693  30.2116 -23.3636   O.3       1 RES1   0.0000
    23 C23    -12.3689  26.7006 -26.5505   C.3       1 RES1   0.0000
    24 C24    -13.1883  25.7122 -27.3835   C.3       1 RES1   0.0000
    25 C25    -11.9444  27.8680 -27.4505   C.3       1 RES1   0.0000
    26 C26    -15.3084  23.1847 -23.4177   C.2       1 RES1   0.0000
    27 C27    -15.4682  21.8139 -23.5865   C.2       1 RES1   0.0000
@<TRIPOS>BOND
     1     1     2    1
     2     2     3    1
     3     3     4    2
     4     4     5    1
     5     5     6    2
     6     6     7    1
     7     7     8    2
     8     7     9    2
     9     7    10    1
    10    10    11    1
    11    11    12    1
    12    12    13    2
    13    13    14    1
    14    14    15    2
    15    15    16    1
    16    16    17    2
    17    10    18    1
    18    18    19    1
    19    19    20    2
    20    19    21   am
    21    21    22    1
    22    18    23    1
    23    23    24    1
    24    23    25    1
    25     6    26    1
    26    26    27    2
    27    27     3    1
    28    17    12    1
@<TRIPOS>SUBSTRUCTURE
     1 RES1        1 GROUP             0 ****  ****    0  
@<TRIPOS>MOLECULE
ligand_83
    27    28     1     0     0
SMALL
NO_CHARGES
****
Generated from the CSD

@<TRIPOS>ATOM
     1 C1     -16.0499  19.3930 -26.3180   C.3       1 RES1   0.0000
     2 O2     -15.8130  19.9490 -25.0190   O.3       1 RES1   0.0000
     3 C3     -15.6580  21.3020 -24.8580   C.2       1 RES1   0.0000
     4 C4     -15.7282  22.1641 -25.9575   C.2       1 RES1   0.0000
     5 C5     -15.5661  23.5391 -25.7865   C.2       1 RES1   0.0000
     6 C6     -15.3348  24.0430 -24.5131   C.2       1 RES1   0.0000
     7 S7     -15.1282  25.7659 -24.2432   S.o2      1 RES1   0.0000
     8 O8     -14.2945  25.9465 -23.0984   O.2       1 RES1   0.0000
     9 O9     -14.6759  26.3385 -25.4782   O.2       1 RES1   0.0000
    10 N10    -16.6164  26.3788 -23.9499   N.pl3     1 RES1   0.0000
    11 C11    -17.6356  25.7432 -23.0661   C.3       1 RES1   0.0000
    12 C12    -17.3308  25.7476 -21.5757   C.2       1 RES1   0.0000
    13 C13    -17.2403  24.5378 -20.8775   C.2       1 RES1   0.0000
    14 C14    -16.9488  24.5383 -19.5089   C.2       1 RES1   0.0000
    15 C15    -16.7763  25.7476 -18.8342   C.2       1 RES1   0.0000
    16 N16    -16.8668  26.9484 -19.5174   N.2       1 RES1   0.0000
    17 C17    -17.1578  26.9475 -20.8759   C.2       1 RES1   0.0000
    18 C18    -17.0445  27.5858 -24.7020   C.3       1 RES1   0.0000
    19 C19    -18.3373  27.3210 -25.4432   C.2       1 RES1   0.0000
    20 O20    -19.3939  27.3076 -24.8376   O.2       1 RES1   0.0000
    21 N21    -18.2695  27.1109 -26.7519   N.am      1 RES1   0.0000
    22 O22    -19.4178  26.7401 -27.4604   O.3       1 RES1   0.0000
    23 C23    -17.2017  28.8355 -23.8200   C.3       1 RES1   0.0000
    24 C24    -15.9270  29.1933 -23.0523   C.3       1 RES1   0.0000
    25 C25    -17.6474  30.0595 -24.6301   C.3       1 RES1   0.0000
    26 C26    -15.2607  23.1799 -23.4236   C.2       1 RES1   0.0000
    27 C27    -15.4188  21.8089 -23.5926   C.2       1 RES1   0.0000
@<TRIPOS>BOND
     1     1     2    1
     2     2     3    1
     3     3     4    2
     4     4     5    1
     5     5     6    2
     6     6     7    1
     7     7     8    2
     8     7     9    2
     9     7    10    1
    10    10    11    1
    11    11    12    1
    12    12    13    2
    13    13    14    1
    14    14    15    2
    15    15    16    1
    16    16    17    2
    17    10    18    1
    18    18    19    1
    19    19    20    2
    20    19    21   am
    21    21    22    1
    22    18    23    1
    23    23    24    1
    24    23    25    1
    25     6    26    1
    26    26    27    2
    27    27     3    1
    28    17    12    1
@<TRIPOS>SUBSTRUCTURE
     1 RES1        1 GROUP             0 ****  ****    0  
@<TRIPOS>MOLECULE
ligand_84
    27    28     1     0     0
SMALL
NO_CHARGES
****
Generated from the CSD

@<TRIPOS>ATOM
     1 C1     -16.0499  19.3930 -26.3180   C.3       1 RES1   0.0000
     2 O2     -15.8130  19.9490 -25.0190   O.3       1 RES1   0.0000
     3 C3     -15.6580  21.3020 -24.8580   C.2       1 RES1   0.0000
     4 C4     -15.7282  22.1641 -25.9575   C.2       1 RES1   0.0000
     5 C5     -15.5661  23.5391 -25.7865   C.2       1 RES1   0.0000
     6 C6     -15.3348  24.0430 -24.5131   C.2       1 RES1   0.0000
     7 S7     -15.1282  25.7659 -24.2432   S.o2      1 RES1   0.0000
     8 O8     -14.2945  25.9465 -23.0984   O.2       1 RES1   0.0000
     9 O9     -14.6759  26.3385 -25.4782   O.2       1 RES1   0.0000
    10 N10    -16.6164  26.3788 -23.9499   N.pl3     1 RES1   0.0000
    11 C11    -17.6355  25.7432 -23.0661   C.3       1 RES1   0.0000
    12 C12    -17.3201  25.7275 -21.5779   C.2       1 RES1   0.0000
    13 C13    -17.1205  26.9321 -20.8934   C.2       1 RES1   0.0000
    14 C14    -16.8415  26.9213 -19.5222   C.2       1 RES1   0.0000
    15 C15    -16.7340  25.7070 -18.8431   C.2       1 RES1   0.0000
    16 N16    -16.9275  24.5113 -19.5138   N.2       1 RES1   0.0000
    17 C17    -17.2030  24.5225 -20.8756   C.2       1 RES1   0.0000
    18 C18    -17.0445  27.5858 -24.7020   C.3       1 RES1   0.0000
    19 C19    -18.3456  27.3260 -25.4304   C.2       1 RES1   0.0000
    20 O20    -19.3967  27.3213 -24.8150   O.2       1 RES1   0.0000
    21 N21    -18.2912  27.1105 -26.7387   N.am      1 RES1   0.0000
    22 O22    -19.4482  26.7440 -27.4352   O.3       1 RES1   0.0000
    23 C23    -17.1864  28.8393 -23.8229   C.3       1 RES1   0.0000
    24 C24    -15.9002  29.1968 -23.0744   C.3       1 RES1   0.0000
    25 C25    -17.6402  30.0612 -24.6314   C.3       1 RES1   0.0000
    26 C26    -15.2607  23.1799 -23.4236   C.2       1 RES1   0.0000
    27 C27    -15.4188  21.8089 -23.5926   C.2       1 RES1   0.0000
@<TRIPOS>BOND
     1     1     2    1
     2     2     3    1
     3     3     4    2
     4     4     5    1
     5     5     6    2
     6     6     7    1
     7     7     8    2
     8     7     9    2
     9     7    10    1
    10    10    11    1
    11    11    12    1
    12    12    13    2
    13    13    14    1
    14    14    15    2
    15    15    16    1
    16    16    17    2
    17    10    18    1
    18    18    19    1
    19    19    20    2
    20    19    21   am
    21    21    22    1
    22    18    23    1
    23    23    24    1
    24    23    25    1
    25     6    26    1
    26    26    27    2
    27    27     3    1
    28    17    12    1
@<TRIPOS>SUBSTRUCTURE
     1 RES1        1 GROUP             0 ****  ****    0  
@<TRIPOS>MOLECULE
ligand_85
    27    28     1     0     0
SMALL
NO_CHARGES
****
Generated from the CSD

@<TRIPOS>ATOM
     1 C1     -16.0123  19.3892 -26.3228   C.3       1 RES1   0.0000
     2 O2     -15.8177  19.9495 -25.0186   O.3       1 RES1   0.0000
     3 C3     -15.6609  21.3023 -24.8579   C.2       1 RES1   0.0000
     4 C4     -15.6881  22.1601 -25.9626   C.2       1 RES1   0.0000
     5 C5     -15.5244  23.5349 -25.7917   C.2       1 RES1   0.0000
     6 C6     -15.3348  24.0430 -24.5131   C.2       1 RES1   0.0000
     7 S7     -15.1282  25.7659 -24.2432   S.o2      1 RES1   0.0000
     8 O8     -14.2945  25.9465 -23.0984   O.2       1 RES1   0.0000
     9 O9     -14.6759  26.3385 -25.4782   O.2       1 RES1   0.0000
    10 N10    -16.6164  26.3788 -23.9499   N.pl3     1 RES1   0.0000
    11 C11    -17.7816  26.2526 -24.8719   C.3       1 RES1   0.0000
    12 C12    -18.3778  24.8605 -25.0166   C.2       1 RES1   0.0000
    13 C13    -18.4680  24.2671 -26.2812   C.2       1 RES1   0.0000
    14 C14    -19.0053  22.9821 -26.4159   C.2       1 RES1   0.0000
    15 C15    -19.4777  22.3036 -25.2918   C.2       1 RES1   0.0000
    16 N16    -19.3943  22.8849 -24.0379   N.2       1 RES1   0.0000
    17 C17    -18.8621  24.1614 -23.9048   C.2       1 RES1   0.0000
    18 C18    -16.8068  27.2266 -22.7454   C.3       1 RES1   0.0000
    19 C19    -17.3930  28.5691 -23.1260   C.2       1 RES1   0.0000
    20 O20    -18.5788  28.6630 -23.3873   O.2       1 RES1   0.0000
    21 N21    -16.5764  29.6147 -23.1597   N.am      1 RES1   0.0000
    22 O22    -17.0418  30.8499 -23.6244   O.3       1 RES1   0.0000
    23 C23    -17.6804  26.5698 -21.6638   C.3       1 RES1   0.0000
    24 C24    -17.1431  25.2144 -21.1988   C.3       1 RES1   0.0000
    25 C25    -17.8569  27.4752 -20.4381   C.3       1 RES1   0.0000
    26 C26    -15.3035  23.1842 -23.4182   C.2       1 RES1   0.0000
    27 C27    -15.4631  21.8133 -23.5870   C.2       1 RES1   0.0000
@<TRIPOS>BOND
     1     1     2    1
     2     2     3    1
     3     3     4    2
     4     4     5    1
     5     5     6    2
     6     6     7    1
     7     7     8    2
     8     7     9    2
     9     7    10    1
    10    10    11    1
    11    11    12    1
    12    12    13    2
    13    13    14    1
    14    14    15    2
    15    15    16    1
    16    16    17    2
    17    10    18    1
    18    18    19    1
    19    19    20    2
    20    19    21   am
    21    21    22    1
    22    18    23    1
    23    23    24    1
    24    23    25    1
    25     6    26    1
    26    26    27    2
    27    27     3    1
    28    17    12    1
@<TRIPOS>SUBSTRUCTURE
     1 RES1        1 GROUP             0 ****  ****    0  
@<TRIPOS>MOLECULE
ligand_86
    27    28     1     0     0
SMALL
NO_CHARGES
****
Generated from the CSD

@<TRIPOS>ATOM
     1 C1     -16.0101  19.3890 -26.3231   C.3       1 RES1   0.0000
     2 O2     -15.8180  19.9495 -25.0186   O.3       1 RES1   0.0000
     3 C3     -15.6611  21.3024 -24.8579   C.2       1 RES1   0.0000
     4 C4     -15.6857  22.1598 -25.9629   C.2       1 RES1   0.0000
     5 C5     -15.5219  23.5347 -25.7920   C.2       1 RES1   0.0000
     6 C6     -15.3348  24.0430 -24.5131   C.2       1 RES1   0.0000
     7 S7     -15.1282  25.7659 -24.2432   S.o2      1 RES1   0.0000
     8 O8     -14.2945  25.9465 -23.0984   O.2       1 RES1   0.0000
     9 O9     -14.6759  26.3385 -25.4782   O.2       1 RES1   0.0000
    10 N10    -16.6164  26.3788 -23.9499   N.pl3     1 RES1   0.0000
    11 C11    -17.7828  26.2487 -24.8698   C.3       1 RES1   0.0000
    12 C12    -18.3652  24.8519 -25.0249   C.2       1 RES1   0.0000
    13 C13    -18.8158  24.1538 -23.8984   C.2       1 RES1   0.0000
    14 C14    -19.3625  22.8734 -24.0395   C.2       1 RES1   0.0000
    15 C15    -19.4320  22.2812 -25.3010   C.2       1 RES1   0.0000
    16 N16    -18.9861  22.9643 -26.4197   N.2       1 RES1   0.0000
    17 C17    -18.4419  24.2349 -26.2790   C.2       1 RES1   0.0000
    18 C18    -16.8057  27.2305 -22.7479   C.3       1 RES1   0.0000
    19 C19    -17.4036  28.5671 -23.1310   C.2       1 RES1   0.0000
    20 O20    -18.5919  28.6517 -23.3845   O.2       1 RES1   0.0000
    21 N21    -16.5945  29.6181 -23.1753   N.am      1 RES1   0.0000
    22 O22    -17.0714  30.8479 -23.6426   O.3       1 RES1   0.0000
    23 C23    -17.6682  26.5724 -21.6583   C.3       1 RES1   0.0000
    24 C24    -17.1097  25.2306 -21.1789   C.3       1 RES1   0.0000
    25 C25    -17.8576  27.4883 -20.4426   C.3       1 RES1   0.0000
    26 C26    -15.3060  23.1844 -23.4179   C.2       1 RES1   0.0000
    27 C27    -15.4658  21.8136 -23.5867   C.2       1 RES1   0.0000
@<TRIPOS>BOND
     1     1     2    1
     2     2     3    1
     3     3     4    2
     4     4     5    1
     5     5     6    2
     6     6     7    1
     7     7     8    2
     8     7     9    2
     9     7    10    1
    10    10    11    1
    11    11    12    1
    12    12    13    2
    13    13    14    1
    14    14    15    2
    15    15    16    1
    16    16    17    2
    17    10    18    1
    18    18    19    1
    19    19    20    2
    20    19    21   am
    21    21    22    1
    22    18    23    1
    23    23    24    1
    24    23    25    1
    25     6    26    1
    26    26    27    2
    27    27     3    1
    28    17    12    1
@<TRIPOS>SUBSTRUCTURE
     1 RES1        1 GROUP             0 ****  ****    0  
@<TRIPOS>MOLECULE
ligand_87
    27    28     1     0     0
SMALL
NO_CHARGES
****
Generated from the CSD

@<TRIPOS>ATOM
     1 C1     -15.9972  19.3877 -26.3242   C.3       1 RES1   0.0000
     2 O2     -15.8080  19.9485 -25.0194   O.3       1 RES1   0.0000
     3 C3     -15.6549  21.3017 -24.8581   C.2       1 RES1   0.0000
     4 C4     -15.4690  21.8521 -23.5856   C.2       1 RES1   0.0000
     5 C5     -15.3174  23.2300 -23.4289   C.2       1 RES1   0.0000
     6 C6     -15.3524  24.0494 -24.5498   C.2       1 RES1   0.0000
     7 S7     -15.1623  25.7894 -24.4077   S.o2      1 RES1   0.0000
     8 O8     -15.9041  26.4115 -25.4570   O.2       1 RES1   0.0000
     9 O9     -15.5082  26.1464 -23.0620   O.2       1 RES1   0.0000
    10 N10    -13.5676  26.1057 -24.5904   N.pl3     1 RES1   0.0000
    11 C11    -12.4845  25.5093 -23.7569   C.3       1 RES1   0.0000
    12 C12    -12.2326  24.0209 -23.9451   C.2       1 RES1   0.0000
    13 C13    -11.9194  23.5203 -25.2143   C.2       1 RES1   0.0000
    14 C14    -11.6760  22.1534 -25.3882   C.2       1 RES1   0.0000
    15 C15    -11.7738  21.2848 -24.3005   C.2       1 RES1   0.0000
    16 N16    -12.0856  21.7719 -23.0426   N.2       1 RES1   0.0000
    17 C17    -12.3288  23.1290 -22.8706   C.2       1 RES1   0.0000
    18 C18    -13.1613  27.1484 -25.5669   C.3       1 RES1   0.0000
    19 C19    -12.2908  28.1920 -24.9006   C.2       1 RES1   0.0000
    20 O20    -11.1207  27.9483 -24.6660   O.2       1 RES1   0.0000
    21 N21    -12.8460  29.3574 -24.5926   N.am      1 RES1   0.0000
    22 O22    -12.1194  30.3071 -23.8659   O.3       1 RES1   0.0000
    23 C23    -12.4388  26.5853 -26.8018   C.3       1 RES1   0.0000
    24 C24    -13.2695  25.5504 -27.5640   C.3       1 RES1   0.0000
    25 C25    -12.0176  27.6921 -27.7769   C.3       1 RES1   0.0000
    26 C26    -15.5429  23.4966 -25.8129   C.2       1 RES1   0.0000
    27 C27    -15.6975  22.1238 -25.9706   C.2       1 RES1   0.0000
@<TRIPOS>BOND
     1     1     2    1
     2     2     3    1
     3     3     4    2
     4     4     5    1
     5     5     6    2
     6     6     7    1
     7     7     8    2
     8     7     9    2
     9     7    10    1
    10    10    11    1
    11    11    12    1
    12    12    13    2
    13    13    14    1
    14    14    15    2
    15    15    16    1
    16    16    17    2
    17    10    18    1
    18    18    19    1
    19    19    20    2
    20    19    21   am
    21    21    22    1
    22    18    23    1
    23    23    24    1
    24    23    25    1
    25     6    26    1
    26    26    27    2
    27    27     3    1
    28    17    12    1
@<TRIPOS>SUBSTRUCTURE
     1 RES1        1 GROUP             0 ****  ****    0  
@<TRIPOS>MOLECULE
ligand_88
    27    28     1     0     0
SMALL
NO_CHARGES
****
Generated from the CSD

@<TRIPOS>ATOM
     1 C1     -16.0860  19.3964 -26.3121   C.3       1 RES1   0.0000
     2 O2     -15.8085  19.9485 -25.0195   O.3       1 RES1   0.0000
     3 C3     -15.6552  21.3017 -24.8582   C.2       1 RES1   0.0000
     4 C4     -15.7667  22.1677 -25.9512   C.2       1 RES1   0.0000
     5 C5     -15.6062  23.5429 -25.7801   C.2       1 RES1   0.0000
     6 C6     -15.3348  24.0430 -24.5131   C.2       1 RES1   0.0000
     7 S7     -15.1282  25.7659 -24.2432   S.o2      1 RES1   0.0000
     8 O8     -15.8558  26.4707 -25.2493   O.2       1 RES1   0.0000
     9 O9     -15.4805  26.0276 -22.8774   O.2       1 RES1   0.0000
    10 N10    -13.5291  26.0778 -24.3916   N.pl3     1 RES1   0.0000
    11 C11    -12.6507  25.5124 -25.4557   C.3       1 RES1   0.0000
    12 C12    -12.7075  26.2005 -26.8113   C.2       1 RES1   0.0000
    13 C13    -11.5530  26.7818 -27.3487   C.2       1 RES1   0.0000
    14 C14    -11.5997  27.4053 -28.6005   C.2       1 RES1   0.0000
    15 C15    -12.8050  27.4724 -29.3005   C.2       1 RES1   0.0000
    16 N16    -13.9517  26.9021 -28.7744   N.2       1 RES1   0.0000
    17 C17    -13.9053  26.2845 -27.5307   C.2       1 RES1   0.0000
    18 C18    -12.8639  26.8785 -23.3323   C.3       1 RES1   0.0000
    19 C19    -11.7635  26.0772 -22.6706   C.2       1 RES1   0.0000
    20 O20    -10.7010  25.9145 -23.2433   O.2       1 RES1   0.0000
    21 N21    -12.0022  25.5734 -21.4662   N.am      1 RES1   0.0000
    22 O22    -11.0661  24.7237 -20.8663   O.3       1 RES1   0.0000
    23 C23    -12.2966  28.2153 -23.8377   C.3       1 RES1   0.0000
    24 C24    -13.3366  29.0742 -24.5609   C.3       1 RES1   0.0000
    25 C25    -11.6776  29.0433 -22.7045   C.3       1 RES1   0.0000
    26 C26    -15.2197  23.1760 -23.4303   C.2       1 RES1   0.0000
    27 C27    -15.3762  21.8049 -23.5995   C.2       1 RES1   0.0000
@<TRIPOS>BOND
     1     1     2    1
     2     2     3    1
     3     3     4    2
     4     4     5    1
     5     5     6    2
     6     6     7    1
     7     7     8    2
     8     7     9    2
     9     7    10    1
    10    10    11    1
    11    11    12    1
    12    12    13    2
    13    13    14    1
    14    14    15    2
    15    15    16    1
    16    16    17    2
    17    10    18    1
    18    18    19    1
    19    19    20    2
    20    19    21   am
    21    21    22    1
    22    18    23    1
    23    23    24    1
    24    23    25    1
    25     6    26    1
    26    26    27    2
    27    27     3    1
    28    17    12    1
@<TRIPOS>SUBSTRUCTURE
     1 RES1        1 GROUP             0 ****  ****    0  
@<TRIPOS>MOLECULE
ligand_89
    27    28     1     0     0
SMALL
NO_CHARGES
****
Generated from the CSD

@<TRIPOS>ATOM
     1 C1     -16.0903  19.3968 -26.3113   C.3       1 RES1   0.0000
     2 O2     -15.8079  19.9485 -25.0196   O.3       1 RES1   0.0000
     3 C3     -15.6548  21.3017 -24.8583   C.2       1 RES1   0.0000
     4 C4     -15.7714  22.1682 -25.9503   C.2       1 RES1   0.0000
     5 C5     -15.6110  23.5433 -25.7792   C.2       1 RES1   0.0000
     6 C6     -15.3348  24.0430 -24.5131   C.2       1 RES1   0.0000
     7 S7     -15.1282  25.7659 -24.2432   S.o2      1 RES1   0.0000
     8 O8     -14.2945  25.9465 -23.0984   O.2       1 RES1   0.0000
     9 O9     -14.6759  26.3385 -25.4782   O.2       1 RES1   0.0000
    10 N10    -16.6164  26.3788 -23.9499   N.pl3     1 RES1   0.0000
    11 C11    -17.6361  25.7424 -23.0673   C.3       1 RES1   0.0000
    12 C12    -17.4813  25.9883 -21.5740   C.2       1 RES1   0.0000
    13 C13    -18.5020  26.6289 -20.8619   C.2       1 RES1   0.0000
    14 C14    -18.3673  26.8461 -19.4862   C.2       1 RES1   0.0000
    15 C15    -17.2019  26.4491 -18.8294   C.2       1 RES1   0.0000
    16 N16    -16.1868  25.8171 -19.5273   N.2       1 RES1   0.0000
    17 C17    -16.3203  25.6031 -20.8936   C.2       1 RES1   0.0000
    18 C18    -17.0439  27.5867 -24.7009   C.3       1 RES1   0.0000
    19 C19    -18.2782  27.2921 -25.5258   C.2       1 RES1   0.0000
    20 O20    -19.3676  27.2201 -24.9860   O.2       1 RES1   0.0000
    21 N21    -18.1239  27.1216 -26.8329   N.am      1 RES1   0.0000
    22 O22    -19.2117  26.7259 -27.6191   O.3       1 RES1   0.0000
    23 C23    -17.3021  28.8085 -23.8037   C.3       1 RES1   0.0000
    24 C24    -16.1152  29.1523 -22.9008   C.3       1 RES1   0.0000
    25 C25    -17.6760  30.0528 -24.6190   C.3       1 RES1   0.0000
    26 C26    -15.2148  23.1756 -23.4312   C.2       1 RES1   0.0000
    27 C27    -15.3711  21.8044 -23.6005   C.2       1 RES1   0.0000
@<TRIPOS>BOND
     1     1     2    1
     2     2     3    1
     3     3     4    2
     4     4     5    1
     5     5     6    2
     6     6     7    1
     7     7     8    2
     8     7     9    2
     9     7    10    1
    10    10    11    1
    11    11    12    1
    12    12    13    2
    13    13    14    1
    14    14    15    2
    15    15    16    1
    16    16    17    2
    17    10    18    1
    18    18    19    1
    19    19    20    2
    20    19    21   am
    21    21    22    1
    22    18    23    1
    23    23    24    1
    24    23    25    1
    25     6    26    1
    26    26    27    2
    27    27     3    1
    28    17    12    1
@<TRIPOS>SUBSTRUCTURE
     1 RES1        1 GROUP             0 ****  ****    0  
@<TRIPOS>MOLECULE
ligand_90
    27    28     1     0     0
SMALL
NO_CHARGES
****
Generated from the CSD

@<TRIPOS>ATOM
     1 C1     -16.0906  19.3968 -26.3113   C.3       1 RES1   0.0000
     2 O2     -15.8079  19.9485 -25.0196   O.3       1 RES1   0.0000
     3 C3     -15.6548  21.3017 -24.8583   C.2       1 RES1   0.0000
     4 C4     -15.7717  22.1682 -25.9503   C.2       1 RES1   0.0000
     5 C5     -15.6113  23.5434 -25.7792   C.2       1 RES1   0.0000
     6 C6     -15.3348  24.0430 -24.5131   C.2       1 RES1   0.0000
     7 S7     -15.1282  25.7659 -24.2432   S.o2      1 RES1   0.0000
     8 O8     -15.8558  26.4707 -25.2493   O.2       1 RES1   0.0000
     9 O9     -15.4805  26.0276 -22.8774   O.2       1 RES1   0.0000
    10 N10    -13.5291  26.0778 -24.3916   N.pl3     1 RES1   0.0000
    11 C11    -12.6528  25.5202 -25.4615   C.3       1 RES1   0.0000
    12 C12    -12.7004  26.2279 -26.8074   C.2       1 RES1   0.0000
    13 C13    -13.9051  26.2999 -27.5166   C.2       1 RES1   0.0000
    14 C14    -13.9545  26.9601 -28.7493   C.2       1 RES1   0.0000
    15 C15    -12.7951  27.5222 -29.2850   C.2       1 RES1   0.0000
    16 N16    -11.5992  27.4529 -28.5908   N.2       1 RES1   0.0000
    17 C17    -11.5503  26.7959 -27.3675   C.2       1 RES1   0.0000
    18 C18    -12.8617  26.8696 -23.3270   C.3       1 RES1   0.0000
    19 C19    -11.7600  26.0628 -22.6743   C.2       1 RES1   0.0000
    20 O20    -10.6984  25.9054 -23.2502   O.2       1 RES1   0.0000
    21 N21    -11.9965  25.5483 -21.4740   N.am      1 RES1   0.0000
    22 O22    -11.0592  24.6935 -20.8832   O.3       1 RES1   0.0000
    23 C23    -12.2954  28.2106 -23.8224   C.3       1 RES1   0.0000
    24 C24    -13.3367  29.0755 -24.5362   C.3       1 RES1   0.0000
    25 C25    -11.6740  29.0291 -22.6836   C.3       1 RES1   0.0000
    26 C26    -15.2144  23.1755 -23.4313   C.2       1 RES1   0.0000
    27 C27    -15.3707  21.8044 -23.6005   C.2       1 RES1   0.0000
@<TRIPOS>BOND
     1     1     2    1
     2     2     3    1
     3     3     4    2
     4     4     5    1
     5     5     6    2
     6     6     7    1
     7     7     8    2
     8     7     9    2
     9     7    10    1
    10    10    11    1
    11    11    12    1
    12    12    13    2
    13    13    14    1
    14    14    15    2
    15    15    16    1
    16    16    17    2
    17    10    18    1
    18    18    19    1
    19    19    20    2
    20    19    21   am
    21    21    22    1
    22    18    23    1
    23    23    24    1
    24    23    25    1
    25     6    26    1
    26    26    27    2
    27    27     3    1
    28    17    12    1
@<TRIPOS>SUBSTRUCTURE
     1 RES1        1 GROUP             0 ****  ****    0  
@<TRIPOS>MOLECULE
ligand_91
    27    28     1     0     0
SMALL
NO_CHARGES
****
Generated from the CSD

@<TRIPOS>ATOM
     1 C1     -16.0954  19.3972 -26.3104   C.3       1 RES1   0.0000
     2 O2     -15.8073  19.9484 -25.0197   O.3       1 RES1   0.0000
     3 C3     -15.6544  21.3016 -24.8583   C.2       1 RES1   0.0000
     4 C4     -15.7768  22.1687 -25.9493   C.2       1 RES1   0.0000
     5 C5     -15.6166  23.5438 -25.7782   C.2       1 RES1   0.0000
     6 C6     -15.3348  24.0430 -24.5131   C.2       1 RES1   0.0000
     7 S7     -15.1282  25.7659 -24.2432   S.o2      1 RES1   0.0000
     8 O8     -14.2945  25.9465 -23.0984   O.2       1 RES1   0.0000
     9 O9     -14.6759  26.3385 -25.4782   O.2       1 RES1   0.0000
    10 N10    -16.6164  26.3788 -23.9499   N.pl3     1 RES1   0.0000
    11 C11    -17.6326  25.7473 -23.0598   C.3       1 RES1   0.0000
    12 C12    -17.4825  26.0164 -21.5700   C.2       1 RES1   0.0000
    13 C13    -16.3173  25.6211 -20.9026   C.2       1 RES1   0.0000
    14 C14    -16.1716  25.8775 -19.5347   C.2       1 RES1   0.0000
    15 C15    -17.2012  26.5022 -18.8299   C.2       1 RES1   0.0000
    16 N16    -18.3578  26.8939 -19.4825   N.2       1 RES1   0.0000
    17 C17    -18.5027  26.6377 -20.8404   C.2       1 RES1   0.0000
    18 C18    -17.0478  27.5807 -24.7082   C.3       1 RES1   0.0000
    19 C19    -18.2844  27.2786 -25.5270   C.2       1 RES1   0.0000
    20 O20    -19.3722  27.2105 -24.9834   O.2       1 RES1   0.0000
    21 N21    -18.1339  27.0974 -26.8331   N.am      1 RES1   0.0000
    22 O22    -19.2239  26.6946 -27.6127   O.3       1 RES1   0.0000
    23 C23    -17.3046  28.8086 -23.8191   C.3       1 RES1   0.0000
    24 C24    -16.1153  29.1605 -22.9226   C.3       1 RES1   0.0000
    25 C25    -17.6827  30.0466 -24.6422   C.3       1 RES1   0.0000
    26 C26    -15.2090  23.1750 -23.4323   C.2       1 RES1   0.0000
    27 C27    -15.3651  21.8039 -23.6016   C.2       1 RES1   0.0000
@<TRIPOS>BOND
     1     1     2    1
     2     2     3    1
     3     3     4    2
     4     4     5    1
     5     5     6    2
     6     6     7    1
     7     7     8    2
     8     7     9    2
     9     7    10    1
    10    10    11    1
    11    11    12    1
    12    12    13    2
    13    13    14    1
    14    14    15    2
    15    15    16    1
    16    16    17    2
    17    10    18    1
    18    18    19    1
    19    19    20    2
    20    19    21   am
    21    21    22    1
    22    18    23    1
    23    23    24    1
    24    23    25    1
    25     6    26    1
    26    26    27    2
    27    27     3    1
    28    17    12    1
@<TRIPOS>SUBSTRUCTURE
     1 RES1        1 GROUP             0 ****  ****    0  
@<TRIPOS>MOLECULE
ligand_92
    27    28     1     0     0
SMALL
NO_CHARGES
****
Generated from the CSD

@<TRIPOS>ATOM
     1 C1     -16.0499  19.3930 -26.3180   C.3       1 RES1   0.0000
     2 O2     -15.8130  19.9490 -25.0190   O.3       1 RES1   0.0000
     3 C3     -15.6580  21.3020 -24.8580   C.2       1 RES1   0.0000
     4 C4     -15.7282  22.1641 -25.9575   C.2       1 RES1   0.0000
     5 C5     -15.5661  23.5391 -25.7865   C.2       1 RES1   0.0000
     6 C6     -15.3348  24.0430 -24.5131   C.2       1 RES1   0.0000
     7 S7     -15.1282  25.7659 -24.2432   S.o2      1 RES1   0.0000
     8 O8     -15.8558  26.4707 -25.2493   O.2       1 RES1   0.0000
     9 O9     -15.4805  26.0276 -22.8774   O.2       1 RES1   0.0000
    10 N10    -13.5291  26.0778 -24.3916   N.pl3     1 RES1   0.0000
    11 C11    -12.6338  26.4685 -23.2649   C.3       1 RES1   0.0000
    12 C12    -12.7908  27.8882 -22.7416   C.2       1 RES1   0.0000
    13 C13    -13.7518  28.7374 -23.3028   C.2       1 RES1   0.0000
    14 C14    -13.9062  30.0401 -22.8158   C.2       1 RES1   0.0000
    15 C15    -13.0819  30.5018 -21.7890   C.2       1 RES1   0.0000
    16 N16    -12.1274  29.6688 -21.2305   N.2       1 RES1   0.0000
    17 C17    -11.9733  28.3759 -21.7154   C.2       1 RES1   0.0000
    18 C18    -12.9363  26.0975 -25.7532   C.3       1 RES1   0.0000
    19 C19    -12.5250  27.5032 -26.1349   C.2       1 RES1   0.0000
    20 O20    -11.3443  27.7885 -26.2235   O.2       1 RES1   0.0000
    21 N21    -13.4859  28.3892 -26.3649   N.am      1 RES1   0.0000
    22 O22    -13.1590  29.7295 -26.5990   O.3       1 RES1   0.0000
    23 C23    -11.7386  25.1471 -25.9156   C.3       1 RES1   0.0000
    24 C24    -12.0422  23.7159 -25.4666   C.3       1 RES1   0.0000
    25 C25    -11.2247  25.1101 -27.3605   C.3       1 RES1   0.0000
    26 C26    -15.2607  23.1799 -23.4236   C.2       1 RES1   0.0000
    27 C27    -15.4188  21.8089 -23.5926   C.2       1 RES1   0.0000
@<TRIPOS>BOND
     1     1     2    1
     2     2     3    1
     3     3     4    2
     4     4     5    1
     5     5     6    2
     6     6     7    1
     7     7     8    2
     8     7     9    2
     9     7    10    1
    10    10    11    1
    11    11    12    1
    12    12    13    2
    13    13    14    1
    14    14    15    2
    15    15    16    1
    16    16    17    2
    17    10    18    1
    18    18    19    1
    19    19    20    2
    20    19    21   am
    21    21    22    1
    22    18    23    1
    23    23    24    1
    24    23    25    1
    25     6    26    1
    26    26    27    2
    27    27     3    1
    28    17    12    1
@<TRIPOS>SUBSTRUCTURE
     1 RES1        1 GROUP             0 ****  ****    0  
@<TRIPOS>MOLECULE
ligand_93
    27    28     1     0     0
SMALL
NO_CHARGES
****
Generated from the CSD

@<TRIPOS>ATOM
     1 C1     -16.0499  19.3930 -26.3180   C.3       1 RES1   0.0000
     2 O2     -15.8130  19.9490 -25.0190   O.3       1 RES1   0.0000
     3 C3     -15.6580  21.3020 -24.8580   C.2       1 RES1   0.0000
     4 C4     -15.7282  22.1641 -25.9575   C.2       1 RES1   0.0000
     5 C5     -15.5661  23.5391 -25.7865   C.2       1 RES1   0.0000
     6 C6     -15.3348  24.0430 -24.5131   C.2       1 RES1   0.0000
     7 S7     -15.1282  25.7659 -24.2432   S.o2      1 RES1   0.0000
     8 O8     -14.2945  25.9465 -23.0984   O.2       1 RES1   0.0000
     9 O9     -14.6759  26.3385 -25.4782   O.2       1 RES1   0.0000
    10 N10    -16.6164  26.3788 -23.9499   N.pl3     1 RES1   0.0000
    11 C11    -17.3561  27.2867 -24.8731   C.3       1 RES1   0.0000
    12 C12    -16.8567  28.7216 -24.9492   C.2       1 RES1   0.0000
    13 C13    -15.7466  29.1161 -24.1931   C.2       1 RES1   0.0000
    14 C14    -15.2781  30.4324 -24.2698   C.2       1 RES1   0.0000
    15 C15    -15.9359  31.3595 -25.0790   C.2       1 RES1   0.0000
    16 N16    -17.0361  30.9777 -25.8278   N.2       1 RES1   0.0000
    17 C17    -17.5019  29.6710 -25.7502   C.2       1 RES1   0.0000
    18 C18    -17.2375  26.1232 -22.6252   C.3       1 RES1   0.0000
    19 C19    -17.3267  27.4035 -21.8228   C.2       1 RES1   0.0000
    20 O20    -18.4121  27.9132 -21.6095   O.2       1 RES1   0.0000
    21 N21    -16.1962  27.9319 -21.3711   N.am      1 RES1   0.0000
    22 O22    -16.2132  29.1767 -20.7321   O.3       1 RES1   0.0000
    23 C23    -18.6274  25.4715 -22.7138   C.3       1 RES1   0.0000
    24 C24    -18.6463  24.2128 -23.5841   C.3       1 RES1   0.0000
    25 C25    -19.1879  25.1205 -21.3297   C.3       1 RES1   0.0000
    26 C26    -15.2607  23.1799 -23.4236   C.2       1 RES1   0.0000
    27 C27    -15.4188  21.8089 -23.5926   C.2       1 RES1   0.0000
@<TRIPOS>BOND
     1     1     2    1
     2     2     3    1
     3     3     4    2
     4     4     5    1
     5     5     6    2
     6     6     7    1
     7     7     8    2
     8     7     9    2
     9     7    10    1
    10    10    11    1
    11    11    12    1
    12    12    13    2
    13    13    14    1
    14    14    15    2
    15    15    16    1
    16    16    17    2
    17    10    18    1
    18    18    19    1
    19    19    20    2
    20    19    21   am
    21    21    22    1
    22    18    23    1
    23    23    24    1
    24    23    25    1
    25     6    26    1
    26    26    27    2
    27    27     3    1
    28    17    12    1
@<TRIPOS>SUBSTRUCTURE
     1 RES1        1 GROUP             0 ****  ****    0  
@<TRIPOS>MOLECULE
ligand_94
    27    28     1     0     0
SMALL
NO_CHARGES
****
Generated from the CSD

@<TRIPOS>ATOM
     1 C1     -15.9332  19.3807 -26.3286   C.3       1 RES1   0.0000
     2 O2     -15.8276  19.9507 -25.0184   O.3       1 RES1   0.0000
     3 C3     -15.6671  21.3031 -24.8579   C.2       1 RES1   0.0000
     4 C4     -15.6035  22.1509 -25.9688   C.2       1 RES1   0.0000
     5 C5     -15.4367  23.5254 -25.7979   C.2       1 RES1   0.0000
     6 C6     -15.3348  24.0430 -24.5131   C.2       1 RES1   0.0000
     7 S7     -15.1282  25.7659 -24.2432   S.o2      1 RES1   0.0000
     8 O8     -14.2945  25.9465 -23.0984   O.2       1 RES1   0.0000
     9 O9     -14.6759  26.3385 -25.4782   O.2       1 RES1   0.0000
    10 N10    -16.6164  26.3788 -23.9499   N.pl3     1 RES1   0.0000
    11 C11    -17.3002  27.3902 -24.8061   C.3       1 RES1   0.0000
    12 C12    -17.8591  26.8856 -26.1280   C.2       1 RES1   0.0000
    13 C13    -18.4704  27.7796 -27.0149   C.2       1 RES1   0.0000
    14 C14    -18.9751  27.3203 -28.2365   C.2       1 RES1   0.0000
    15 C15    -18.8943  25.9648 -28.5577   C.2       1 RES1   0.0000
    16 N16    -18.2935  25.0739 -27.6847   N.2       1 RES1   0.0000
    17 C17    -17.7938  25.5302 -26.4711   C.2       1 RES1   0.0000
    18 C18    -17.2973  26.0059 -22.6837   C.3       1 RES1   0.0000
    19 C19    -17.3222  27.1785 -21.7269   C.2       1 RES1   0.0000
    20 O20    -18.3738  27.7425 -21.4833   O.2       1 RES1   0.0000
    21 N21    -16.1743  27.5541 -21.1770   N.am      1 RES1   0.0000
    22 O22    -16.1232  28.7063 -20.3845   O.3       1 RES1   0.0000
    23 C23    -18.7261  25.4756 -22.8876   C.3       1 RES1   0.0000
    24 C24    -18.7893  24.2614 -23.8171   C.3       1 RES1   0.0000
    25 C25    -19.4007  25.1127 -21.5586   C.3       1 RES1   0.0000
    26 C26    -15.3935  23.1940 -23.4117   C.2       1 RES1   0.0000
    27 C27    -15.5565  21.8235 -23.5803   C.2       1 RES1   0.0000
@<TRIPOS>BOND
     1     1     2    1
     2     2     3    1
     3     3     4    2
     4     4     5    1
     5     5     6    2
     6     6     7    1
     7     7     8    2
     8     7     9    2
     9     7    10    1
    10    10    11    1
    11    11    12    1
    12    12    13    2
    13    13    14    1
    14    14    15    2
    15    15    16    1
    16    16    17    2
    17    10    18    1
    18    18    19    1
    19    19    20    2
    20    19    21   am
    21    21    22    1
    22    18    23    1
    23    23    24    1
    24    23    25    1
    25     6    26    1
    26    26    27    2
    27    27     3    1
    28    17    12    1
@<TRIPOS>SUBSTRUCTURE
     1 RES1        1 GROUP             0 ****  ****    0  
@<TRIPOS>MOLECULE
ligand_95
    27    28     1     0     0
SMALL
NO_CHARGES
****
Generated from the CSD

@<TRIPOS>ATOM
     1 C1     -15.9301  19.3803 -26.3287   C.3       1 RES1   0.0000
     2 O2     -15.8280  19.9507 -25.0184   O.3       1 RES1   0.0000
     3 C3     -15.6674  21.3031 -24.8579   C.2       1 RES1   0.0000
     4 C4     -15.6002  22.1506 -25.9689   C.2       1 RES1   0.0000
     5 C5     -15.4333  23.5250 -25.7980   C.2       1 RES1   0.0000
     6 C6     -15.3348  24.0430 -24.5131   C.2       1 RES1   0.0000
     7 S7     -15.1282  25.7659 -24.2432   S.o2      1 RES1   0.0000
     8 O8     -14.2945  25.9465 -23.0984   O.2       1 RES1   0.0000
     9 O9     -14.6759  26.3385 -25.4782   O.2       1 RES1   0.0000
    10 N10    -16.6164  26.3788 -23.9499   N.pl3     1 RES1   0.0000
    11 C11    -17.2907  27.4072 -24.7933   C.3       1 RES1   0.0000
    12 C12    -17.8483  26.9259 -26.1244   C.2       1 RES1   0.0000
    13 C13    -17.7630  25.5719 -26.4690   C.2       1 RES1   0.0000
    14 C14    -18.2852  25.1244 -27.6877   C.2       1 RES1   0.0000
    15 C15    -18.8658  26.0340 -28.5723   C.2       1 RES1   0.0000
    16 N16    -18.9516  27.3753 -28.2397   N.2       1 RES1   0.0000
    17 C17    -18.4316  27.8194 -27.0303   C.2       1 RES1   0.0000
    18 C18    -17.3076  25.9865 -22.6952   C.3       1 RES1   0.0000
    19 C19    -17.3362  27.1426 -21.7188   C.2       1 RES1   0.0000
    20 O20    -18.3881  27.7053 -21.4731   O.2       1 RES1   0.0000
    21 N21    -16.1913  27.5058 -21.1546   N.am      1 RES1   0.0000
    22 O22    -16.1428  28.6442 -20.3423   O.3       1 RES1   0.0000
    23 C23    -18.7363  25.4638 -22.9185   C.3       1 RES1   0.0000
    24 C24    -18.7958  24.2642 -23.8669   C.3       1 RES1   0.0000
    25 C25    -19.4226  25.0828 -21.6006   C.3       1 RES1   0.0000
    26 C26    -15.3970  23.1944 -23.4116   C.2       1 RES1   0.0000
    27 C27    -15.5601  21.8239 -23.5802   C.2       1 RES1   0.0000
@<TRIPOS>BOND
     1     1     2    1
     2     2     3    1
     3     3     4    2
     4     4     5    1
     5     5     6    2
     6     6     7    1
     7     7     8    2
     8     7     9    2
     9     7    10    1
    10    10    11    1
    11    11    12    1
    12    12    13    2
    13    13    14    1
    14    14    15    2
    15    15    16    1
    16    16    17    2
    17    10    18    1
    18    18    19    1
    19    19    20    2
    20    19    21   am
    21    21    22    1
    22    18    23    1
    23    23    24    1
    24    23    25    1
    25     6    26    1
    26    26    27    2
    27    27     3    1
    28    17    12    1
@<TRIPOS>SUBSTRUCTURE
     1 RES1        1 GROUP             0 ****  ****    0  
@<TRIPOS>MOLECULE
ligand_96
    27    28     1     0     0
SMALL
NO_CHARGES
****
Generated from the CSD

@<TRIPOS>ATOM
     1 C1     -15.8931  19.3769 -26.3303   C.3       1 RES1   0.0000
     2 O2     -15.7980  19.9474 -25.0196   O.3       1 RES1   0.0000
     3 C3     -15.6486  21.3010 -24.8581   C.2       1 RES1   0.0000
     4 C4     -15.5545  21.8610 -23.5796   C.2       1 RES1   0.0000
     5 C5     -15.4062  23.2392 -23.4230   C.2       1 RES1   0.0000
     6 C6     -15.3524  24.0494 -24.5498   C.2       1 RES1   0.0000
     7 S7     -15.1623  25.7894 -24.4077   S.o2      1 RES1   0.0000
     8 O8     -15.9041  26.4115 -25.4570   O.2       1 RES1   0.0000
     9 O9     -15.5082  26.1464 -23.0620   O.2       1 RES1   0.0000
    10 N10    -13.5676  26.1057 -24.5904   N.pl3     1 RES1   0.0000
    11 C11    -12.7036  26.7337 -23.5498   C.3       1 RES1   0.0000
    12 C12    -12.3030  25.8453 -22.3818   C.2       1 RES1   0.0000
    13 C13    -12.6972  24.5024 -22.3581   C.2       1 RES1   0.0000
    14 C14    -12.3205  23.6799 -21.2905   C.2       1 RES1   0.0000
    15 C15    -11.5753  24.2067 -20.2350   C.2       1 RES1   0.0000
    16 N16    -11.1837  25.5346 -20.2499   N.2       1 RES1   0.0000
    17 C17    -11.5594  26.3513 -21.3093   C.2       1 RES1   0.0000
    18 C18    -12.9483  25.8708 -25.9197   C.3       1 RES1   0.0000
    19 C19    -12.6367  27.1853 -26.6021   C.2       1 RES1   0.0000
    20 O20    -11.4797  27.5405 -26.7386   O.2       1 RES1   0.0000
    21 N21    -13.6564  27.9153 -27.0362   N.am      1 RES1   0.0000
    22 O22    -13.4281  29.1922 -27.5611   O.3       1 RES1   0.0000
    23 C23    -11.6786  25.0055 -25.8616   C.3       1 RES1   0.0000
    24 C24    -11.9134  23.6366 -25.2188   C.3       1 RES1   0.0000
    25 C25    -11.0599  24.7970 -27.2496   C.3       1 RES1   0.0000
    26 C26    -15.4519  23.4871 -25.8192   C.2       1 RES1   0.0000
    27 C27    -15.6031  22.1140 -25.9771   C.2       1 RES1   0.0000
@<TRIPOS>BOND
     1     1     2    1
     2     2     3    1
     3     3     4    2
     4     4     5    1
     5     5     6    2
     6     6     7    1
     7     7     8    2
     8     7     9    2
     9     7    10    1
    10    10    11    1
    11    11    12    1
    12    12    13    2
    13    13    14    1
    14    14    15    2
    15    15    16    1
    16    16    17    2
    17    10    18    1
    18    18    19    1
    19    19    20    2
    20    19    21   am
    21    21    22    1
    22    18    23    1
    23    23    24    1
    24    23    25    1
    25     6    26    1
    26    26    27    2
    27    27     3    1
    28    17    12    1
@<TRIPOS>SUBSTRUCTURE
     1 RES1        1 GROUP             0 ****  ****    0  
@<TRIPOS>MOLECULE
ligand_97
    27    28     1     0     0
SMALL
NO_CHARGES
****
Generated from the CSD

@<TRIPOS>ATOM
     1 C1     -15.9366  19.3810 -26.3285   C.3       1 RES1   0.0000
     2 O2     -15.8272  19.9506 -25.0184   O.3       1 RES1   0.0000
     3 C3     -15.6669  21.3030 -24.8579   C.2       1 RES1   0.0000
     4 C4     -15.6071  22.1513 -25.9687   C.2       1 RES1   0.0000
     5 C5     -15.4404  23.5258 -25.7978   C.2       1 RES1   0.0000
     6 C6     -15.3348  24.0430 -24.5131   C.2       1 RES1   0.0000
     7 S7     -15.1282  25.7659 -24.2432   S.o2      1 RES1   0.0000
     8 O8     -14.2945  25.9465 -23.0984   O.2       1 RES1   0.0000
     9 O9     -14.6759  26.3385 -25.4782   O.2       1 RES1   0.0000
    10 N10    -16.6164  26.3788 -23.9499   N.pl3     1 RES1   0.0000
    11 C11    -17.3052  27.3813 -24.8126   C.3       1 RES1   0.0000
    12 C12    -17.8684  26.8639 -26.1276   C.2       1 RES1   0.0000
    13 C13    -18.4634  27.7526 -27.0307   C.2       1 RES1   0.0000
    14 C14    -18.9721  27.2813 -28.2461   C.2       1 RES1   0.0000
    15 C15    -18.9114  25.9197 -28.5450   C.2       1 RES1   0.0000
    16 N16    -18.3267  25.0340 -27.6558   N.2       1 RES1   0.0000
    17 C17    -17.8232  25.5022 -26.4485   C.2       1 RES1   0.0000
    18 C18    -17.2920  26.0161 -22.6779   C.3       1 RES1   0.0000
    19 C19    -17.2587  27.1768 -21.7071   C.2       1 RES1   0.0000
    20 O20    -17.3235  28.3197 -22.1231   O.2       1 RES1   0.0000
    21 N21    -17.1598  26.8998 -20.4130   N.am      1 RES1   0.0000
    22 O22    -17.0007  27.9365 -19.4868   O.3       1 RES1   0.0000
    23 C23    -18.7426  25.5420 -22.8662   C.3       1 RES1   0.0000
    24 C24    -18.8600  24.3105 -23.7672   C.3       1 RES1   0.0000
    25 C25    -19.4275  25.2387 -21.5277   C.3       1 RES1   0.0000
    26 C26    -15.3896  23.1935 -23.4119   C.2       1 RES1   0.0000
    27 C27    -15.5525  21.8230 -23.5804   C.2       1 RES1   0.0000
@<TRIPOS>BOND
     1     1     2    1
     2     2     3    1
     3     3     4    2
     4     4     5    1
     5     5     6    2
     6     6     7    1
     7     7     8    2
     8     7     9    2
     9     7    10    1
    10    10    11    1
    11    11    12    1
    12    12    13    2
    13    13    14    1
    14    14    15    2
    15    15    16    1
    16    16    17    2
    17    10    18    1
    18    18    19    1
    19    19    20    2
    20    19    21   am
    21    21    22    1
    22    18    23    1
    23    23    24    1
    24    23    25    1
    25     6    26    1
    26    26    27    2
    27    27     3    1
    28    17    12    1
@<TRIPOS>SUBSTRUCTURE
     1 RES1        1 GROUP             0 ****  ****    0  
@<TRIPOS>MOLECULE
ligand_98
    27    28     1     0     0
SMALL
NO_CHARGES
****
Generated from the CSD

@<TRIPOS>ATOM
     1 C1     -15.9324  19.3806 -26.3287   C.3       1 RES1   0.0000
     2 O2     -15.8277  19.9507 -25.0184   O.3       1 RES1   0.0000
     3 C3     -15.6672  21.3031 -24.8579   C.2       1 RES1   0.0000
     4 C4     -15.6026  22.1508 -25.9688   C.2       1 RES1   0.0000
     5 C5     -15.4357  23.5253 -25.7979   C.2       1 RES1   0.0000
     6 C6     -15.3348  24.0430 -24.5131   C.2       1 RES1   0.0000
     7 S7     -15.1282  25.7659 -24.2432   S.o2      1 RES1   0.0000
     8 O8     -14.2945  25.9465 -23.0984   O.2       1 RES1   0.0000
     9 O9     -14.6759  26.3385 -25.4782   O.2       1 RES1   0.0000
    10 N10    -16.6164  26.3788 -23.9499   N.pl3     1 RES1   0.0000
    11 C11    -17.2967  27.3965 -24.8015   C.3       1 RES1   0.0000
    12 C12    -17.8585  26.8996 -26.1250   C.2       1 RES1   0.0000
    13 C13    -17.7955  25.5381 -26.4437   C.2       1 RES1   0.0000
    14 C14    -18.3217  25.0766 -27.6554   C.2       1 RES1   0.0000
    15 C15    -18.8839  25.9791 -28.5590   C.2       1 RES1   0.0000
    16 N16    -18.9475  27.3277 -28.2522   N.2       1 RES1   0.0000
    17 C17    -18.4235  27.7857 -27.0496   C.2       1 RES1   0.0000
    18 C18    -17.3011  25.9987 -22.6879   C.3       1 RES1   0.0000
    19 C19    -17.2699  27.1442 -21.6990   C.2       1 RES1   0.0000
    20 O20    -17.3286  28.2936 -22.0976   O.2       1 RES1   0.0000
    21 N21    -17.1796  26.8468 -20.4088   N.am      1 RES1   0.0000
    22 O22    -17.0228  27.8686 -19.4656   O.3       1 RES1   0.0000
    23 C23    -18.7521  25.5327 -22.8925   C.3       1 RES1   0.0000
    24 C24    -18.8677  24.3131 -23.8097   C.3       1 RES1   0.0000
    25 C25    -19.4477  25.2152 -21.5627   C.3       1 RES1   0.0000
    26 C26    -15.3944  23.1941 -23.4117   C.2       1 RES1   0.0000
    27 C27    -15.5575  21.8236 -23.5803   C.2       1 RES1   0.0000
@<TRIPOS>BOND
     1     1     2    1
     2     2     3    1
     3     3     4    2
     4     4     5    1
     5     5     6    2
     6     6     7    1
     7     7     8    2
     8     7     9    2
     9     7    10    1
    10    10    11    1
    11    11    12    1
    12    12    13    2
    13    13    14    1
    14    14    15    2
    15    15    16    1
    16    16    17    2
    17    10    18    1
    18    18    19    1
    19    19    20    2
    20    19    21   am
    21    21    22    1
    22    18    23    1
    23    23    24    1
    24    23    25    1
    25     6    26    1
    26    26    27    2
    27    27     3    1
    28    17    12    1
@<TRIPOS>SUBSTRUCTURE
     1 RES1        1 GROUP             0 ****  ****    0  
@<TRIPOS>MOLECULE
ligand_99
    27    28     1     0     0
SMALL
NO_CHARGES
****
Generated from the CSD

@<TRIPOS>ATOM
     1 C1     -15.8960  19.3772 -26.3303   C.3       1 RES1   0.0000
     2 O2     -15.7982  19.9474 -25.0196   O.3       1 RES1   0.0000
     3 C3     -15.6488  21.3010 -24.8581   C.2       1 RES1   0.0000
     4 C4     -15.5521  21.8607 -23.5797   C.2       1 RES1   0.0000
     5 C5     -15.4037  23.2390 -23.4230   C.2       1 RES1   0.0000
     6 C6     -15.3524  24.0494 -24.5498   C.2       1 RES1   0.0000
     7 S7     -15.1623  25.7894 -24.4077   S.o2      1 RES1   0.0000
     8 O8     -15.9041  26.4115 -25.4570   O.2       1 RES1   0.0000
     9 O9     -15.5082  26.1464 -23.0620   O.2       1 RES1   0.0000
    10 N10    -13.5676  26.1057 -24.5904   N.pl3     1 RES1   0.0000
    11 C11    -12.7004  26.7203 -23.5446   C.3       1 RES1   0.0000
    12 C12    -12.2989  25.8180 -22.3875   C.2       1 RES1   0.0000
    13 C13    -12.6724  24.4690 -22.3914   C.2       1 RES1   0.0000
    14 C14    -12.2947  23.6339 -21.3340   C.2       1 RES1   0.0000
    15 C15    -11.5696  24.1538 -20.2611   C.2       1 RES1   0.0000
    16 N16    -11.1987  25.4876 -20.2487   N.2       1 RES1   0.0000
    17 C17    -11.5752  26.3167 -21.2981   C.2       1 RES1   0.0000
    18 C18    -12.9517  25.8855 -25.9238   C.3       1 RES1   0.0000
    19 C19    -12.7005  27.2062 -26.6192   C.2       1 RES1   0.0000
    20 O20    -12.3975  28.1891 -25.9669   O.2       1 RES1   0.0000
    21 N21    -12.8205  27.2436 -27.9404   N.am      1 RES1   0.0000
    22 O22    -12.7204  28.4646 -28.6167   O.3       1 RES1   0.0000
    23 C23    -11.6472  25.0733 -25.8713   C.3       1 RES1   0.0000
    24 C24    -11.8309  23.6802 -25.2650   C.3       1 RES1   0.0000
    25 C25    -11.0049  24.9256 -27.2565   C.3       1 RES1   0.0000
    26 C26    -15.4545  23.4874 -25.8191   C.2       1 RES1   0.0000
    27 C27    -15.6057  22.1143 -25.9770   C.2       1 RES1   0.0000
@<TRIPOS>BOND
     1     1     2    1
     2     2     3    1
     3     3     4    2
     4     4     5    1
     5     5     6    2
     6     6     7    1
     7     7     8    2
     8     7     9    2
     9     7    10    1
    10    10    11    1
    11    11    12    1
    12    12    13    2
    13    13    14    1
    14    14    15    2
    15    15    16    1
    16    16    17    2
    17    10    18    1
    18    18    19    1
    19    19    20    2
    20    19    21   am
    21    21    22    1
    22    18    23    1
    23    23    24    1
    24    23    25    1
    25     6    26    1
    26    26    27    2
    27    27     3    1
    28    17    12    1
@<TRIPOS>SUBSTRUCTURE
     1 RES1        1 GROUP             0 ****  ****    0  
