@<TRIPOS>MOLECULE
native
    31    33     1     0     0
SMALL
NO_CHARGES
****
Generated from the CSD

@<TRIPOS>ATOM
     1 C1      14.7240   8.7300   9.1040   C.3       1 RES1   0.0000
     2 C2      14.5420   9.1160   7.6300   C.3       1 RES1   0.0000
     3 C3      13.7970  10.4470   7.6040   C.3       1 RES1   0.0000
     4 C4      13.7600   8.0120   6.9820   C.3       1 RES1   0.0000
     5 C5      15.9190   9.1990   6.9080   C.3       1 RES1   0.0000
     6 O6      16.6720   7.9460   7.0220   O.3       1 RES1   0.0000
     7 C7      15.9110   9.5690   5.3990   C.2       1 RES1   0.0000
     8 O8      15.9820   8.6990   4.5240   O.2       1 RES1   0.0000
     9 N9      15.9210  10.8670   5.1770   N.am      1 RES1   0.0000
    10 S10     16.0610  11.5310   3.6950   S.o2      1 RES1   0.0000
    11 O11     17.3990  11.2600   3.1300   O.2       1 RES1   0.0000
    12 O12     15.7200  12.9560   3.7950   O.2       1 RES1   0.0000
    13 O13     15.1560  10.9450   2.7170   O.3       1 RES1   0.0000
    14 C14     13.7240  11.1290   2.9860   C.3       1 RES1   0.0000
    15 C15     12.8590  10.2310   2.0620   C.3       1 RES1   0.0000
    16 O16     13.0500  10.7160   0.7080   O.3       1 RES1   0.0000
    17 C17     13.3770   9.6020  -0.1460   C.3       1 RES1   0.0000
    18 N18     14.2200   9.9950  -1.3100   N.pl3     1 RES1   0.0000
    19 C19     15.4340  10.6060  -1.2940   C.2       1 RES1   0.0000
    20 N20     15.8830  10.7930  -2.5550   N.2       1 RES1   0.0000
    21 C21     14.9440  10.2780  -3.3700   C.2       1 RES1   0.0000
    22 C22     14.8260  10.1480  -4.7550   C.2       1 RES1   0.0000
    23 N23     15.7960  10.6090  -5.5710   N.pl3     1 RES1   0.0000
    24 N24     13.6950   9.5980  -5.2450   N.2       1 RES1   0.0000
    25 C25     12.7290   9.1120  -4.4720   C.2       1 RES1   0.0000
    26 N26     12.8020   9.2040  -3.1430   N.2       1 RES1   0.0000
    27 C27     13.8990   9.7710  -2.5810   C.2       1 RES1   0.0000
    28 C28     14.1670   8.6820   0.7820   C.3       1 RES1   0.0000
    29 O29     14.2240   7.3520   0.2010   O.3       1 RES1   0.0000
    30 C30     13.3570   8.7880   2.0830   C.3       1 RES1   0.0000
    31 O31     12.2350   7.9230   2.0590   O.3       1 RES1   0.0000
@<TRIPOS>BOND
     1     1     2    1
     2     2     3    1
     3     2     4    1
     4     2     5    1
     5     5     6    1
     6     5     7    1
     7     7     8    2
     8     7     9   am
     9     9    10    1
    10    10    11    2
    11    10    12    2
    12    10    13    1
    13    13    14    1
    14    15    14    1
    15    15    16    1
    16    16    17    1
    17    17    18    1
    18    18    19    1
    19    19    20    2
    20    20    21    1
    21    21    22    2
    22    22    23    1
    23    22    24    1
    24    24    25    2
    25    25    26    1
    26    26    27    2
    27    17    28    1
    28    28    29    1
    29    28    30    1
    30    30    31    1
    31    30    15    1
    32    27    18    1
    33    27    21    1
@<TRIPOS>SUBSTRUCTURE
     1 RES1        1 GROUP             0 ****  ****    0  
@<TRIPOS>MOLECULE
ligand_0
    31    33     1     0     0
SMALL
NO_CHARGES
****
Generated from the CSD

@<TRIPOS>ATOM
     1 C1      14.5877   8.6416   9.0734   C.3       1 RES1   0.0000
     2 C2      14.4426   9.1030   7.6171   C.3       1 RES1   0.0000
     3 C3      13.7445  10.4592   7.6440   C.3       1 RES1   0.0000
     4 C4      13.6333   8.0591   6.9060   C.3       1 RES1   0.0000
     5 C5      15.8329   9.1714   6.9195   C.3       1 RES1   0.0000
     6 O6      16.4964   7.8641   6.8944   O.3       1 RES1   0.0000
     7 C7      15.8734   9.7107   5.4629   C.2       1 RES1   0.0000
     8 O8      15.4179  10.8235   5.1772   O.2       1 RES1   0.0000
     9 N9      16.3382   8.8380   4.5931   N.am      1 RES1   0.0000
    10 S10     16.3709   9.0935   2.9836   S.o2      1 RES1   0.0000
    11 O11     16.9822   7.9420   2.2884   O.2       1 RES1   0.0000
    12 O12     17.0375  10.3783   2.7349   O.2       1 RES1   0.0000
    13 O13     15.0444   9.1811   2.3905   O.3       1 RES1   0.0000
    14 C14     14.2851   7.9249   2.3432   C.3       1 RES1   0.0000
    15 C15     12.8817   8.1400   1.7168   C.3       1 RES1   0.0000
    16 O16     12.1485   8.9940   2.6384   O.3       1 RES1   0.0000
    17 C17     11.3811   9.9631   1.9159   C.3       1 RES1   0.0000
    18 N18     11.5329  11.2534   2.6453   N.pl3     1 RES1   0.0000
    19 C19     10.6270  11.8706   3.4489   C.2       1 RES1   0.0000
    20 N20     11.1373  13.0246   3.9332   N.2       1 RES1   0.0000
    21 C21     12.3848  13.1225   3.4381   C.2       1 RES1   0.0000
    22 C22     13.4139  14.0558   3.5767   C.2       1 RES1   0.0000
    23 N23     13.2441  15.1534   4.3420   N.pl3     1 RES1   0.0000
    24 N24     14.5533  13.8492   2.8833   N.2       1 RES1   0.0000
    25 C25     14.7652  12.7689   2.1384   C.2       1 RES1   0.0000
    26 N26     13.8154  11.8447   1.9842   N.2       1 RES1   0.0000
    27 C27     12.6327  12.0010   2.6303   C.2       1 RES1   0.0000
    28 C28     11.8417   9.9356   0.4926   C.3       1 RES1   0.0000
    29 O29     10.7546   9.5559  -0.3927   O.3       1 RES1   0.0000
    30 C30     12.9236   8.8633   0.3975   C.3       1 RES1   0.0000
    31 O31     12.6919   7.9003  -0.6157   O.3       1 RES1   0.0000
@<TRIPOS>BOND
     1     1     2    1
     2     2     3    1
     3     2     4    1
     4     2     5    1
     5     5     6    1
     6     5     7    1
     7     7     8    2
     8     7     9   am
     9     9    10    1
    10    10    11    2
    11    10    12    2
    12    10    13    1
    13    13    14    1
    14    15    14    1
    15    15    16    1
    16    16    17    1
    17    17    18    1
    18    18    19    1
    19    19    20    2
    20    20    21    1
    21    21    22    2
    22    22    23    1
    23    22    24    1
    24    24    25    2
    25    25    26    1
    26    26    27    2
    27    17    28    1
    28    28    29    1
    29    28    30    1
    30    30    31    1
    31    30    15    1
    32    27    18    1
    33    27    21    1
@<TRIPOS>SUBSTRUCTURE
     1 RES1        1 GROUP             0 ****  ****    0  
@<TRIPOS>MOLECULE
ligand_1
    31    33     1     0     0
SMALL
NO_CHARGES
****
Generated from the CSD

@<TRIPOS>ATOM
     1 C1      14.7011   8.6954   9.0889   C.3       1 RES1   0.0000
     2 C2      14.5338   9.1473   7.6320   C.3       1 RES1   0.0000
     3 C3      13.8476  10.5095   7.6614   C.3       1 RES1   0.0000
     4 C4      13.7033   8.1051   6.9433   C.3       1 RES1   0.0000
     5 C5      15.9119   9.1989   6.9093   C.3       1 RES1   0.0000
     6 O6      16.5637   7.8858   6.8814   O.3       1 RES1   0.0000
     7 C7      15.9309   9.7280   5.4486   C.2       1 RES1   0.0000
     8 O8      15.4785  10.8422   5.1631   O.2       1 RES1   0.0000
     9 N9      16.3742   8.8461   4.5768   N.am      1 RES1   0.0000
    10 S10     16.3797   9.0899   2.9652   S.o2      1 RES1   0.0000
    11 O11     15.0569   9.5634   2.5082   O.2       1 RES1   0.0000
    12 O12     16.8428   7.8573   2.3148   O.2       1 RES1   0.0000
    13 O13     17.2817  10.1543   2.5501   O.3       1 RES1   0.0000
    14 C14     18.7147   9.8516   2.6592   C.3       1 RES1   0.0000
    15 C15     19.5796  11.0535   2.1946   C.3       1 RES1   0.0000
    16 O16     19.3307  11.2106   0.7699   O.3       1 RES1   0.0000
    17 C17     19.2304  12.5983   0.4320   C.3       1 RES1   0.0000
    18 N18     18.0933  12.7209  -0.5229   N.pl3     1 RES1   0.0000
    19 C19     18.1483  12.9110  -1.8676   C.2       1 RES1   0.0000
    20 N20     16.9014  12.9661  -2.3861   N.2       1 RES1   0.0000
    21 C21     16.0556  12.7927  -1.3538   C.2       1 RES1   0.0000
    22 C22     14.6657  12.7312  -1.2372   C.2       1 RES1   0.0000
    23 N23     13.8806  12.8715  -2.3250   N.pl3     1 RES1   0.0000
    24 N24     14.1401  12.5805  -0.0032   N.2       1 RES1   0.0000
    25 C25     14.8817  12.4159   1.0876   C.2       1 RES1   0.0000
    26 N26     16.2138  12.4568   1.0243   N.2       1 RES1   0.0000
    27 C27     16.8111  12.6332  -0.1810   C.2       1 RES1   0.0000
    28 C28     19.1229  13.3688   1.7100   C.3       1 RES1   0.0000
    29 O29     20.2428  14.2822   1.8559   O.3       1 RES1   0.0000
    30 C30     19.1917  12.3531   2.8471   C.3       1 RES1   0.0000
    31 O31     20.1796  12.6446   3.8201   O.3       1 RES1   0.0000
@<TRIPOS>BOND
     1     1     2    1
     2     2     3    1
     3     2     4    1
     4     2     5    1
     5     5     6    1
     6     5     7    1
     7     7     8    2
     8     7     9   am
     9     9    10    1
    10    10    11    2
    11    10    12    2
    12    10    13    1
    13    13    14    1
    14    15    14    1
    15    15    16    1
    16    16    17    1
    17    17    18    1
    18    18    19    1
    19    19    20    2
    20    20    21    1
    21    21    22    2
    22    22    23    1
    23    22    24    1
    24    24    25    2
    25    25    26    1
    26    26    27    2
    27    17    28    1
    28    28    29    1
    29    28    30    1
    30    30    31    1
    31    30    15    1
    32    27    18    1
    33    27    21    1
@<TRIPOS>SUBSTRUCTURE
     1 RES1        1 GROUP             0 ****  ****    0  
@<TRIPOS>MOLECULE
ligand_2
    31    33     1     0     0
SMALL
NO_CHARGES
****
Generated from the CSD

@<TRIPOS>ATOM
     1 C1      14.8406   9.1395   9.0581   C.3       1 RES1   0.0000
     2 C2      14.7374   9.5887   7.5945   C.3       1 RES1   0.0000
     3 C3      14.2997  11.0501   7.6040   C.3       1 RES1   0.0000
     4 C4      13.7297   8.6959   6.9329   C.3       1 RES1   0.0000
     5 C5      16.0947   9.3865   6.8589   C.3       1 RES1   0.0000
     6 O6      16.5050   7.9789   6.8467   O.3       1 RES1   0.0000
     7 C7      16.1896   9.8828   5.3896   C.2       1 RES1   0.0000
     8 O8      15.9370  11.0550   5.0900   O.2       1 RES1   0.0000
     9 N9      16.4607   8.9241   4.5285   N.am      1 RES1   0.0000
    10 S10     16.4023   9.1168   2.9110   S.o2      1 RES1   0.0000
    11 O11     16.9762   7.9392   2.2277   O.2       1 RES1   0.0000
    12 O12     17.0510  10.3910   2.5756   O.2       1 RES1   0.0000
    13 O13     15.0444   9.1811   2.3905   O.3       1 RES1   0.0000
    14 C14     14.2945  10.4001   2.7202   C.3       1 RES1   0.0000
    15 C15     12.8902  10.3916   2.0597   C.3       1 RES1   0.0000
    16 O16     13.1128  10.4578   0.6236   O.3       1 RES1   0.0000
    17 C17     12.2027   9.5907  -0.0618   C.3       1 RES1   0.0000
    18 N18     12.9884   8.9101  -1.1293   N.pl3     1 RES1   0.0000
    19 C19     12.9739   9.1596  -2.4653   C.2       1 RES1   0.0000
    20 N20     13.8300   8.3340  -3.1072   N.2       1 RES1   0.0000
    21 C21     14.3990   7.5684  -2.1579   C.2       1 RES1   0.0000
    22 C22     15.3601   6.5559  -2.1742   C.2       1 RES1   0.0000
    23 N23     15.9132   6.1557  -3.3374   N.pl3     1 RES1   0.0000
    24 N24     15.6740   5.9623  -1.0033   N.2       1 RES1   0.0000
    25 C25     15.1674   6.3451   0.1645   C.2       1 RES1   0.0000
    26 N26     14.2537   7.3150   0.2312   N.2       1 RES1   0.0000
    27 C27     13.8695   7.9381  -0.9111   C.2       1 RES1   0.0000
    28 C28     11.5560   8.7123   0.9623   C.3       1 RES1   0.0000
    29 O29     10.1193   8.9242   0.9884   O.3       1 RES1   0.0000
    30 C30     12.1182   9.1260   2.3196   C.3       1 RES1   0.0000
    31 O31     11.1264   9.4309   3.2846   O.3       1 RES1   0.0000
@<TRIPOS>BOND
     1     1     2    1
     2     2     3    1
     3     2     4    1
     4     2     5    1
     5     5     6    1
     6     5     7    1
     7     7     8    2
     8     7     9   am
     9     9    10    1
    10    10    11    2
    11    10    12    2
    12    10    13    1
    13    13    14    1
    14    15    14    1
    15    15    16    1
    16    16    17    1
    17    17    18    1
    18    18    19    1
    19    19    20    2
    20    20    21    1
    21    21    22    2
    22    22    23    1
    23    22    24    1
    24    24    25    2
    25    25    26    1
    26    26    27    2
    27    17    28    1
    28    28    29    1
    29    28    30    1
    30    30    31    1
    31    30    15    1
    32    27    18    1
    33    27    21    1
@<TRIPOS>SUBSTRUCTURE
     1 RES1        1 GROUP             0 ****  ****    0  
@<TRIPOS>MOLECULE
ligand_3
    31    33     1     0     0
SMALL
NO_CHARGES
****
Generated from the CSD

@<TRIPOS>ATOM
     1 C1      14.4987   8.5442   8.9986   C.3       1 RES1   0.0000
     2 C2      14.2968   8.9044   7.5207   C.3       1 RES1   0.0000
     3 C3      13.3577  10.1058   7.4765   C.3       1 RES1   0.0000
     4 C4      13.7096   7.6967   6.8523   C.3       1 RES1   0.0000
     5 C5      15.6625   9.2005   6.8340   C.3       1 RES1   0.0000
     6 O6      16.5597   8.0416   6.8802   O.3       1 RES1   0.0000
     7 C7      15.6286   9.6688   5.3530   C.2       1 RES1   0.0000
     8 O8      14.9792  10.6623   5.0082   O.2       1 RES1   0.0000
     9 N9      16.2635   8.8585   4.5318   N.am      1 RES1   0.0000
    10 S10     16.3576   9.0928   2.9214   S.o2      1 RES1   0.0000
    11 O11     15.0621   9.5640   2.3898   O.2       1 RES1   0.0000
    12 O12     16.8548   7.8561   2.3047   O.2       1 RES1   0.0000
    13 O13     17.2817  10.1543   2.5501   O.3       1 RES1   0.0000
    14 C14     16.8603  11.5161   2.9033   C.3       1 RES1   0.0000
    15 C15     17.8928  12.5676   2.4166   C.3       1 RES1   0.0000
    16 O16     19.1074  12.3338   3.1825   O.3       1 RES1   0.0000
    17 C17     20.2591  12.4670   2.3424   C.3       1 RES1   0.0000
    18 N18     21.1826  11.3572   2.7102   N.pl3     1 RES1   0.0000
    19 C19     22.3262  11.4293   3.4413   C.2       1 RES1   0.0000
    20 N20     22.8842  10.2044   3.5635   N.2       1 RES1   0.0000
    21 C21     22.0703   9.3525   2.9132   C.2       1 RES1   0.0000
    22 C22     22.0830   7.9737   2.6946   C.2       1 RES1   0.0000
    23 N23     23.0836   7.2123   3.1827   N.pl3     1 RES1   0.0000
    24 N24     21.0968   7.4433   1.9410   N.2       1 RES1   0.0000
    25 C25     20.0828   8.1577   1.4632   C.2       1 RES1   0.0000
    26 N26     20.0221   9.4766   1.6551   N.2       1 RES1   0.0000
    27 C27     20.9955  10.0824   2.3807   C.2       1 RES1   0.0000
    28 C28     19.7833  12.5055   0.9244   C.3       1 RES1   0.0000
    29 O29     20.1395  13.7657   0.2962   O.3       1 RES1   0.0000
    30 C30     18.2604  12.4130   0.9653   C.3       1 RES1   0.0000
    31 O31     17.6018  13.4463   0.2539   O.3       1 RES1   0.0000
@<TRIPOS>BOND
     1     1     2    1
     2     2     3    1
     3     2     4    1
     4     2     5    1
     5     5     6    1
     6     5     7    1
     7     7     8    2
     8     7     9   am
     9     9    10    1
    10    10    11    2
    11    10    12    2
    12    10    13    1
    13    13    14    1
    14    15    14    1
    15    15    16    1
    16    16    17    1
    17    17    18    1
    18    18    19    1
    19    19    20    2
    20    20    21    1
    21    21    22    2
    22    22    23    1
    23    22    24    1
    24    24    25    2
    25    25    26    1
    26    26    27    2
    27    17    28    1
    28    28    29    1
    29    28    30    1
    30    30    31    1
    31    30    15    1
    32    27    18    1
    33    27    21    1
@<TRIPOS>SUBSTRUCTURE
     1 RES1        1 GROUP             0 ****  ****    0  
@<TRIPOS>MOLECULE
ligand_4
    31    33     1     0     0
SMALL
NO_CHARGES
****
Generated from the CSD

@<TRIPOS>ATOM
     1 C1      14.8271   8.7046   9.1346   C.3       1 RES1   0.0000
     2 C2      14.6249   9.0844   7.6616   C.3       1 RES1   0.0000
     3 C3      13.8593  10.4037   7.6400   C.3       1 RES1   0.0000
     4 C4      13.8538   7.9670   7.0236   C.3       1 RES1   0.0000
     5 C5      15.9934   9.1869   6.9260   C.3       1 RES1   0.0000
     6 O6      16.6964   7.9004   6.8982   O.3       1 RES1   0.0000
     7 C7      15.9784   9.7090   5.4628   C.2       1 RES1   0.0000
     8 O8      16.1517   8.9454   4.5065   O.2       1 RES1   0.0000
     9 N9      15.8648  11.0180   5.3740   N.am      1 RES1   0.0000
    10 S10     15.9370  11.8397   3.9681   S.o2      1 RES1   0.0000
    11 O11     15.7404  13.2852   4.2021   O.2       1 RES1   0.0000
    12 O12     14.9766  11.2385   3.0337   O.2       1 RES1   0.0000
    13 O13     17.2452  11.7748   3.3332   O.3       1 RES1   0.0000
    14 C14     18.3182  12.5134   4.0116   C.3       1 RES1   0.0000
    15 C15     19.6690  12.3544   3.2643   C.3       1 RES1   0.0000
    16 O16     20.0388  10.9523   3.3807   O.3       1 RES1   0.0000
    17 C17     20.5865  10.4776   2.1460   C.3       1 RES1   0.0000
    18 N18     20.0119   9.1214   1.9210   N.pl3     1 RES1   0.0000
    19 C19     20.6240   7.9181   2.0779   C.2       1 RES1   0.0000
    20 N20     19.7700   6.9137   1.7801   N.2       1 RES1   0.0000
    21 C21     18.6036   7.4966   1.4473   C.2       1 RES1   0.0000
    22 C22     17.3507   7.0130   1.0657   C.2       1 RES1   0.0000
    23 N23     17.1323   5.6863   0.9596   N.pl3     1 RES1   0.0000
    24 N24     16.3918   7.9121   0.7591   N.2       1 RES1   0.0000
    25 C25     16.5631   9.2252   0.8740   C.2       1 RES1   0.0000
    26 N26     17.7394   9.7339   1.2451   N.2       1 RES1   0.0000
    27 C27     18.7584   8.8889   1.5423   C.2       1 RES1   0.0000
    28 C28     20.3063  11.5099   1.0998   C.3       1 RES1   0.0000
    29 O29     21.5442  12.0357   0.5512   O.3       1 RES1   0.0000
    30 C30     19.5738  12.6556   1.7927   C.3       1 RES1   0.0000
    31 O31     20.1661  13.9261   1.5860   O.3       1 RES1   0.0000
@<TRIPOS>BOND
     1     1     2    1
     2     2     3    1
     3     2     4    1
     4     2     5    1
     5     5     6    1
     6     5     7    1
     7     7     8    2
     8     7     9   am
     9     9    10    1
    10    10    11    2
    11    10    12    2
    12    10    13    1
    13    13    14    1
    14    15    14    1
    15    15    16    1
    16    16    17    1
    17    17    18    1
    18    18    19    1
    19    19    20    2
    20    20    21    1
    21    21    22    2
    22    22    23    1
    23    22    24    1
    24    24    25    2
    25    25    26    1
    26    26    27    2
    27    17    28    1
    28    28    29    1
    29    28    30    1
    30    30    31    1
    31    30    15    1
    32    27    18    1
    33    27    21    1
@<TRIPOS>SUBSTRUCTURE
     1 RES1        1 GROUP             0 ****  ****    0  
@<TRIPOS>MOLECULE
ligand_5
    31    33     1     0     0
SMALL
NO_CHARGES
****
Generated from the CSD

@<TRIPOS>ATOM
     1 C1      14.7132   8.7286   9.1029   C.3       1 RES1   0.0000
     2 C2      14.5332   9.1143   7.6285   C.3       1 RES1   0.0000
     3 C3      13.7898  10.4461   7.6012   C.3       1 RES1   0.0000
     4 C4      13.7507   8.0109   6.9800   C.3       1 RES1   0.0000
     5 C5      15.9111   9.1954   6.9080   C.3       1 RES1   0.0000
     6 O6      16.5925   7.8973   6.8843   O.3       1 RES1   0.0000
     7 C7      15.9207   9.7215   5.4461   C.2       1 RES1   0.0000
     8 O8      16.0914   8.9574   4.4897   O.2       1 RES1   0.0000
     9 N9      15.8303  11.0324   5.3596   N.am      1 RES1   0.0000
    10 S10     15.9315  11.8563   3.9568   S.o2      1 RES1   0.0000
    11 O11     17.1167  11.4254   3.1871   O.2       1 RES1   0.0000
    12 O12     15.8937  13.2923   4.2627   O.2       1 RES1   0.0000
    13 O13     14.8238  11.5851   3.0521   O.3       1 RES1   0.0000
    14 C14     13.5242  12.1378   3.4551   C.3       1 RES1   0.0000
    15 C15     12.4200  11.7865   2.4228   C.3       1 RES1   0.0000
    16 O16     12.7682  12.4871   1.1964   O.3       1 RES1   0.0000
    17 C17     12.5228  11.6524   0.0592   C.3       1 RES1   0.0000
    18 N18     13.6793  11.8394  -0.8613   N.pl3     1 RES1   0.0000
    19 C19     13.7194  12.5507  -2.0188   C.2       1 RES1   0.0000
    20 N20     14.9525  12.4855  -2.5684   N.2       1 RES1   0.0000
    21 C21     15.6976  11.7359  -1.7352   C.2       1 RES1   0.0000
    22 C22     17.0309  11.3220  -1.7319   C.2       1 RES1   0.0000
    23 N23     17.8603  11.6764  -2.7348   N.pl3     1 RES1   0.0000
    24 N24     17.4420  10.5197  -0.7274   N.2       1 RES1   0.0000
    25 C25     16.6605  10.1690   0.2890   C.2       1 RES1   0.0000
    26 N26     15.3824  10.5489   0.3347   N.2       1 RES1   0.0000
    27 C27     14.8926  11.3345  -0.6571   C.2       1 RES1   0.0000
    28 C28     12.2788  10.2641   0.5609   C.3       1 RES1   0.0000
    29 O29     10.9437   9.8159   0.2056   O.3       1 RES1   0.0000
    30 C30     12.3672  10.3211   2.0835   C.3       1 RES1   0.0000
    31 O31     11.2387   9.7780   2.7463   O.3       1 RES1   0.0000
@<TRIPOS>BOND
     1     1     2    1
     2     2     3    1
     3     2     4    1
     4     2     5    1
     5     5     6    1
     6     5     7    1
     7     7     8    2
     8     7     9   am
     9     9    10    1
    10    10    11    2
    11    10    12    2
    12    10    13    1
    13    13    14    1
    14    15    14    1
    15    15    16    1
    16    16    17    1
    17    17    18    1
    18    18    19    1
    19    19    20    2
    20    20    21    1
    21    21    22    2
    22    22    23    1
    23    22    24    1
    24    24    25    2
    25    25    26    1
    26    26    27    2
    27    17    28    1
    28    28    29    1
    29    28    30    1
    30    30    31    1
    31    30    15    1
    32    27    18    1
    33    27    21    1
@<TRIPOS>SUBSTRUCTURE
     1 RES1        1 GROUP             0 ****  ****    0  
@<TRIPOS>MOLECULE
ligand_6
    31    33     1     0     0
SMALL
NO_CHARGES
****
Generated from the CSD

@<TRIPOS>ATOM
     1 C1      14.6307   8.7617   9.0544   C.3       1 RES1   0.0000
     2 C2      14.3750   9.2259   7.6143   C.3       1 RES1   0.0000
     3 C3      13.8291  10.6483   7.6922   C.3       1 RES1   0.0000
     4 C4      13.3880   8.2684   7.0148   C.3       1 RES1   0.0000
     5 C5      15.6796   9.1424   6.7685   C.3       1 RES1   0.0000
     6 O6      16.1652   7.7642   6.6480   O.3       1 RES1   0.0000
     7 C7      15.6312   9.7172   5.3258   C.2       1 RES1   0.0000
     8 O8      15.5959   8.9737   4.3391   O.2       1 RES1   0.0000
     9 N9      15.7299  11.0296   5.2803   N.am      1 RES1   0.0000
    10 S10     15.9080  11.8767   3.8992   S.o2      1 RES1   0.0000
    11 O11     15.7530  13.3236   4.1551   O.2       1 RES1   0.0000
    12 O12     14.9776  11.3322   2.9019   O.2       1 RES1   0.0000
    13 O13     17.2452  11.7748   3.3332   O.3       1 RES1   0.0000
    14 C14     17.5953  10.4684   2.7610   C.3       1 RES1   0.0000
    15 C15     19.0114  10.4942   2.1267   C.3       1 RES1   0.0000
    16 O16     18.9347  11.3996   0.9906   O.3       1 RES1   0.0000
    17 C17     20.1145  12.2075   0.9172   C.3       1 RES1   0.0000
    18 N18     19.6629  13.5878   0.5841   N.pl3     1 RES1   0.0000
    19 C19     19.7524  14.2308  -0.6100   C.2       1 RES1   0.0000
    20 N20     19.2273  15.4726  -0.5159   N.2       1 RES1   0.0000
    21 C21     18.7895  15.6021   0.7501   C.2       1 RES1   0.0000
    22 C22     18.1477  16.6214   1.4560   C.2       1 RES1   0.0000
    23 N23     17.8526  17.7911   0.8526   N.pl3     1 RES1   0.0000
    24 N24     17.8834  16.4163   2.7636   N.2       1 RES1   0.0000
    25 C25     18.1383  15.2696   3.3856   C.2       1 RES1   0.0000
    26 N26     18.7409  14.2633   2.7497   N.2       1 RES1   0.0000
    27 C27     19.0614  14.4095   1.4395   C.2       1 RES1   0.0000
    28 C28     20.8620  12.0349   2.2018   C.3       1 RES1   0.0000
    29 O29     22.1754  11.4638   1.9601   O.3       1 RES1   0.0000
    30 C30     20.0661  11.0452   3.0482   C.3       1 RES1   0.0000
    31 O31     20.8279   9.9465   3.5175   O.3       1 RES1   0.0000
@<TRIPOS>BOND
     1     1     2    1
     2     2     3    1
     3     2     4    1
     4     2     5    1
     5     5     6    1
     6     5     7    1
     7     7     8    2
     8     7     9   am
     9     9    10    1
    10    10    11    2
    11    10    12    2
    12    10    13    1
    13    13    14    1
    14    15    14    1
    15    15    16    1
    16    16    17    1
    17    17    18    1
    18    18    19    1
    19    19    20    2
    20    20    21    1
    21    21    22    2
    22    22    23    1
    23    22    24    1
    24    24    25    2
    25    25    26    1
    26    26    27    2
    27    17    28    1
    28    28    29    1
    29    28    30    1
    30    30    31    1
    31    30    15    1
    32    27    18    1
    33    27    21    1
@<TRIPOS>SUBSTRUCTURE
     1 RES1        1 GROUP             0 ****  ****    0  
@<TRIPOS>MOLECULE
ligand_7
    31    33     1     0     0
SMALL
NO_CHARGES
****
Generated from the CSD

@<TRIPOS>ATOM
     1 C1      14.8347   8.4398   8.8701   C.3       1 RES1   0.0000
     2 C2      14.7469   8.8413   7.3917   C.3       1 RES1   0.0000
     3 C3      13.8008  10.0350   7.3069   C.3       1 RES1   0.0000
     4 C4      14.2284   7.6484   6.6444   C.3       1 RES1   0.0000
     5 C5      16.1595   9.1696   6.8250   C.3       1 RES1   0.0000
     6 O6      17.0447   8.0009   6.8534   O.3       1 RES1   0.0000
     7 C7      16.2332   9.7393   5.3813   C.2       1 RES1   0.0000
     8 O8      16.6257   9.0459   4.4365   O.2       1 RES1   0.0000
     9 N9      15.9369  11.0202   5.3071   N.am      1 RES1   0.0000
    10 S10     15.9564  11.8750   3.9193   S.o2      1 RES1   0.0000
    11 O11     17.1242  11.4996   3.0957   O.2       1 RES1   0.0000
    12 O12     15.8837  13.3025   4.2569   O.2       1 RES1   0.0000
    13 O13     14.8238  11.5851   3.0521   O.3       1 RES1   0.0000
    14 C14     14.8183  10.2508   2.4386   C.3       1 RES1   0.0000
    15 C15     13.5972  10.0700   1.4982   C.3       1 RES1   0.0000
    16 O16     12.4171  10.1035   2.3483   O.3       1 RES1   0.0000
    17 C17     11.3697  10.8481   1.7171   C.3       1 RES1   0.0000
    18 N18     10.7491  11.6897   2.7785   N.pl3     1 RES1   0.0000
    19 C19      9.5574  11.5009   3.4043   C.2       1 RES1   0.0000
    20 N20      9.3439  12.4776   4.3138   N.2       1 RES1   0.0000
    21 C21     10.4239  13.2793   4.2669   C.2       1 RES1   0.0000
    22 C22     10.8104  14.4288   4.9585   C.2       1 RES1   0.0000
    23 N23     10.0083  14.9618   5.9028   N.pl3     1 RES1   0.0000
    24 N24     11.9787  15.0111   4.6152   N.2       1 RES1   0.0000
    25 C25     12.8052  14.5023   3.7070   C.2       1 RES1   0.0000
    26 N26     12.4837  13.3999   3.0277   N.2       1 RES1   0.0000
    27 C27     11.3103  12.7763   3.3010   C.2       1 RES1   0.0000
    28 C28     11.9665  11.5683   0.5493   C.3       1 RES1   0.0000
    29 O29     11.3505  11.1344  -0.6924   O.3       1 RES1   0.0000
    30 C30     13.4435  11.1870   0.5012   C.3       1 RES1   0.0000
    31 O31     13.8686  10.6886  -0.7552   O.3       1 RES1   0.0000
@<TRIPOS>BOND
     1     1     2    1
     2     2     3    1
     3     2     4    1
     4     2     5    1
     5     5     6    1
     6     5     7    1
     7     7     8    2
     8     7     9   am
     9     9    10    1
    10    10    11    2
    11    10    12    2
    12    10    13    1
    13    13    14    1
    14    15    14    1
    15    15    16    1
    16    16    17    1
    17    17    18    1
    18    18    19    1
    19    19    20    2
    20    20    21    1
    21    21    22    2
    22    22    23    1
    23    22    24    1
    24    24    25    2
    25    25    26    1
    26    26    27    2
    27    17    28    1
    28    28    29    1
    29    28    30    1
    30    30    31    1
    31    30    15    1
    32    27    18    1
    33    27    21    1
@<TRIPOS>SUBSTRUCTURE
     1 RES1        1 GROUP             0 ****  ****    0  
@<TRIPOS>MOLECULE
ligand_8
    31    33     1     0     0
SMALL
NO_CHARGES
****
Generated from the CSD

@<TRIPOS>ATOM
     1 C1      14.5877   8.6416   9.0734   C.3       1 RES1   0.0000
     2 C2      14.4426   9.1030   7.6171   C.3       1 RES1   0.0000
     3 C3      13.7445  10.4592   7.6440   C.3       1 RES1   0.0000
     4 C4      13.6333   8.0591   6.9060   C.3       1 RES1   0.0000
     5 C5      15.8329   9.1714   6.9195   C.3       1 RES1   0.0000
     6 O6      16.4964   7.8641   6.8944   O.3       1 RES1   0.0000
     7 C7      15.8734   9.7107   5.4629   C.2       1 RES1   0.0000
     8 O8      15.4179  10.8235   5.1772   O.2       1 RES1   0.0000
     9 N9      16.3382   8.8380   4.5931   N.am      1 RES1   0.0000
    10 S10     16.3709   9.0935   2.9836   S.o2      1 RES1   0.0000
    11 O11     16.9822   7.9420   2.2884   O.2       1 RES1   0.0000
    12 O12     17.0375  10.3783   2.7349   O.2       1 RES1   0.0000
    13 O13     15.0444   9.1811   2.3905   O.3       1 RES1   0.0000
    14 C14     14.2851   7.9249   2.3432   C.3       1 RES1   0.0000
    15 C15     12.8817   8.1400   1.7168   C.3       1 RES1   0.0000
    16 O16     13.1072   8.5960   0.3539   O.3       1 RES1   0.0000
    17 C17     12.1725   7.9795  -0.5385   C.3       1 RES1   0.0000
    18 N18     12.9387   7.5999  -1.7587   N.pl3     1 RES1   0.0000
    19 C19     12.9324   8.2108  -2.9729   C.2       1 RES1   0.0000
    20 N20     13.7644   7.5718  -3.8251   N.2       1 RES1   0.0000
    21 C21     14.3100   6.5569  -3.1297   C.2       1 RES1   0.0000
    22 C22     15.2409   5.5618  -3.4335   C.2       1 RES1   0.0000
    23 N23     15.7828   5.4847  -4.6662   N.pl3     1 RES1   0.0000
    24 N24     15.5363   4.6579  -2.4758   N.2       1 RES1   0.0000
    25 C25     15.0403   4.7156  -1.2439   C.2       1 RES1   0.0000
    26 N26     14.1555   5.6545  -0.9037   N.2       1 RES1   0.0000
    27 C27     13.7906   6.5809  -1.8254   C.2       1 RES1   0.0000
    28 C28     11.4995   6.8701   0.2065   C.3       1 RES1   0.0000
    29 O29     10.0696   7.1072   0.3010   O.3       1 RES1   0.0000
    30 C30     12.0726   6.8746   1.6210   C.3       1 RES1   0.0000
    31 O31     11.0895   6.9277   2.6401   O.3       1 RES1   0.0000
@<TRIPOS>BOND
     1     1     2    1
     2     2     3    1
     3     2     4    1
     4     2     5    1
     5     5     6    1
     6     5     7    1
     7     7     8    2
     8     7     9   am
     9     9    10    1
    10    10    11    2
    11    10    12    2
    12    10    13    1
    13    13    14    1
    14    15    14    1
    15    15    16    1
    16    16    17    1
    17    17    18    1
    18    18    19    1
    19    19    20    2
    20    20    21    1
    21    21    22    2
    22    22    23    1
    23    22    24    1
    24    24    25    2
    25    25    26    1
    26    26    27    2
    27    17    28    1
    28    28    29    1
    29    28    30    1
    30    30    31    1
    31    30    15    1
    32    27    18    1
    33    27    21    1
@<TRIPOS>SUBSTRUCTURE
     1 RES1        1 GROUP             0 ****  ****    0  
@<TRIPOS>MOLECULE
ligand_9
    31    33     1     0     0
SMALL
NO_CHARGES
****
Generated from the CSD

@<TRIPOS>ATOM
     1 C1      14.7011   8.6954   9.0889   C.3       1 RES1   0.0000
     2 C2      14.5338   9.1473   7.6320   C.3       1 RES1   0.0000
     3 C3      13.8476  10.5095   7.6614   C.3       1 RES1   0.0000
     4 C4      13.7033   8.1051   6.9433   C.3       1 RES1   0.0000
     5 C5      15.9119   9.1989   6.9093   C.3       1 RES1   0.0000
     6 O6      16.5637   7.8858   6.8814   O.3       1 RES1   0.0000
     7 C7      15.9309   9.7280   5.4486   C.2       1 RES1   0.0000
     8 O8      15.4785  10.8422   5.1631   O.2       1 RES1   0.0000
     9 N9      16.3742   8.8461   4.5768   N.am      1 RES1   0.0000
    10 S10     16.3797   9.0899   2.9652   S.o2      1 RES1   0.0000
    11 O11     15.0569   9.5634   2.5082   O.2       1 RES1   0.0000
    12 O12     16.8428   7.8573   2.3148   O.2       1 RES1   0.0000
    13 O13     17.2817  10.1543   2.5501   O.3       1 RES1   0.0000
    14 C14     18.7147   9.8516   2.6592   C.3       1 RES1   0.0000
    15 C15     19.5796  11.0535   2.1946   C.3       1 RES1   0.0000
    16 O16     19.2692  12.1535   3.0945   O.3       1 RES1   0.0000
    17 C17     20.4606  12.8726   3.4315   C.3       1 RES1   0.0000
    18 N18     20.3791  13.1683   4.8895   N.pl3     1 RES1   0.0000
    19 C19     20.0922  14.3551   5.4865   C.2       1 RES1   0.0000
    20 N20     20.1089  14.2212   6.8313   N.2       1 RES1   0.0000
    21 C21     20.3951  12.9296   7.0782   C.2       1 RES1   0.0000
    22 C22     20.5355  12.1717   8.2423   C.2       1 RES1   0.0000
    23 N23     20.3853  12.7442   9.4543   N.pl3     1 RES1   0.0000
    24 N24     20.8750  10.8717   8.1139   N.2       1 RES1   0.0000
    25 C25     21.0086  10.2680   6.9372   C.2       1 RES1   0.0000
    26 N26     20.8737  10.9486   5.7977   N.2       1 RES1   0.0000
    27 C27     20.5597  12.2675   5.8510   C.2       1 RES1   0.0000
    28 C28     21.6274  12.0551   2.9741   C.3       1 RES1   0.0000
    29 O29     22.4020  12.7758   1.9790   O.3       1 RES1   0.0000
    30 C30     21.0590  10.8027   2.3126   C.3       1 RES1   0.0000
    31 O31     21.5500  10.5697   1.0040   O.3       1 RES1   0.0000
@<TRIPOS>BOND
     1     1     2    1
     2     2     3    1
     3     2     4    1
     4     2     5    1
     5     5     6    1
     6     5     7    1
     7     7     8    2
     8     7     9   am
     9     9    10    1
    10    10    11    2
    11    10    12    2
    12    10    13    1
    13    13    14    1
    14    15    14    1
    15    15    16    1
    16    16    17    1
    17    17    18    1
    18    18    19    1
    19    19    20    2
    20    20    21    1
    21    21    22    2
    22    22    23    1
    23    22    24    1
    24    24    25    2
    25    25    26    1
    26    26    27    2
    27    17    28    1
    28    28    29    1
    29    28    30    1
    30    30    31    1
    31    30    15    1
    32    27    18    1
    33    27    21    1
@<TRIPOS>SUBSTRUCTURE
     1 RES1        1 GROUP             0 ****  ****    0  
@<TRIPOS>MOLECULE
ligand_10
    31    33     1     0     0
SMALL
NO_CHARGES
****
Generated from the CSD

@<TRIPOS>ATOM
     1 C1      14.4987   8.5442   8.9986   C.3       1 RES1   0.0000
     2 C2      14.2968   8.9044   7.5207   C.3       1 RES1   0.0000
     3 C3      13.3577  10.1058   7.4765   C.3       1 RES1   0.0000
     4 C4      13.7096   7.6967   6.8523   C.3       1 RES1   0.0000
     5 C5      15.6625   9.2005   6.8340   C.3       1 RES1   0.0000
     6 O6      16.5597   8.0416   6.8802   O.3       1 RES1   0.0000
     7 C7      15.6286   9.6688   5.3530   C.2       1 RES1   0.0000
     8 O8      14.9792  10.6623   5.0082   O.2       1 RES1   0.0000
     9 N9      16.2635   8.8585   4.5318   N.am      1 RES1   0.0000
    10 S10     16.3576   9.0928   2.9214   S.o2      1 RES1   0.0000
    11 O11     15.0621   9.5640   2.3898   O.2       1 RES1   0.0000
    12 O12     16.8548   7.8561   2.3047   O.2       1 RES1   0.0000
    13 O13     17.2817  10.1543   2.5501   O.3       1 RES1   0.0000
    14 C14     16.8603  11.5161   2.9033   C.3       1 RES1   0.0000
    15 C15     17.8928  12.5676   2.4166   C.3       1 RES1   0.0000
    16 O16     17.9363  12.4580   0.9666   O.3       1 RES1   0.0000
    17 C17     18.0156  13.7578   0.3712   C.3       1 RES1   0.0000
    18 N18     17.0972  13.7432  -0.8020   N.pl3     1 RES1   0.0000
    19 C19     17.4252  13.6683  -2.1189   C.2       1 RES1   0.0000
    20 N20     16.3100  13.6764  -2.8824   N.2       1 RES1   0.0000
    21 C21     15.2701  13.7417  -2.0306   C.2       1 RES1   0.0000
    22 C22     13.8835  13.7637  -2.1913   C.2       1 RES1   0.0000
    23 N23     13.3364  13.7258  -3.4236   N.pl3     1 RES1   0.0000
    24 N24     13.1198  13.8762  -1.0841   N.2       1 RES1   0.0000
    25 C25     13.6217  13.8928   0.1466   C.2       1 RES1   0.0000
    26 N26     14.9399  13.8633   0.3504   N.2       1 RES1   0.0000
    27 C27     15.7704  13.7785  -0.7191   C.2       1 RES1   0.0000
    28 C28     17.7266  14.7639   1.4403   C.3       1 RES1   0.0000
    29 O29     18.8676  15.6390   1.6452   O.3       1 RES1   0.0000
    30 C30     17.4930  13.9840   2.7313   C.3       1 RES1   0.0000
    31 O31     18.2954  14.4145   3.8169   O.3       1 RES1   0.0000
@<TRIPOS>BOND
     1     1     2    1
     2     2     3    1
     3     2     4    1
     4     2     5    1
     5     5     6    1
     6     5     7    1
     7     7     8    2
     8     7     9   am
     9     9    10    1
    10    10    11    2
    11    10    12    2
    12    10    13    1
    13    13    14    1
    14    15    14    1
    15    15    16    1
    16    16    17    1
    17    17    18    1
    18    18    19    1
    19    19    20    2
    20    20    21    1
    21    21    22    2
    22    22    23    1
    23    22    24    1
    24    24    25    2
    25    25    26    1
    26    26    27    2
    27    17    28    1
    28    28    29    1
    29    28    30    1
    30    30    31    1
    31    30    15    1
    32    27    18    1
    33    27    21    1
@<TRIPOS>SUBSTRUCTURE
     1 RES1        1 GROUP             0 ****  ****    0  
@<TRIPOS>MOLECULE
ligand_11
    31    33     1     0     0
SMALL
NO_CHARGES
****
Generated from the CSD

@<TRIPOS>ATOM
     1 C1      14.6809   8.2620   9.0375   C.3       1 RES1   0.0000
     2 C2      14.5085   8.8001   7.6108   C.3       1 RES1   0.0000
     3 C3      13.7828  10.1375   7.7209   C.3       1 RES1   0.0000
     4 C4      13.7124   7.7801   6.8517   C.3       1 RES1   0.0000
     5 C5      15.8885   8.9368   6.9028   C.3       1 RES1   0.0000
     6 O6      16.5786   7.6474   6.7976   O.3       1 RES1   0.0000
     7 C7      15.9000   9.5569   5.4783   C.2       1 RES1   0.0000
     8 O8      15.4182  10.6740   5.2601   O.2       1 RES1   0.0000
     9 N9      16.3720   8.7440   4.5560   N.am      1 RES1   0.0000
    10 S10     16.3796   9.0890   2.9630   S.o2      1 RES1   0.0000
    11 O11     17.0060   7.9912   2.1979   O.2       1 RES1   0.0000
    12 O12     17.0165  10.3995   2.7789   O.2       1 RES1   0.0000
    13 O13     15.0444   9.1811   2.3905   O.3       1 RES1   0.0000
    14 C14     14.2851   7.9249   2.3432   C.3       1 RES1   0.0000
    15 C15     13.3022   7.9075   1.1424   C.3       1 RES1   0.0000
    16 O16     12.2678   8.8989   1.3403   O.3       1 RES1   0.0000
    17 C17     12.2299   9.7816   0.2521   C.3       1 RES1   0.0000
    18 N18     11.8760  11.1396   0.7527   N.pl3     1 RES1   0.0000
    19 C19     10.7044  11.8099   0.5930   C.2       1 RES1   0.0000
    20 N20     10.7671  13.0171   1.1975   N.2       1 RES1   0.0000
    21 C21     11.9890  13.0963   1.7559   C.2       1 RES1   0.0000
    22 C22     12.6468  14.0627   2.5190   C.2       1 RES1   0.0000
    23 N23     12.0353  15.2249   2.8268   N.pl3     1 RES1   0.0000
    24 N24     13.9215  13.8173   2.8889   N.2       1 RES1   0.0000
    25 C25     14.5481  12.6753   2.6241   C.2       1 RES1   0.0000
    26 N26     13.9565  11.7182   1.9072   N.2       1 RES1   0.0000
    27 C27     12.6837  11.9082   1.4776   C.2       1 RES1   0.0000
    28 C28     13.6073   9.7030  -0.3937   C.3       1 RES1   0.0000
    29 O29     13.4974  10.1046  -1.7852   O.3       1 RES1   0.0000
    30 C30     13.9321   8.2331  -0.2094   C.3       1 RES1   0.0000
    31 O31     13.3010   7.4603  -1.2155   O.3       1 RES1   0.0000
@<TRIPOS>BOND
     1     1     2    1
     2     2     3    1
     3     2     4    1
     4     2     5    1
     5     5     6    1
     6     5     7    1
     7     7     8    2
     8     7     9   am
     9     9    10    1
    10    10    11    2
    11    10    12    2
    12    10    13    1
    13    13    14    1
    14    15    14    1
    15    15    16    1
    16    16    17    1
    17    17    18    1
    18    18    19    1
    19    19    20    2
    20    20    21    1
    21    21    22    2
    22    22    23    1
    23    22    24    1
    24    24    25    2
    25    25    26    1
    26    26    27    2
    27    17    28    1
    28    28    29    1
    29    28    30    1
    30    30    31    1
    31    30    15    1
    32    27    18    1
    33    27    21    1
@<TRIPOS>SUBSTRUCTURE
     1 RES1        1 GROUP             0 ****  ****    0  
@<TRIPOS>MOLECULE
ligand_12
    31    33     1     0     0
SMALL
NO_CHARGES
****
Generated from the CSD

@<TRIPOS>ATOM
     1 C1      14.7055   8.7038   9.0923   C.3       1 RES1   0.0000
     2 C2      14.5367   9.1530   7.6347   C.3       1 RES1   0.0000
     3 C3      13.8479  10.5139   7.6621   C.3       1 RES1   0.0000
     4 C4      13.7079   8.1081   6.9481   C.3       1 RES1   0.0000
     5 C5      15.9144   9.2060   6.9113   C.3       1 RES1   0.0000
     6 O6      16.5687   7.8940   6.8856   O.3       1 RES1   0.0000
     7 C7      15.9318   9.7325   5.4496   C.2       1 RES1   0.0000
     8 O8      15.4786  10.8459   5.1626   O.2       1 RES1   0.0000
     9 N9      16.3746   8.8492   4.5791   N.am      1 RES1   0.0000
    10 S10     16.3797   9.0906   2.9671   S.o2      1 RES1   0.0000
    11 O11     15.0568   9.5636   2.5097   O.2       1 RES1   0.0000
    12 O12     16.8425   7.8570   2.3183   O.2       1 RES1   0.0000
    13 O13     17.2817  10.1543   2.5501   O.3       1 RES1   0.0000
    14 C14     18.7147   9.8516   2.6592   C.3       1 RES1   0.0000
    15 C15     19.5404  11.1357   2.9379   C.3       1 RES1   0.0000
    16 O16     19.4996  12.0059   1.7832   O.3       1 RES1   0.0000
    17 C17     19.0184  13.2708   2.1480   C.3       1 RES1   0.0000
    18 N18     18.2135  13.8176   1.0197   N.pl3     1 RES1   0.0000
    19 C19     18.5430  14.8260   0.1700   C.2       1 RES1   0.0000
    20 N20     17.5517  15.0287  -0.7261   N.2       1 RES1   0.0000
    21 C21     16.5962  14.1245  -0.4425   C.2       1 RES1   0.0000
    22 C22     15.3557  13.8146  -1.0031   C.2       1 RES1   0.0000
    23 N23     14.8913  14.5073  -2.0632   N.pl3     1 RES1   0.0000
    24 N24     14.6227  12.8426  -0.4202   N.2       1 RES1   0.0000
    25 C25     15.0570  12.1236   0.6100   C.2       1 RES1   0.0000
    26 N26     16.2400  12.3760   1.1729   N.2       1 RES1   0.0000
    27 C27     17.0193  13.3590   0.6560   C.2       1 RES1   0.0000
    28 C28     18.2196  13.0574   3.4275   C.3       1 RES1   0.0000
    29 O29     18.1728  14.3072   4.1662   O.3       1 RES1   0.0000
    30 C30     19.0419  11.9799   4.1080   C.3       1 RES1   0.0000
    31 O31     20.1526  12.5557   4.7732   O.3       1 RES1   0.0000
@<TRIPOS>BOND
     1     1     2    1
     2     2     3    1
     3     2     4    1
     4     2     5    1
     5     5     6    1
     6     5     7    1
     7     7     8    2
     8     7     9   am
     9     9    10    1
    10    10    11    2
    11    10    12    2
    12    10    13    1
    13    13    14    1
    14    15    14    1
    15    15    16    1
    16    16    17    1
    17    17    18    1
    18    18    19    1
    19    19    20    2
    20    20    21    1
    21    21    22    2
    22    22    23    1
    23    22    24    1
    24    24    25    2
    25    25    26    1
    26    26    27    2
    27    17    28    1
    28    28    29    1
    29    28    30    1
    30    30    31    1
    31    30    15    1
    32    27    18    1
    33    27    21    1
@<TRIPOS>SUBSTRUCTURE
     1 RES1        1 GROUP             0 ****  ****    0  
@<TRIPOS>MOLECULE
ligand_13
    31    33     1     0     0
SMALL
NO_CHARGES
****
Generated from the CSD

@<TRIPOS>ATOM
     1 C1      14.7598   8.6899   9.1263   C.3       1 RES1   0.0000
     2 C2      14.5355   9.0745   7.6577   C.3       1 RES1   0.0000
     3 C3      13.7041  10.3535   7.6514   C.3       1 RES1   0.0000
     4 C4      13.8206   7.9263   7.0091   C.3       1 RES1   0.0000
     5 C5      15.8955   9.2539   6.9212   C.3       1 RES1   0.0000
     6 O6      16.6886   8.0206   6.9304   O.3       1 RES1   0.0000
     7 C7      15.8479   9.7325   5.4438   C.2       1 RES1   0.0000
     8 O8      15.2757  10.7811   5.1265   O.2       1 RES1   0.0000
     9 N9      16.3785   8.8748   4.5971   N.am      1 RES1   0.0000
    10 S10     16.3902   9.0874   2.9810   S.o2      1 RES1   0.0000
    11 O11     15.0644   9.5359   2.5077   O.2       1 RES1   0.0000
    12 O12     16.8716   7.8480   2.3572   O.2       1 RES1   0.0000
    13 O13     17.2817  10.1543   2.5501   O.3       1 RES1   0.0000
    14 C14     16.8603  11.5161   2.9033   C.3       1 RES1   0.0000
    15 C15     17.3808  12.5508   1.8704   C.3       1 RES1   0.0000
    16 O16     18.8230  12.6339   1.9427   O.3       1 RES1   0.0000
    17 C17     19.3855  12.3789   0.6844   C.3       1 RES1   0.0000
    18 N18     20.6736  11.6551   0.8766   N.pl3     1 RES1   0.0000
    19 C19     21.9342  12.1317   0.6999   C.2       1 RES1   0.0000
    20 N20     22.8434  11.1714   0.9788   N.2       1 RES1   0.0000
    21 C21     22.1421  10.0843   1.3497   C.2       1 RES1   0.0000
    22 C22     22.4923   8.7993   1.7684   C.2       1 RES1   0.0000
    23 N23     23.7887   8.4367   1.8540   N.pl3     1 RES1   0.0000
    24 N24     21.4973   7.9260   2.0310   N.2       1 RES1   0.0000
    25 C25     20.2101   8.2539   1.9801   C.2       1 RES1   0.0000
    26 N26     19.8272   9.4727   1.5955   N.2       1 RES1   0.0000
    27 C27     20.7741  10.3947   1.2889   C.2       1 RES1   0.0000
    28 C28     18.3395  11.5809  -0.0834   C.3       1 RES1   0.0000
    29 O29     18.5646  11.7588  -1.5073   O.3       1 RES1   0.0000
    30 C30     17.0592  12.2240   0.4143   C.3       1 RES1   0.0000
    31 O31     16.8085  13.4284  -0.2888   O.3       1 RES1   0.0000
@<TRIPOS>BOND
     1     1     2    1
     2     2     3    1
     3     2     4    1
     4     2     5    1
     5     5     6    1
     6     5     7    1
     7     7     8    2
     8     7     9   am
     9     9    10    1
    10    10    11    2
    11    10    12    2
    12    10    13    1
    13    13    14    1
    14    15    14    1
    15    15    16    1
    16    16    17    1
    17    17    18    1
    18    18    19    1
    19    19    20    2
    20    20    21    1
    21    21    22    2
    22    22    23    1
    23    22    24    1
    24    24    25    2
    25    25    26    1
    26    26    27    2
    27    17    28    1
    28    28    29    1
    29    28    30    1
    30    30    31    1
    31    30    15    1
    32    27    18    1
    33    27    21    1
@<TRIPOS>SUBSTRUCTURE
     1 RES1        1 GROUP             0 ****  ****    0  
@<TRIPOS>MOLECULE
ligand_14
    31    33     1     0     0
SMALL
NO_CHARGES
****
Generated from the CSD

@<TRIPOS>ATOM
     1 C1      14.5994   8.6762   9.0503   C.3       1 RES1   0.0000
     2 C2      14.4446   9.1027   7.5844   C.3       1 RES1   0.0000
     3 C3      13.6964  10.4321   7.5810   C.3       1 RES1   0.0000
     4 C4      13.6785   8.0153   6.8909   C.3       1 RES1   0.0000
     5 C5      15.8350   9.2091   6.8917   C.3       1 RES1   0.0000
     6 O6      16.5467   7.9271   6.8953   O.3       1 RES1   0.0000
     7 C7      15.8629   9.7209   5.4250   C.2       1 RES1   0.0000
     8 O8      15.3678  10.8102   5.1153   O.2       1 RES1   0.0000
     9 N9      16.3644   8.8494   4.5746   N.am      1 RES1   0.0000
    10 S10     16.3961   9.0745   2.9605   S.o2      1 RES1   0.0000
    11 O11     15.0721   9.5122   2.4722   O.2       1 RES1   0.0000
    12 O12     16.8996   7.8453   2.3342   O.2       1 RES1   0.0000
    13 O13     17.2817  10.1543   2.5501   O.3       1 RES1   0.0000
    14 C14     17.3316  10.4215   1.1069   C.3       1 RES1   0.0000
    15 C15     18.3215  11.5719   0.7825   C.3       1 RES1   0.0000
    16 O16     17.7753  12.7691   1.4026   O.3       1 RES1   0.0000
    17 C17     18.8227  13.5456   1.9942   C.3       1 RES1   0.0000
    18 N18     18.3083  14.0182   3.3103   N.pl3     1 RES1   0.0000
    19 C19     17.8156  15.2457   3.6229   C.2       1 RES1   0.0000
    20 N20     17.4442  15.2866   4.9217   N.2       1 RES1   0.0000
    21 C21     17.6937  14.0633   5.4241   C.2       1 RES1   0.0000
    22 C22     17.5165  13.4736   6.6771   C.2       1 RES1   0.0000
    23 N23     16.9980  14.1830   7.7004   N.pl3     1 RES1   0.0000
    24 N24     17.9270  12.1982   6.8401   N.2       1 RES1   0.0000
    25 C25     18.4205  11.4612   5.8501   C.2       1 RES1   0.0000
    26 N26     18.5987  11.9780   4.6330   N.2       1 RES1   0.0000
    27 C27     18.2339  13.2644   4.4035   C.2       1 RES1   0.0000
    28 C28     20.0560  12.6989   2.0177   C.3       1 RES1   0.0000
    29 O29     21.1111  13.3046   1.2241   O.3       1 RES1   0.0000
    30 C30     19.6896  11.3642   1.3745   C.3       1 RES1   0.0000
    31 O31     20.5500  10.9797   0.3164   O.3       1 RES1   0.0000
@<TRIPOS>BOND
     1     1     2    1
     2     2     3    1
     3     2     4    1
     4     2     5    1
     5     5     6    1
     6     5     7    1
     7     7     8    2
     8     7     9   am
     9     9    10    1
    10    10    11    2
    11    10    12    2
    12    10    13    1
    13    13    14    1
    14    15    14    1
    15    15    16    1
    16    16    17    1
    17    17    18    1
    18    18    19    1
    19    19    20    2
    20    20    21    1
    21    21    22    2
    22    22    23    1
    23    22    24    1
    24    24    25    2
    25    25    26    1
    26    26    27    2
    27    17    28    1
    28    28    29    1
    29    28    30    1
    30    30    31    1
    31    30    15    1
    32    27    18    1
    33    27    21    1
@<TRIPOS>SUBSTRUCTURE
     1 RES1        1 GROUP             0 ****  ****    0  
@<TRIPOS>MOLECULE
ligand_15
    31    33     1     0     0
SMALL
NO_CHARGES
****
Generated from the CSD

@<TRIPOS>ATOM
     1 C1      14.5876   8.6416   9.0733   C.3       1 RES1   0.0000
     2 C2      14.4425   9.1030   7.6170   C.3       1 RES1   0.0000
     3 C3      13.7444  10.4592   7.6440   C.3       1 RES1   0.0000
     4 C4      13.6332   8.0591   6.9059   C.3       1 RES1   0.0000
     5 C5      15.8329   9.1714   6.9195   C.3       1 RES1   0.0000
     6 O6      16.4963   7.8640   6.8944   O.3       1 RES1   0.0000
     7 C7      15.8734   9.7107   5.4629   C.2       1 RES1   0.0000
     8 O8      15.4179  10.8235   5.1772   O.2       1 RES1   0.0000
     9 N9      16.3382   8.8380   4.5931   N.am      1 RES1   0.0000
    10 S10     16.3708   9.0935   2.9836   S.o2      1 RES1   0.0000
    11 O11     16.9822   7.9420   2.2884   O.2       1 RES1   0.0000
    12 O12     17.0375  10.3783   2.7349   O.2       1 RES1   0.0000
    13 O13     15.0444   9.1811   2.3905   O.3       1 RES1   0.0000
    14 C14     14.2851   7.9249   2.3432   C.3       1 RES1   0.0000
    15 C15     12.8817   8.1400   1.7168   C.3       1 RES1   0.0000
    16 O16     12.1485   8.9940   2.6384   O.3       1 RES1   0.0000
    17 C17     11.3811   9.9631   1.9159   C.3       1 RES1   0.0000
    18 N18     11.5329  11.2534   2.6453   N.pl3     1 RES1   0.0000
    19 C19     12.4311  11.5630   3.6174   C.2       1 RES1   0.0000
    20 N20     12.2561  12.8378   4.0306   N.2       1 RES1   0.0000
    21 C21     11.2449  13.3370   3.2961   C.2       1 RES1   0.0000
    22 C22     10.6113  14.5795   3.2339   C.2       1 RES1   0.0000
    23 N23     10.9976  15.5863   4.0441   N.pl3     1 RES1   0.0000
    24 N24      9.5752  14.7196   2.3803   N.2       1 RES1   0.0000
    25 C25      9.1816  13.7583   1.5509   C.2       1 RES1   0.0000
    26 N26      9.7634  12.5577   1.5666   N.2       1 RES1   0.0000
    27 C27     10.7947  12.3364   2.4199   C.2       1 RES1   0.0000
    28 C28     11.8417   9.9356   0.4926   C.3       1 RES1   0.0000
    29 O29     10.7546   9.5559  -0.3927   O.3       1 RES1   0.0000
    30 C30     12.9236   8.8633   0.3975   C.3       1 RES1   0.0000
    31 O31     12.6919   7.9003  -0.6157   O.3       1 RES1   0.0000
@<TRIPOS>BOND
     1     1     2    1
     2     2     3    1
     3     2     4    1
     4     2     5    1
     5     5     6    1
     6     5     7    1
     7     7     8    2
     8     7     9   am
     9     9    10    1
    10    10    11    2
    11    10    12    2
    12    10    13    1
    13    13    14    1
    14    15    14    1
    15    15    16    1
    16    16    17    1
    17    17    18    1
    18    18    19    1
    19    19    20    2
    20    20    21    1
    21    21    22    2
    22    22    23    1
    23    22    24    1
    24    24    25    2
    25    25    26    1
    26    26    27    2
    27    17    28    1
    28    28    29    1
    29    28    30    1
    30    30    31    1
    31    30    15    1
    32    27    18    1
    33    27    21    1
@<TRIPOS>SUBSTRUCTURE
     1 RES1        1 GROUP             0 ****  ****    0  
@<TRIPOS>MOLECULE
ligand_16
    31    33     1     0     0
SMALL
NO_CHARGES
****
Generated from the CSD

@<TRIPOS>ATOM
     1 C1      14.7011   8.6954   9.0889   C.3       1 RES1   0.0000
     2 C2      14.5338   9.1473   7.6320   C.3       1 RES1   0.0000
     3 C3      13.8476  10.5095   7.6614   C.3       1 RES1   0.0000
     4 C4      13.7033   8.1051   6.9433   C.3       1 RES1   0.0000
     5 C5      15.9119   9.1989   6.9093   C.3       1 RES1   0.0000
     6 O6      16.5637   7.8858   6.8814   O.3       1 RES1   0.0000
     7 C7      15.9309   9.7280   5.4486   C.2       1 RES1   0.0000
     8 O8      15.4785  10.8422   5.1631   O.2       1 RES1   0.0000
     9 N9      16.3742   8.8461   4.5768   N.am      1 RES1   0.0000
    10 S10     16.3797   9.0899   2.9652   S.o2      1 RES1   0.0000
    11 O11     15.0569   9.5634   2.5082   O.2       1 RES1   0.0000
    12 O12     16.8428   7.8573   2.3148   O.2       1 RES1   0.0000
    13 O13     17.2817  10.1543   2.5501   O.3       1 RES1   0.0000
    14 C14     18.7147   9.8516   2.6592   C.3       1 RES1   0.0000
    15 C15     19.5796  11.0535   2.1946   C.3       1 RES1   0.0000
    16 O16     19.3307  11.2106   0.7699   O.3       1 RES1   0.0000
    17 C17     19.2304  12.5983   0.4320   C.3       1 RES1   0.0000
    18 N18     18.0933  12.7209  -0.5229   N.pl3     1 RES1   0.0000
    19 C19     17.1404  11.7954  -0.8106   C.2       1 RES1   0.0000
    20 N20     16.2743  12.2815  -1.7273   N.2       1 RES1   0.0000
    21 C21     16.6824  13.5335  -2.0051   C.2       1 RES1   0.0000
    22 C22     16.2084  14.5461  -2.8412   C.2       1 RES1   0.0000
    23 N23     15.1106  14.3496  -3.5999   N.pl3     1 RES1   0.0000
    24 N24     16.9105  15.6972  -2.9020   N.2       1 RES1   0.0000
    25 C25     17.9824  15.9352  -2.1528   C.2       1 RES1   0.0000
    26 N26     18.4664  15.0020  -1.3314   N.2       1 RES1   0.0000
    27 C27     17.8269  13.8089  -1.2397   C.2       1 RES1   0.0000
    28 C28     19.1229  13.3688   1.7100   C.3       1 RES1   0.0000
    29 O29     20.2428  14.2822   1.8559   O.3       1 RES1   0.0000
    30 C30     19.1917  12.3531   2.8471   C.3       1 RES1   0.0000
    31 O31     20.1796  12.6446   3.8201   O.3       1 RES1   0.0000
@<TRIPOS>BOND
     1     1     2    1
     2     2     3    1
     3     2     4    1
     4     2     5    1
     5     5     6    1
     6     5     7    1
     7     7     8    2
     8     7     9   am
     9     9    10    1
    10    10    11    2
    11    10    12    2
    12    10    13    1
    13    13    14    1
    14    15    14    1
    15    15    16    1
    16    16    17    1
    17    17    18    1
    18    18    19    1
    19    19    20    2
    20    20    21    1
    21    21    22    2
    22    22    23    1
    23    22    24    1
    24    24    25    2
    25    25    26    1
    26    26    27    2
    27    17    28    1
    28    28    29    1
    29    28    30    1
    30    30    31    1
    31    30    15    1
    32    27    18    1
    33    27    21    1
@<TRIPOS>SUBSTRUCTURE
     1 RES1        1 GROUP             0 ****  ****    0  
@<TRIPOS>MOLECULE
ligand_17
    31    33     1     0     0
SMALL
NO_CHARGES
****
Generated from the CSD

@<TRIPOS>ATOM
     1 C1      14.8406   9.1395   9.0581   C.3       1 RES1   0.0000
     2 C2      14.7374   9.5887   7.5945   C.3       1 RES1   0.0000
     3 C3      14.2997  11.0501   7.6040   C.3       1 RES1   0.0000
     4 C4      13.7297   8.6959   6.9329   C.3       1 RES1   0.0000
     5 C5      16.0947   9.3865   6.8589   C.3       1 RES1   0.0000
     6 O6      16.5050   7.9789   6.8467   O.3       1 RES1   0.0000
     7 C7      16.1896   9.8828   5.3896   C.2       1 RES1   0.0000
     8 O8      15.9370  11.0550   5.0900   O.2       1 RES1   0.0000
     9 N9      16.4607   8.9241   4.5285   N.am      1 RES1   0.0000
    10 S10     16.4023   9.1168   2.9110   S.o2      1 RES1   0.0000
    11 O11     16.9762   7.9392   2.2277   O.2       1 RES1   0.0000
    12 O12     17.0510  10.3910   2.5756   O.2       1 RES1   0.0000
    13 O13     15.0444   9.1811   2.3905   O.3       1 RES1   0.0000
    14 C14     14.2945  10.4001   2.7202   C.3       1 RES1   0.0000
    15 C15     12.8902  10.3916   2.0597   C.3       1 RES1   0.0000
    16 O16     13.1128  10.4578   0.6236   O.3       1 RES1   0.0000
    17 C17     12.2027   9.5907  -0.0618   C.3       1 RES1   0.0000
    18 N18     12.9884   8.9101  -1.1293   N.pl3     1 RES1   0.0000
    19 C19     14.3394   8.8634  -1.2714   C.2       1 RES1   0.0000
    20 N20     14.6725   8.1435  -2.3657   N.2       1 RES1   0.0000
    21 C21     13.5146   7.7214  -2.9063   C.2       1 RES1   0.0000
    22 C22     13.1897   6.9379  -4.0152   C.2       1 RES1   0.0000
    23 N23     14.1594   6.4397  -4.8093   N.pl3     1 RES1   0.0000
    24 N24     11.8830   6.7428  -4.2913   N.2       1 RES1   0.0000
    25 C25     10.9011   7.1981  -3.5195   C.2       1 RES1   0.0000
    26 N26     11.1630   7.9425  -2.4437   N.2       1 RES1   0.0000
    27 C27     12.4548   8.2025  -2.1209   C.2       1 RES1   0.0000
    28 C28     11.5560   8.7123   0.9623   C.3       1 RES1   0.0000
    29 O29     10.1193   8.9242   0.9884   O.3       1 RES1   0.0000
    30 C30     12.1182   9.1260   2.3196   C.3       1 RES1   0.0000
    31 O31     11.1264   9.4309   3.2846   O.3       1 RES1   0.0000
@<TRIPOS>BOND
     1     1     2    1
     2     2     3    1
     3     2     4    1
     4     2     5    1
     5     5     6    1
     6     5     7    1
     7     7     8    2
     8     7     9   am
     9     9    10    1
    10    10    11    2
    11    10    12    2
    12    10    13    1
    13    13    14    1
    14    15    14    1
    15    15    16    1
    16    16    17    1
    17    17    18    1
    18    18    19    1
    19    19    20    2
    20    20    21    1
    21    21    22    2
    22    22    23    1
    23    22    24    1
    24    24    25    2
    25    25    26    1
    26    26    27    2
    27    17    28    1
    28    28    29    1
    29    28    30    1
    30    30    31    1
    31    30    15    1
    32    27    18    1
    33    27    21    1
@<TRIPOS>SUBSTRUCTURE
     1 RES1        1 GROUP             0 ****  ****    0  
@<TRIPOS>MOLECULE
ligand_18
    31    33     1     0     0
SMALL
NO_CHARGES
****
Generated from the CSD

@<TRIPOS>ATOM
     1 C1      14.4987   8.5442   8.9986   C.3       1 RES1   0.0000
     2 C2      14.2968   8.9044   7.5207   C.3       1 RES1   0.0000
     3 C3      13.3577  10.1058   7.4765   C.3       1 RES1   0.0000
     4 C4      13.7096   7.6967   6.8523   C.3       1 RES1   0.0000
     5 C5      15.6625   9.2005   6.8340   C.3       1 RES1   0.0000
     6 O6      16.5597   8.0416   6.8802   O.3       1 RES1   0.0000
     7 C7      15.6286   9.6688   5.3530   C.2       1 RES1   0.0000
     8 O8      14.9792  10.6623   5.0082   O.2       1 RES1   0.0000
     9 N9      16.2635   8.8585   4.5318   N.am      1 RES1   0.0000
    10 S10     16.3576   9.0928   2.9214   S.o2      1 RES1   0.0000
    11 O11     15.0621   9.5640   2.3898   O.2       1 RES1   0.0000
    12 O12     16.8548   7.8561   2.3047   O.2       1 RES1   0.0000
    13 O13     17.2817  10.1543   2.5501   O.3       1 RES1   0.0000
    14 C14     16.8603  11.5161   2.9033   C.3       1 RES1   0.0000
    15 C15     17.8928  12.5676   2.4166   C.3       1 RES1   0.0000
    16 O16     19.1074  12.3338   3.1825   O.3       1 RES1   0.0000
    17 C17     20.2591  12.4670   2.3424   C.3       1 RES1   0.0000
    18 N18     21.1826  11.3572   2.7102   N.pl3     1 RES1   0.0000
    19 C19     20.9102  10.2579   3.4618   C.2       1 RES1   0.0000
    20 N20     22.0083   9.4772   3.5685   N.2       1 RES1   0.0000
    21 C21     22.9762  10.0890   2.8612   C.2       1 RES1   0.0000
    22 C22     24.3080   9.7849   2.5734   C.2       1 RES1   0.0000
    23 N23     24.8744   8.6617   3.0602   N.pl3     1 RES1   0.0000
    24 N24     25.0160  10.6716   1.8424   N.2       1 RES1   0.0000
    25 C25     24.4860  11.7763   1.3270   C.2       1 RES1   0.0000
    26 N26     23.2148  12.1036   1.5659   N.2       1 RES1   0.0000
    27 C27     22.4502  11.2718   2.3171   C.2       1 RES1   0.0000
    28 C28     19.7833  12.5055   0.9244   C.3       1 RES1   0.0000
    29 O29     20.1395  13.7657   0.2962   O.3       1 RES1   0.0000
    30 C30     18.2604  12.4130   0.9653   C.3       1 RES1   0.0000
    31 O31     17.6018  13.4463   0.2539   O.3       1 RES1   0.0000
@<TRIPOS>BOND
     1     1     2    1
     2     2     3    1
     3     2     4    1
     4     2     5    1
     5     5     6    1
     6     5     7    1
     7     7     8    2
     8     7     9   am
     9     9    10    1
    10    10    11    2
    11    10    12    2
    12    10    13    1
    13    13    14    1
    14    15    14    1
    15    15    16    1
    16    16    17    1
    17    17    18    1
    18    18    19    1
    19    19    20    2
    20    20    21    1
    21    21    22    2
    22    22    23    1
    23    22    24    1
    24    24    25    2
    25    25    26    1
    26    26    27    2
    27    17    28    1
    28    28    29    1
    29    28    30    1
    30    30    31    1
    31    30    15    1
    32    27    18    1
    33    27    21    1
@<TRIPOS>SUBSTRUCTURE
     1 RES1        1 GROUP             0 ****  ****    0  
@<TRIPOS>MOLECULE
ligand_19
    31    33     1     0     0
SMALL
NO_CHARGES
****
Generated from the CSD

@<TRIPOS>ATOM
     1 C1      14.8271   8.7046   9.1346   C.3       1 RES1   0.0000
     2 C2      14.6249   9.0844   7.6616   C.3       1 RES1   0.0000
     3 C3      13.8593  10.4037   7.6400   C.3       1 RES1   0.0000
     4 C4      13.8538   7.9670   7.0236   C.3       1 RES1   0.0000
     5 C5      15.9934   9.1869   6.9260   C.3       1 RES1   0.0000
     6 O6      16.6964   7.9004   6.8982   O.3       1 RES1   0.0000
     7 C7      15.9784   9.7090   5.4628   C.2       1 RES1   0.0000
     8 O8      16.1517   8.9454   4.5065   O.2       1 RES1   0.0000
     9 N9      15.8648  11.0180   5.3740   N.am      1 RES1   0.0000
    10 S10     15.9370  11.8397   3.9681   S.o2      1 RES1   0.0000
    11 O11     15.7404  13.2852   4.2021   O.2       1 RES1   0.0000
    12 O12     14.9766  11.2385   3.0337   O.2       1 RES1   0.0000
    13 O13     17.2452  11.7748   3.3332   O.3       1 RES1   0.0000
    14 C14     18.3182  12.5134   4.0116   C.3       1 RES1   0.0000
    15 C15     19.6690  12.3544   3.2643   C.3       1 RES1   0.0000
    16 O16     19.4756  12.9297   1.9422   O.3       1 RES1   0.0000
    17 C17     20.6329  13.6756   1.5496   C.3       1 RES1   0.0000
    18 N18     20.1346  14.9248   0.9084   N.pl3     1 RES1   0.0000
    19 C19     20.1047  15.2297  -0.4158   C.2       1 RES1   0.0000
    20 N20     19.5745  16.4586  -0.6036   N.2       1 RES1   0.0000
    21 C21     19.2543  16.9220   0.6186   C.2       1 RES1   0.0000
    22 C22     18.6674  18.0988   1.0877   C.2       1 RES1   0.0000
    23 N23     18.3026  19.0718   0.2279   N.pl3     1 RES1   0.0000
    24 N24     18.5281  18.2483   2.4219   N.2       1 RES1   0.0000
    25 C25     18.8544  17.3028   3.2973   C.2       1 RES1   0.0000
    26 N26     19.4085  16.1576   2.8957   N.2       1 RES1   0.0000
    27 C27     19.6043  15.9498   1.5693   C.2       1 RES1   0.0000
    28 C28     21.4984  13.8384   2.7592   C.3       1 RES1   0.0000
    29 O29     22.7911  13.2082   2.5555   O.3       1 RES1   0.0000
    30 C30     20.7973  13.1159   3.9063   C.3       1 RES1   0.0000
    31 O31     21.6135  12.1705   4.5754   O.3       1 RES1   0.0000
@<TRIPOS>BOND
     1     1     2    1
     2     2     3    1
     3     2     4    1
     4     2     5    1
     5     5     6    1
     6     5     7    1
     7     7     8    2
     8     7     9   am
     9     9    10    1
    10    10    11    2
    11    10    12    2
    12    10    13    1
    13    13    14    1
    14    15    14    1
    15    15    16    1
    16    16    17    1
    17    17    18    1
    18    18    19    1
    19    19    20    2
    20    20    21    1
    21    21    22    2
    22    22    23    1
    23    22    24    1
    24    24    25    2
    25    25    26    1
    26    26    27    2
    27    17    28    1
    28    28    29    1
    29    28    30    1
    30    30    31    1
    31    30    15    1
    32    27    18    1
    33    27    21    1
@<TRIPOS>SUBSTRUCTURE
     1 RES1        1 GROUP             0 ****  ****    0  
@<TRIPOS>MOLECULE
ligand_20
    31    33     1     0     0
SMALL
NO_CHARGES
****
Generated from the CSD

@<TRIPOS>ATOM
     1 C1      14.7704   8.7533   9.1227   C.3       1 RES1   0.0000
     2 C2      14.5749   9.1310   7.6482   C.3       1 RES1   0.0000
     3 C3      13.8228  10.4580   7.6215   C.3       1 RES1   0.0000
     4 C4      13.7936   8.0198   7.0118   C.3       1 RES1   0.0000
     5 C5      15.9458   9.2175   6.9151   C.3       1 RES1   0.0000
     6 O6      16.6353   7.9236   6.8916   O.3       1 RES1   0.0000
     7 C7      15.9389   9.7363   5.4506   C.2       1 RES1   0.0000
     8 O8      16.1051   8.9685   4.4964   O.2       1 RES1   0.0000
     9 N9      15.8403  11.0463   5.3585   N.am      1 RES1   0.0000
    10 S10     15.9334  11.8646   3.9519   S.o2      1 RES1   0.0000
    11 O11     17.1177  11.4351   3.1799   O.2       1 RES1   0.0000
    12 O12     15.8910  13.3016   4.2517   O.2       1 RES1   0.0000
    13 O13     14.8238  11.5851   3.0521   O.3       1 RES1   0.0000
    14 C14     13.5242  12.1378   3.4551   C.3       1 RES1   0.0000
    15 C15     12.4200  11.7865   2.4228   C.3       1 RES1   0.0000
    16 O16     12.3156  10.3355   2.4126   O.3       1 RES1   0.0000
    17 C17     10.9431   9.9356   2.3331   C.3       1 RES1   0.0000
    18 N18     10.7787   8.7948   3.2774   N.pl3     1 RES1   0.0000
    19 C19     10.6660   7.4734   2.9797   C.2       1 RES1   0.0000
    20 N20     10.5363   6.7459   4.1114   N.2       1 RES1   0.0000
    21 C21     10.5841   7.6228   5.1311   C.2       1 RES1   0.0000
    22 C22     10.5248   7.5002   6.5206   C.2       1 RES1   0.0000
    23 N23     10.3787   6.2888   7.0953   N.pl3     1 RES1   0.0000
    24 N24     10.5656   8.6300   7.2579   N.2       1 RES1   0.0000
    25 C25     10.7320   9.8379   6.7286   C.2       1 RES1   0.0000
    26 N26     10.8042  10.0037   5.4067   N.2       1 RES1   0.0000
    27 C27     10.7422   8.9136   4.6015   C.2       1 RES1   0.0000
    28 C28     10.1030  11.1472   2.5877   C.3       1 RES1   0.0000
    29 O29      9.2755  11.4513   1.4334   O.3       1 RES1   0.0000
    30 C30     11.0623  12.3149   2.8008   C.3       1 RES1   0.0000
    31 O31     10.8017  13.4328   1.9700   O.3       1 RES1   0.0000
@<TRIPOS>BOND
     1     1     2    1
     2     2     3    1
     3     2     4    1
     4     2     5    1
     5     5     6    1
     6     5     7    1
     7     7     8    2
     8     7     9   am
     9     9    10    1
    10    10    11    2
    11    10    12    2
    12    10    13    1
    13    13    14    1
    14    15    14    1
    15    15    16    1
    16    16    17    1
    17    17    18    1
    18    18    19    1
    19    19    20    2
    20    20    21    1
    21    21    22    2
    22    22    23    1
    23    22    24    1
    24    24    25    2
    25    25    26    1
    26    26    27    2
    27    17    28    1
    28    28    29    1
    29    28    30    1
    30    30    31    1
    31    30    15    1
    32    27    18    1
    33    27    21    1
@<TRIPOS>SUBSTRUCTURE
     1 RES1        1 GROUP             0 ****  ****    0  
@<TRIPOS>MOLECULE
ligand_21
    31    33     1     0     0
SMALL
NO_CHARGES
****
Generated from the CSD

@<TRIPOS>ATOM
     1 C1      14.6307   8.7617   9.0544   C.3       1 RES1   0.0000
     2 C2      14.3750   9.2259   7.6143   C.3       1 RES1   0.0000
     3 C3      13.8291  10.6483   7.6922   C.3       1 RES1   0.0000
     4 C4      13.3880   8.2684   7.0148   C.3       1 RES1   0.0000
     5 C5      15.6796   9.1424   6.7685   C.3       1 RES1   0.0000
     6 O6      16.1652   7.7642   6.6480   O.3       1 RES1   0.0000
     7 C7      15.6312   9.7172   5.3258   C.2       1 RES1   0.0000
     8 O8      15.5959   8.9737   4.3391   O.2       1 RES1   0.0000
     9 N9      15.7299  11.0296   5.2803   N.am      1 RES1   0.0000
    10 S10     15.9080  11.8767   3.8992   S.o2      1 RES1   0.0000
    11 O11     15.7530  13.3236   4.1551   O.2       1 RES1   0.0000
    12 O12     14.9776  11.3322   2.9019   O.2       1 RES1   0.0000
    13 O13     17.2452  11.7748   3.3332   O.3       1 RES1   0.0000
    14 C14     17.5953  10.4684   2.7610   C.3       1 RES1   0.0000
    15 C15     19.0114  10.4942   2.1267   C.3       1 RES1   0.0000
    16 O16     19.9390  10.7894   3.2078   O.3       1 RES1   0.0000
    17 C17     21.1231   9.9948   3.0787   C.3       1 RES1   0.0000
    18 N18     21.4684   9.5232   4.4493   N.pl3     1 RES1   0.0000
    19 C19     22.4605   9.9727   5.2623   C.2       1 RES1   0.0000
    20 N20     22.4523   9.2963   6.4324   N.2       1 RES1   0.0000
    21 C21     21.4315   8.4227   6.3559   C.2       1 RES1   0.0000
    22 C22     20.9005   7.4713   7.2288   C.2       1 RES1   0.0000
    23 N23     21.4463   7.2800   8.4473   N.pl3     1 RES1   0.0000
    24 N24     19.8657   6.7215   6.7943   N.2       1 RES1   0.0000
    25 C25     19.2876   6.8970   5.6103   C.2       1 RES1   0.0000
    26 N26     19.7533   7.8010   4.7466   N.2       1 RES1   0.0000
    27 C27     20.8101   8.5722   5.1057   C.2       1 RES1   0.0000
    28 C28     20.8514   8.9408   2.0522   C.3       1 RES1   0.0000
    29 O29     21.7542   9.0778   0.9227   O.3       1 RES1   0.0000
    30 C30     19.4287   9.1686   1.5488   C.3       1 RES1   0.0000
    31 O31     19.3270   9.2753   0.1395   O.3       1 RES1   0.0000
@<TRIPOS>BOND
     1     1     2    1
     2     2     3    1
     3     2     4    1
     4     2     5    1
     5     5     6    1
     6     5     7    1
     7     7     8    2
     8     7     9   am
     9     9    10    1
    10    10    11    2
    11    10    12    2
    12    10    13    1
    13    13    14    1
    14    15    14    1
    15    15    16    1
    16    16    17    1
    17    17    18    1
    18    18    19    1
    19    19    20    2
    20    20    21    1
    21    21    22    2
    22    22    23    1
    23    22    24    1
    24    24    25    2
    25    25    26    1
    26    26    27    2
    27    17    28    1
    28    28    29    1
    29    28    30    1
    30    30    31    1
    31    30    15    1
    32    27    18    1
    33    27    21    1
@<TRIPOS>SUBSTRUCTURE
     1 RES1        1 GROUP             0 ****  ****    0  
@<TRIPOS>MOLECULE
ligand_22
    31    33     1     0     0
SMALL
NO_CHARGES
****
Generated from the CSD

@<TRIPOS>ATOM
     1 C1      14.8347   8.4398   8.8701   C.3       1 RES1   0.0000
     2 C2      14.7469   8.8413   7.3917   C.3       1 RES1   0.0000
     3 C3      13.8008  10.0350   7.3069   C.3       1 RES1   0.0000
     4 C4      14.2284   7.6484   6.6444   C.3       1 RES1   0.0000
     5 C5      16.1595   9.1696   6.8250   C.3       1 RES1   0.0000
     6 O6      17.0447   8.0009   6.8534   O.3       1 RES1   0.0000
     7 C7      16.2332   9.7393   5.3813   C.2       1 RES1   0.0000
     8 O8      16.6257   9.0459   4.4365   O.2       1 RES1   0.0000
     9 N9      15.9369  11.0202   5.3071   N.am      1 RES1   0.0000
    10 S10     15.9564  11.8750   3.9193   S.o2      1 RES1   0.0000
    11 O11     17.1242  11.4996   3.0957   O.2       1 RES1   0.0000
    12 O12     15.8837  13.3025   4.2569   O.2       1 RES1   0.0000
    13 O13     14.8238  11.5851   3.0521   O.3       1 RES1   0.0000
    14 C14     14.8183  10.2508   2.4386   C.3       1 RES1   0.0000
    15 C15     13.5972  10.0700   1.4982   C.3       1 RES1   0.0000
    16 O16     13.7410  11.0630   0.4448   O.3       1 RES1   0.0000
    17 C17     13.3756  10.5027  -0.8211   C.3       1 RES1   0.0000
    18 N18     14.3837  10.9866  -1.8057   N.pl3     1 RES1   0.0000
    19 C19     14.2318  11.9507  -2.7517   C.2       1 RES1   0.0000
    20 N20     15.3780  12.1088  -3.4502   N.2       1 RES1   0.0000
    21 C21     16.2632  11.2426  -2.9236   C.2       1 RES1   0.0000
    22 C22     17.6004  10.9405  -3.1874   C.2       1 RES1   0.0000
    23 N23     18.2662  11.5815  -4.1698   N.pl3     1 RES1   0.0000
    24 N24     18.1813   9.9579  -2.4671   N.2       1 RES1   0.0000
    25 C25     17.5646   9.3209  -1.4767   C.2       1 RES1   0.0000
    26 N26     16.2902   9.5826  -1.1810   N.2       1 RES1   0.0000
    27 C27     15.6340  10.5402  -1.8833   C.2       1 RES1   0.0000
    28 C28     13.2633   9.0211  -0.6449   C.3       1 RES1   0.0000
    29 O29     11.9121   8.5701  -0.9288   O.3       1 RES1   0.0000
    30 C30     13.5603   8.7255   0.8227   C.3       1 RES1   0.0000
    31 O31     12.5593   7.9591   1.4694   O.3       1 RES1   0.0000
@<TRIPOS>BOND
     1     1     2    1
     2     2     3    1
     3     2     4    1
     4     2     5    1
     5     5     6    1
     6     5     7    1
     7     7     8    2
     8     7     9   am
     9     9    10    1
    10    10    11    2
    11    10    12    2
    12    10    13    1
    13    13    14    1
    14    15    14    1
    15    15    16    1
    16    16    17    1
    17    17    18    1
    18    18    19    1
    19    19    20    2
    20    20    21    1
    21    21    22    2
    22    22    23    1
    23    22    24    1
    24    24    25    2
    25    25    26    1
    26    26    27    2
    27    17    28    1
    28    28    29    1
    29    28    30    1
    30    30    31    1
    31    30    15    1
    32    27    18    1
    33    27    21    1
@<TRIPOS>SUBSTRUCTURE
     1 RES1        1 GROUP             0 ****  ****    0  
@<TRIPOS>MOLECULE
ligand_23
    31    33     1     0     0
SMALL
NO_CHARGES
****
Generated from the CSD

@<TRIPOS>ATOM
     1 C1      14.7011   8.6954   9.0889   C.3       1 RES1   0.0000
     2 C2      14.5338   9.1473   7.6320   C.3       1 RES1   0.0000
     3 C3      13.8476  10.5095   7.6614   C.3       1 RES1   0.0000
     4 C4      13.7033   8.1051   6.9433   C.3       1 RES1   0.0000
     5 C5      15.9119   9.1989   6.9093   C.3       1 RES1   0.0000
     6 O6      16.5637   7.8858   6.8814   O.3       1 RES1   0.0000
     7 C7      15.9309   9.7280   5.4486   C.2       1 RES1   0.0000
     8 O8      15.4785  10.8422   5.1631   O.2       1 RES1   0.0000
     9 N9      16.3742   8.8461   4.5768   N.am      1 RES1   0.0000
    10 S10     16.3797   9.0899   2.9652   S.o2      1 RES1   0.0000
    11 O11     15.0569   9.5634   2.5082   O.2       1 RES1   0.0000
    12 O12     16.8428   7.8573   2.3148   O.2       1 RES1   0.0000
    13 O13     17.2817  10.1543   2.5501   O.3       1 RES1   0.0000
    14 C14     18.7147   9.8516   2.6592   C.3       1 RES1   0.0000
    15 C15     19.5796  11.0535   2.1946   C.3       1 RES1   0.0000
    16 O16     20.9611  10.6984   2.4803   O.3       1 RES1   0.0000
    17 C17     21.8144  11.1165   1.4092   C.3       1 RES1   0.0000
    18 N18     22.7802  10.0056   1.1785   N.pl3     1 RES1   0.0000
    19 C19     24.0905   9.9501   1.5353   C.2       1 RES1   0.0000
    20 N20     24.6320   8.7716   1.1548   N.2       1 RES1   0.0000
    21 C21     23.6427   8.0747   0.5659   C.2       1 RES1   0.0000
    22 C22     23.5588   6.8056  -0.0099   C.2       1 RES1   0.0000
    23 N23     24.6418   6.0031  -0.0589   N.pl3     1 RES1   0.0000
    24 N24     22.3817   6.4353  -0.5568   N.2       1 RES1   0.0000
    25 C25     21.2880   7.1890  -0.5070   C.2       1 RES1   0.0000
    26 N26     21.3168   8.4046   0.0421   N.2       1 RES1   0.0000
    27 C27     22.4750   8.8541   0.5872   C.2       1 RES1   0.0000
    28 C28     20.9401  11.4992   0.2569   C.3       1 RES1   0.0000
    29 O29     21.1221  12.8993  -0.0841   O.3       1 RES1   0.0000
    30 C30     19.4963  11.3091   0.7137   C.3       1 RES1   0.0000
    31 O31     18.6797  12.4526   0.5313   O.3       1 RES1   0.0000
@<TRIPOS>BOND
     1     1     2    1
     2     2     3    1
     3     2     4    1
     4     2     5    1
     5     5     6    1
     6     5     7    1
     7     7     8    2
     8     7     9   am
     9     9    10    1
    10    10    11    2
    11    10    12    2
    12    10    13    1
    13    13    14    1
    14    15    14    1
    15    15    16    1
    16    16    17    1
    17    17    18    1
    18    18    19    1
    19    19    20    2
    20    20    21    1
    21    21    22    2
    22    22    23    1
    23    22    24    1
    24    24    25    2
    25    25    26    1
    26    26    27    2
    27    17    28    1
    28    28    29    1
    29    28    30    1
    30    30    31    1
    31    30    15    1
    32    27    18    1
    33    27    21    1
@<TRIPOS>SUBSTRUCTURE
     1 RES1        1 GROUP             0 ****  ****    0  
@<TRIPOS>MOLECULE
ligand_24
    31    33     1     0     0
SMALL
NO_CHARGES
****
Generated from the CSD

@<TRIPOS>ATOM
     1 C1      14.8406   9.1395   9.0581   C.3       1 RES1   0.0000
     2 C2      14.7374   9.5887   7.5945   C.3       1 RES1   0.0000
     3 C3      14.2997  11.0501   7.6040   C.3       1 RES1   0.0000
     4 C4      13.7297   8.6959   6.9329   C.3       1 RES1   0.0000
     5 C5      16.0947   9.3865   6.8589   C.3       1 RES1   0.0000
     6 O6      16.5050   7.9789   6.8467   O.3       1 RES1   0.0000
     7 C7      16.1896   9.8828   5.3896   C.2       1 RES1   0.0000
     8 O8      15.9370  11.0550   5.0900   O.2       1 RES1   0.0000
     9 N9      16.4607   8.9241   4.5285   N.am      1 RES1   0.0000
    10 S10     16.4023   9.1168   2.9110   S.o2      1 RES1   0.0000
    11 O11     16.9762   7.9392   2.2277   O.2       1 RES1   0.0000
    12 O12     17.0510  10.3910   2.5756   O.2       1 RES1   0.0000
    13 O13     15.0444   9.1811   2.3905   O.3       1 RES1   0.0000
    14 C14     14.2945  10.4001   2.7202   C.3       1 RES1   0.0000
    15 C15     12.8902  10.3916   2.0597   C.3       1 RES1   0.0000
    16 O16     12.1919  11.5625   2.5672   O.3       1 RES1   0.0000
    17 C17     11.4431  12.1886   1.5197   C.3       1 RES1   0.0000
    18 N18     11.6393  13.6571   1.6778   N.pl3     1 RES1   0.0000
    19 C19     10.7605  14.5692   2.1709   C.2       1 RES1   0.0000
    20 N20     11.3082  15.8047   2.1581   N.2       1 RES1   0.0000
    21 C21     12.5520  15.6608   1.6647   C.2       1 RES1   0.0000
    22 C22     13.6081  16.5411   1.4221   C.2       1 RES1   0.0000
    23 N23     13.4779  17.8567   1.6895   N.pl3     1 RES1   0.0000
    24 N24     14.7330  16.0424   0.8674   N.2       1 RES1   0.0000
    25 C25     14.9061  14.7495   0.6119   C.2       1 RES1   0.0000
    26 N26     13.9293  13.8689   0.8366   N.2       1 RES1   0.0000
    27 C27     12.7591  14.3041   1.3678   C.2       1 RES1   0.0000
    28 C28     11.8859  11.5855   0.2240   C.3       1 RES1   0.0000
    29 O29     10.7783  10.9190  -0.4384   O.3       1 RES1   0.0000
    30 C30     12.9364  10.5312   0.5619   C.3       1 RES1   0.0000
    31 O31     12.6661   9.2530   0.0134   O.3       1 RES1   0.0000
@<TRIPOS>BOND
     1     1     2    1
     2     2     3    1
     3     2     4    1
     4     2     5    1
     5     5     6    1
     6     5     7    1
     7     7     8    2
     8     7     9   am
     9     9    10    1
    10    10    11    2
    11    10    12    2
    12    10    13    1
    13    13    14    1
    14    15    14    1
    15    15    16    1
    16    16    17    1
    17    17    18    1
    18    18    19    1
    19    19    20    2
    20    20    21    1
    21    21    22    2
    22    22    23    1
    23    22    24    1
    24    24    25    2
    25    25    26    1
    26    26    27    2
    27    17    28    1
    28    28    29    1
    29    28    30    1
    30    30    31    1
    31    30    15    1
    32    27    18    1
    33    27    21    1
@<TRIPOS>SUBSTRUCTURE
     1 RES1        1 GROUP             0 ****  ****    0  
@<TRIPOS>MOLECULE
ligand_25
    31    33     1     0     0
SMALL
NO_CHARGES
****
Generated from the CSD

@<TRIPOS>ATOM
     1 C1      14.4987   8.5442   8.9986   C.3       1 RES1   0.0000
     2 C2      14.2968   8.9044   7.5207   C.3       1 RES1   0.0000
     3 C3      13.3577  10.1058   7.4765   C.3       1 RES1   0.0000
     4 C4      13.7096   7.6967   6.8523   C.3       1 RES1   0.0000
     5 C5      15.6625   9.2005   6.8340   C.3       1 RES1   0.0000
     6 O6      16.5597   8.0416   6.8802   O.3       1 RES1   0.0000
     7 C7      15.6286   9.6688   5.3530   C.2       1 RES1   0.0000
     8 O8      14.9792  10.6623   5.0082   O.2       1 RES1   0.0000
     9 N9      16.2635   8.8585   4.5318   N.am      1 RES1   0.0000
    10 S10     16.3576   9.0928   2.9214   S.o2      1 RES1   0.0000
    11 O11     15.0621   9.5640   2.3898   O.2       1 RES1   0.0000
    12 O12     16.8548   7.8561   2.3047   O.2       1 RES1   0.0000
    13 O13     17.2817  10.1543   2.5501   O.3       1 RES1   0.0000
    14 C14     16.8603  11.5161   2.9033   C.3       1 RES1   0.0000
    15 C15     17.8928  12.5676   2.4166   C.3       1 RES1   0.0000
    16 O16     17.3083  13.8717   2.6884   O.3       1 RES1   0.0000
    17 C17     18.3068  14.7721   3.1806   C.3       1 RES1   0.0000
    18 N18     17.6783  15.5328   4.2970   N.pl3     1 RES1   0.0000
    19 C19     17.2372  16.8184   4.2878   C.2       1 RES1   0.0000
    20 N20     16.7232  17.1478   5.4936   N.2       1 RES1   0.0000
    21 C21     16.8302  16.0483   6.2624   C.2       1 RES1   0.0000
    22 C22     16.4712  15.7441   7.5768   C.2       1 RES1   0.0000
    23 N23     15.8881  16.6745   8.3601   N.pl3     1 RES1   0.0000
    24 N24     16.7730  14.5154   8.0470   N.2       1 RES1   0.0000
    25 C25     17.3257  13.5662   7.2985   C.2       1 RES1   0.0000
    26 N26     17.6766  13.8068   6.0340   N.2       1 RES1   0.0000
    27 C27     17.4284  15.0302   5.5026   C.2       1 RES1   0.0000
    28 C28     19.5201  13.9633   3.5157   C.3       1 RES1   0.0000
    29 O29     20.6536  14.3767   2.7069   O.3       1 RES1   0.0000
    30 C30     19.1963  12.5132   3.1671   C.3       1 RES1   0.0000
    31 O31     20.1464  11.9007   2.3128   O.3       1 RES1   0.0000
@<TRIPOS>BOND
     1     1     2    1
     2     2     3    1
     3     2     4    1
     4     2     5    1
     5     5     6    1
     6     5     7    1
     7     7     8    2
     8     7     9   am
     9     9    10    1
    10    10    11    2
    11    10    12    2
    12    10    13    1
    13    13    14    1
    14    15    14    1
    15    15    16    1
    16    16    17    1
    17    17    18    1
    18    18    19    1
    19    19    20    2
    20    20    21    1
    21    21    22    2
    22    22    23    1
    23    22    24    1
    24    24    25    2
    25    25    26    1
    26    26    27    2
    27    17    28    1
    28    28    29    1
    29    28    30    1
    30    30    31    1
    31    30    15    1
    32    27    18    1
    33    27    21    1
@<TRIPOS>SUBSTRUCTURE
     1 RES1        1 GROUP             0 ****  ****    0  
@<TRIPOS>MOLECULE
ligand_26
    31    33     1     0     0
SMALL
NO_CHARGES
****
Generated from the CSD

@<TRIPOS>ATOM
     1 C1      14.5789   9.1663   9.1092   C.3       1 RES1   0.0000
     2 C2      14.4559   9.5513   7.6289   C.3       1 RES1   0.0000
     3 C3      13.8737  10.9605   7.5793   C.3       1 RES1   0.0000
     4 C4      13.5543   8.5388   6.9869   C.3       1 RES1   0.0000
     5 C5      15.8390   9.4616   6.9193   C.3       1 RES1   0.0000
     6 O6      16.3946   8.1058   6.9752   O.3       1 RES1   0.0000
     7 C7      15.9056   9.9007   5.4305   C.2       1 RES1   0.0000
     8 O8      15.5144  11.0170   5.0720   O.2       1 RES1   0.0000
     9 N9      16.3161   8.9473   4.6201   N.am      1 RES1   0.0000
    10 S10     16.3647   9.0967   2.9977   S.o2      1 RES1   0.0000
    11 O11     16.9483   7.8865   2.3831   O.2       1 RES1   0.0000
    12 O12     17.0674  10.3443   2.6711   O.2       1 RES1   0.0000
    13 O13     15.0444   9.1811   2.3905   O.3       1 RES1   0.0000
    14 C14     14.2851   7.9249   2.3432   C.3       1 RES1   0.0000
    15 C15     12.8817   8.1400   1.7168   C.3       1 RES1   0.0000
    16 O16     12.3206   6.8148   1.5044   O.3       1 RES1   0.0000
    17 C17     10.9293   6.8031   1.8426   C.3       1 RES1   0.0000
    18 N18     10.6839   5.5337   2.5831   N.pl3     1 RES1   0.0000
    19 C19     10.0720   4.4074   2.1308   C.2       1 RES1   0.0000
    20 N20     10.0443   3.4657   3.0999   N.2       1 RES1   0.0000
    21 C21     10.6610   4.0050   4.1676   C.2       1 RES1   0.0000
    22 C22     10.9652   3.5424   5.4492   C.2       1 RES1   0.0000
    23 N23     10.6080   2.2991   5.8310   N.pl3     1 RES1   0.0000
    24 N24     11.5762   4.3930   6.3007   N.2       1 RES1   0.0000
    25 C25     11.9637   5.6161   5.9530   C.2       1 RES1   0.0000
    26 N26     11.7044   6.0981   4.7363   N.2       1 RES1   0.0000
    27 C27     11.0676   5.3075   3.8362   C.2       1 RES1   0.0000
    28 C28     10.6294   8.0759   2.5697   C.3       1 RES1   0.0000
    29 O29      9.6511   8.8656   1.8425   O.3       1 RES1   0.0000
    30 C30     11.9305   8.8718   2.6252   C.3       1 RES1   0.0000
    31 O31     11.8166  10.1958   2.1335   O.3       1 RES1   0.0000
@<TRIPOS>BOND
     1     1     2    1
     2     2     3    1
     3     2     4    1
     4     2     5    1
     5     5     6    1
     6     5     7    1
     7     7     8    2
     8     7     9   am
     9     9    10    1
    10    10    11    2
    11    10    12    2
    12    10    13    1
    13    13    14    1
    14    15    14    1
    15    15    16    1
    16    16    17    1
    17    17    18    1
    18    18    19    1
    19    19    20    2
    20    20    21    1
    21    21    22    2
    22    22    23    1
    23    22    24    1
    24    24    25    2
    25    25    26    1
    26    26    27    2
    27    17    28    1
    28    28    29    1
    29    28    30    1
    30    30    31    1
    31    30    15    1
    32    27    18    1
    33    27    21    1
@<TRIPOS>SUBSTRUCTURE
     1 RES1        1 GROUP             0 ****  ****    0  
@<TRIPOS>MOLECULE
ligand_27
    31    33     1     0     0
SMALL
NO_CHARGES
****
Generated from the CSD

@<TRIPOS>ATOM
     1 C1      14.7571   8.5860   9.1134   C.3       1 RES1   0.0000
     2 C2      14.5715   9.0538   7.6637   C.3       1 RES1   0.0000
     3 C3      13.8688  10.4069   7.7159   C.3       1 RES1   0.0000
     4 C4      13.7480   8.0099   6.9693   C.3       1 RES1   0.0000
     5 C5      15.9426   9.1315   6.9299   C.3       1 RES1   0.0000
     6 O6      16.6106   7.8271   6.8808   O.3       1 RES1   0.0000
     7 C7      15.9421   9.6780   5.4755   C.2       1 RES1   0.0000
     8 O8      15.4746  10.7903   5.2074   O.2       1 RES1   0.0000
     9 N9      16.3873   8.8115   4.5893   N.am      1 RES1   0.0000
    10 S10     16.3762   9.0749   2.9808   S.o2      1 RES1   0.0000
    11 O11     17.2667  10.2017   2.6340   O.2       1 RES1   0.0000
    12 O12     14.9821   9.2471   2.5522   O.2       1 RES1   0.0000
    13 O13     16.9223   7.9642   2.2147   O.3       1 RES1   0.0000
    14 C14     18.3711   7.7582   2.3387   C.3       1 RES1   0.0000
    15 C15     18.8384   6.5369   1.5030   C.3       1 RES1   0.0000
    16 O16     18.2330   5.3651   2.1167   O.3       1 RES1   0.0000
    17 C17     17.7754   4.4559   1.1097   C.3       1 RES1   0.0000
    18 N18     16.4443   3.9602   1.5596   N.pl3     1 RES1   0.0000
    19 C19     16.1399   2.7452   2.0872   C.2       1 RES1   0.0000
    20 N20     14.8214   2.6748   2.3758   N.2       1 RES1   0.0000
    21 C21     14.2972   3.8675   2.0383   C.2       1 RES1   0.0000
    22 C22     13.0168   4.4197   2.1072   C.2       1 RES1   0.0000
    23 N23     11.9851   3.6980   2.5910   N.pl3     1 RES1   0.0000
    24 N24     12.8399   5.6693   1.6288   N.2       1 RES1   0.0000
    25 C25     13.8360   6.4184   1.1665   C.2       1 RES1   0.0000
    26 N26     15.0782   5.9377   1.0910   N.2       1 RES1   0.0000
    27 C27     15.3248   4.6774   1.5287   C.2       1 RES1   0.0000
    28 C28     17.8186   5.1741  -0.2021   C.3       1 RES1   0.0000
    29 O29     18.7312   4.5149  -1.1198   O.3       1 RES1   0.0000
    30 C30     18.3596   6.5738   0.0765   C.3       1 RES1   0.0000
    31 O31     19.4690   6.9328  -0.7285   O.3       1 RES1   0.0000
@<TRIPOS>BOND
     1     1     2    1
     2     2     3    1
     3     2     4    1
     4     2     5    1
     5     5     6    1
     6     5     7    1
     7     7     8    2
     8     7     9   am
     9     9    10    1
    10    10    11    2
    11    10    12    2
    12    10    13    1
    13    13    14    1
    14    15    14    1
    15    15    16    1
    16    16    17    1
    17    17    18    1
    18    18    19    1
    19    19    20    2
    20    20    21    1
    21    21    22    2
    22    22    23    1
    23    22    24    1
    24    24    25    2
    25    25    26    1
    26    26    27    2
    27    17    28    1
    28    28    29    1
    29    28    30    1
    30    30    31    1
    31    30    15    1
    32    27    18    1
    33    27    21    1
@<TRIPOS>SUBSTRUCTURE
     1 RES1        1 GROUP             0 ****  ****    0  
@<TRIPOS>MOLECULE
ligand_28
    31    33     1     0     0
SMALL
NO_CHARGES
****
Generated from the CSD

@<TRIPOS>ATOM
     1 C1      14.6954   8.6743   9.0851   C.3       1 RES1   0.0000
     2 C2      14.5295   9.1306   7.6294   C.3       1 RES1   0.0000
     3 C3      13.8415  10.4918   7.6621   C.3       1 RES1   0.0000
     4 C4      13.7013   8.0895   6.9363   C.3       1 RES1   0.0000
     5 C5      15.9086   9.1862   6.9088   C.3       1 RES1   0.0000
     6 O6      16.5625   7.8741   6.8785   O.3       1 RES1   0.0000
     7 C7      15.9288   9.7191   5.4495   C.2       1 RES1   0.0000
     8 O8      15.4765  10.8339   5.1665   O.2       1 RES1   0.0000
     9 N9      16.3731   8.8396   4.5759   N.am      1 RES1   0.0000
    10 S10     16.3809   9.0880   2.9650   S.o2      1 RES1   0.0000
    11 O11     17.2874  10.2016   2.6167   O.2       1 RES1   0.0000
    12 O12     14.9932   9.2715   2.5208   O.2       1 RES1   0.0000
    13 O13     16.9223   7.9642   2.2147   O.3       1 RES1   0.0000
    14 C14     16.0801   6.7617   2.1752   C.3       1 RES1   0.0000
    15 C15     16.7544   5.6304   1.3543   C.3       1 RES1   0.0000
    16 O16     16.8116   6.1009  -0.0211   O.3       1 RES1   0.0000
    17 C17     18.0631   5.7434  -0.6179   C.3       1 RES1   0.0000
    18 N18     18.5117   6.9276  -1.4031   N.pl3     1 RES1   0.0000
    19 C19     18.4857   7.0944  -2.7517   C.2       1 RES1   0.0000
    20 N20     18.9750   8.3095  -3.0848   N.2       1 RES1   0.0000
    21 C21     19.2970   8.9166  -1.9276   C.2       1 RES1   0.0000
    22 C22     19.8218  10.1684  -1.6013   C.2       1 RES1   0.0000
    23 N23     20.1260  11.0568  -2.5696   N.pl3     1 RES1   0.0000
    24 N24     20.0604  10.4350  -0.2998   N.2       1 RES1   0.0000
    25 C25     19.7523   9.5943   0.6827   C.2       1 RES1   0.0000
    26 N26     19.2393   8.3909   0.4205   N.2       1 RES1   0.0000
    27 C27     18.9986   8.0439  -0.8688   C.2       1 RES1   0.0000
    28 C28     18.9704   5.2782   0.4771   C.3       1 RES1   0.0000
    29 O29     19.3598   3.8944   0.2694   O.3       1 RES1   0.0000
    30 C30     18.1724   5.3535   1.7759   C.3       1 RES1   0.0000
    31 O31     18.1612   4.1449   2.5154   O.3       1 RES1   0.0000
@<TRIPOS>BOND
     1     1     2    1
     2     2     3    1
     3     2     4    1
     4     2     5    1
     5     5     6    1
     6     5     7    1
     7     7     8    2
     8     7     9   am
     9     9    10    1
    10    10    11    2
    11    10    12    2
    12    10    13    1
    13    13    14    1
    14    15    14    1
    15    15    16    1
    16    16    17    1
    17    17    18    1
    18    18    19    1
    19    19    20    2
    20    20    21    1
    21    21    22    2
    22    22    23    1
    23    22    24    1
    24    24    25    2
    25    25    26    1
    26    26    27    2
    27    17    28    1
    28    28    29    1
    29    28    30    1
    30    30    31    1
    31    30    15    1
    32    27    18    1
    33    27    21    1
@<TRIPOS>SUBSTRUCTURE
     1 RES1        1 GROUP             0 ****  ****    0  
@<TRIPOS>MOLECULE
ligand_29
    31    33     1     0     0
SMALL
NO_CHARGES
****
Generated from the CSD

@<TRIPOS>ATOM
     1 C1      14.8312   9.0170   9.2911   C.3       1 RES1   0.0000
     2 C2      14.6335   9.3068   7.7972   C.3       1 RES1   0.0000
     3 C3      13.8501  10.6117   7.6936   C.3       1 RES1   0.0000
     4 C4      13.8820   8.1432   7.2215   C.3       1 RES1   0.0000
     5 C5      16.0054   9.3852   7.0649   C.3       1 RES1   0.0000
     6 O6      16.7261   8.1094   7.1170   O.3       1 RES1   0.0000
     7 C7      15.9928   9.8202   5.5733   C.2       1 RES1   0.0000
     8 O8      16.1830   9.0042   4.6647   O.2       1 RES1   0.0000
     9 N9      15.8619  11.1199   5.4069   N.am      1 RES1   0.0000
    10 S10     15.9320  11.8585   3.9556   S.o2      1 RES1   0.0000
    11 O11     15.7140  13.3123   4.1028   O.2       1 RES1   0.0000
    12 O12     14.9862  11.1898   3.0526   O.2       1 RES1   0.0000
    13 O13     17.2452  11.7748   3.3332   O.3       1 RES1   0.0000
    14 C14     18.3182  12.5134   4.0116   C.3       1 RES1   0.0000
    15 C15     19.3918  12.9985   3.0015   C.3       1 RES1   0.0000
    16 O16     20.0900  11.8615   2.4432   O.3       1 RES1   0.0000
    17 C17     20.0029  11.8801   1.0443   C.3       1 RES1   0.0000
    18 N18     19.9181  10.4758   0.5538   N.pl3     1 RES1   0.0000
    19 C19     20.8732   9.7580  -0.0943   C.2       1 RES1   0.0000
    20 N20     20.4200   8.5155  -0.3724   N.2       1 RES1   0.0000
    21 C21     19.1700   8.4505   0.1222   C.2       1 RES1   0.0000
    22 C22     18.1961   7.4514   0.1712   C.2       1 RES1   0.0000
    23 N23     18.4316   6.2386  -0.3701   N.pl3     1 RES1   0.0000
    24 N24     17.0043   7.7560   0.7267   N.2       1 RES1   0.0000
    25 C25     16.7442   8.9315   1.2902   C.2       1 RES1   0.0000
    26 N26     17.6472   9.9135   1.2771   N.2       1 RES1   0.0000
    27 C27     18.8588   9.6870   0.7101   C.2       1 RES1   0.0000
    28 C28     18.7764  12.7220   0.7164   C.3       1 RES1   0.0000
    29 O29     18.9216  13.2616  -0.6243   O.3       1 RES1   0.0000
    30 C30     18.8460  13.7749   1.8058   C.3       1 RES1   0.0000
    31 O31     19.7678  14.7904   1.4499   O.3       1 RES1   0.0000
@<TRIPOS>BOND
     1     1     2    1
     2     2     3    1
     3     2     4    1
     4     2     5    1
     5     5     6    1
     6     5     7    1
     7     7     8    2
     8     7     9   am
     9     9    10    1
    10    10    11    2
    11    10    12    2
    12    10    13    1
    13    13    14    1
    14    15    14    1
    15    15    16    1
    16    16    17    1
    17    17    18    1
    18    18    19    1
    19    19    20    2
    20    20    21    1
    21    21    22    2
    22    22    23    1
    23    22    24    1
    24    24    25    2
    25    25    26    1
    26    26    27    2
    27    17    28    1
    28    28    29    1
    29    28    30    1
    30    30    31    1
    31    30    15    1
    32    27    18    1
    33    27    21    1
@<TRIPOS>SUBSTRUCTURE
     1 RES1        1 GROUP             0 ****  ****    0  
@<TRIPOS>MOLECULE
ligand_30
    31    33     1     0     0
SMALL
NO_CHARGES
****
Generated from the CSD

@<TRIPOS>ATOM
     1 C1      14.7067   8.7173   9.0978   C.3       1 RES1   0.0000
     2 C2      14.5283   9.1071   7.6243   C.3       1 RES1   0.0000
     3 C3      13.7864  10.4399   7.6000   C.3       1 RES1   0.0000
     4 C4      13.7449   8.0064   6.9724   C.3       1 RES1   0.0000
     5 C5      15.9068   9.1886   6.9050   C.3       1 RES1   0.0000
     6 O6      16.5873   7.8900   6.8797   O.3       1 RES1   0.0000
     7 C7      15.9178   9.7169   5.4439   C.2       1 RES1   0.0000
     8 O8      16.0887   8.9544   4.4864   O.2       1 RES1   0.0000
     9 N9      15.8282  11.0281   5.3595   N.am      1 RES1   0.0000
    10 S10     15.9309  11.8542   3.9581   S.o2      1 RES1   0.0000
    11 O11     17.1165  11.4238   3.1885   O.2       1 RES1   0.0000
    12 O12     15.8938  13.2897   4.2662   O.2       1 RES1   0.0000
    13 O13     14.8238  11.5851   3.0521   O.3       1 RES1   0.0000
    14 C14     13.5242  12.1378   3.4551   C.3       1 RES1   0.0000
    15 C15     12.3553  11.2536   2.9450   C.3       1 RES1   0.0000
    16 O16     12.2812  11.3223   1.5021   O.3       1 RES1   0.0000
    17 C17     12.3581  10.0353   0.9524   C.3       1 RES1   0.0000
    18 N18     13.0999  10.1120  -0.3375   N.pl3     1 RES1   0.0000
    19 C19     12.6015   9.9924  -1.5964   C.2       1 RES1   0.0000
    20 N20     13.5903  10.1253  -2.5082   N.2       1 RES1   0.0000
    21 C21     14.7196  10.3463  -1.8104   C.2       1 RES1   0.0000
    22 C22     16.0501  10.5772  -2.1646   C.2       1 RES1   0.0000
    23 N23     16.4194  10.5991  -3.4617   N.pl3     1 RES1   0.0000
    24 N24     16.9530  10.7238  -1.1721   N.2       1 RES1   0.0000
    25 C25     16.6230  10.7313   0.1155   C.2       1 RES1   0.0000
    26 N26     15.3628  10.5252   0.5020   N.2       1 RES1   0.0000
    27 C27     14.4055  10.3424  -0.4419   C.2       1 RES1   0.0000
    28 C28     13.0429   9.1745   2.0062   C.3       1 RES1   0.0000
    29 O29     12.6685   7.7870   1.7955   O.3       1 RES1   0.0000
    30 C30     12.4768   9.7696   3.2813   C.3       1 RES1   0.0000
    31 O31     11.1867   9.2433   3.5389   O.3       1 RES1   0.0000
@<TRIPOS>BOND
     1     1     2    1
     2     2     3    1
     3     2     4    1
     4     2     5    1
     5     5     6    1
     6     5     7    1
     7     7     8    2
     8     7     9   am
     9     9    10    1
    10    10    11    2
    11    10    12    2
    12    10    13    1
    13    13    14    1
    14    15    14    1
    15    15    16    1
    16    16    17    1
    17    17    18    1
    18    18    19    1
    19    19    20    2
    20    20    21    1
    21    21    22    2
    22    22    23    1
    23    22    24    1
    24    24    25    2
    25    25    26    1
    26    26    27    2
    27    17    28    1
    28    28    29    1
    29    28    30    1
    30    30    31    1
    31    30    15    1
    32    27    18    1
    33    27    21    1
@<TRIPOS>SUBSTRUCTURE
     1 RES1        1 GROUP             0 ****  ****    0  
@<TRIPOS>MOLECULE
ligand_31
    31    33     1     0     0
SMALL
NO_CHARGES
****
Generated from the CSD

@<TRIPOS>ATOM
     1 C1      14.5885   8.5386   8.9632   C.3       1 RES1   0.0000
     2 C2      14.4961   8.9422   7.4856   C.3       1 RES1   0.0000
     3 C3      13.6584  10.2155   7.4205   C.3       1 RES1   0.0000
     4 C4      13.8525   7.7984   6.7591   C.3       1 RES1   0.0000
     5 C5      15.9161   9.1412   6.8788   C.3       1 RES1   0.0000
     6 O6      16.6940   7.8983   6.8898   O.3       1 RES1   0.0000
     7 C7      16.0003   9.6973   5.4305   C.2       1 RES1   0.0000
     8 O8      16.3032   8.9686   4.4792   O.2       1 RES1   0.0000
     9 N9      15.8176  10.9994   5.3570   N.am      1 RES1   0.0000
    10 S10     15.9208  11.8513   3.9712   S.o2      1 RES1   0.0000
    11 O11     17.1172  11.4489   3.2033   O.2       1 RES1   0.0000
    12 O12     15.8640  13.2806   4.3042   O.2       1 RES1   0.0000
    13 O13     14.8238  11.5851   3.0521   O.3       1 RES1   0.0000
    14 C14     14.8183  10.2508   2.4386   C.3       1 RES1   0.0000
    15 C15     14.1500  10.2792   1.0383   C.3       1 RES1   0.0000
    16 O16     12.7406  10.5749   1.1729   O.3       1 RES1   0.0000
    17 C17     12.4074  11.6998   0.4059   C.3       1 RES1   0.0000
    18 N18     11.3520  12.4693   1.1229   N.pl3     1 RES1   0.0000
    19 C19     10.0359  12.5809   0.8023   C.2       1 RES1   0.0000
    20 N20      9.3980  13.3644   1.7000   N.2       1 RES1   0.0000
    21 C21     10.3246  13.7351   2.6028   C.2       1 RES1   0.0000
    22 C22     10.2945  14.5139   3.7611   C.2       1 RES1   0.0000
    23 N23      9.1445  15.0873   4.1708   N.pl3     1 RES1   0.0000
    24 N24     11.4555  14.7135   4.4200   N.2       1 RES1   0.0000
    25 C25     12.6025  14.1465   4.0597   C.2       1 RES1   0.0000
    26 N26     12.6782  13.3859   2.9661   N.2       1 RES1   0.0000
    27 C27     11.5548  13.1645   2.2384   C.2       1 RES1   0.0000
    28 C28     13.7074  12.4701   0.2131   C.3       1 RES1   0.0000
    29 O29     13.5967  13.2867  -0.9829   O.3       1 RES1   0.0000
    30 C30     14.7030  11.3333   0.0827   C.3       1 RES1   0.0000
    31 O31     14.6904  10.8179  -1.2371   O.3       1 RES1   0.0000
@<TRIPOS>BOND
     1     1     2    1
     2     2     3    1
     3     2     4    1
     4     2     5    1
     5     5     6    1
     6     5     7    1
     7     7     8    2
     8     7     9   am
     9     9    10    1
    10    10    11    2
    11    10    12    2
    12    10    13    1
    13    13    14    1
    14    15    14    1
    15    15    16    1
    16    16    17    1
    17    17    18    1
    18    18    19    1
    19    19    20    2
    20    20    21    1
    21    21    22    2
    22    22    23    1
    23    22    24    1
    24    24    25    2
    25    25    26    1
    26    26    27    2
    27    17    28    1
    28    28    29    1
    29    28    30    1
    30    30    31    1
    31    30    15    1
    32    27    18    1
    33    27    21    1
@<TRIPOS>SUBSTRUCTURE
     1 RES1        1 GROUP             0 ****  ****    0  
@<TRIPOS>MOLECULE
ligand_32
    31    33     1     0     0
SMALL
NO_CHARGES
****
Generated from the CSD

@<TRIPOS>ATOM
     1 C1      14.6907   8.6875   9.0831   C.3       1 RES1   0.0000
     2 C2      14.5256   9.1407   7.6263   C.3       1 RES1   0.0000
     3 C3      13.8385  10.5024   7.6557   C.3       1 RES1   0.0000
     4 C4      13.6970   8.0986   6.9352   C.3       1 RES1   0.0000
     5 C5      15.9050   9.1939   6.9060   C.3       1 RES1   0.0000
     6 O6      16.5577   7.8812   6.8780   O.3       1 RES1   0.0000
     7 C7      15.9262   9.7244   5.4458   C.2       1 RES1   0.0000
     8 O8      15.4736  10.8385   5.1606   O.2       1 RES1   0.0000
     9 N9      16.3715   8.8435   4.5740   N.am      1 RES1   0.0000
    10 S10     16.3797   9.0889   2.9626   S.o2      1 RES1   0.0000
    11 O11     15.0574   9.5620   2.5037   O.2       1 RES1   0.0000
    12 O12     16.8448   7.8572   2.3118   O.2       1 RES1   0.0000
    13 O13     17.2817  10.1543   2.5501   O.3       1 RES1   0.0000
    14 C14     18.7147   9.8516   2.6592   C.3       1 RES1   0.0000
    15 C15     19.5404  11.1357   2.9379   C.3       1 RES1   0.0000
    16 O16     19.0775  11.6506   4.2173   O.3       1 RES1   0.0000
    17 C17     20.1837  12.1245   4.9930   C.3       1 RES1   0.0000
    18 N18     19.9477  11.6672   6.3913   N.pl3     1 RES1   0.0000
    19 C19     19.5308  12.4064   7.4530   C.2       1 RES1   0.0000
    20 N20     19.4305  11.6310   8.5554   N.2       1 RES1   0.0000
    21 C21     19.7745  10.3870   8.1742   C.2       1 RES1   0.0000
    22 C22     19.8539   9.1575   8.8308   C.2       1 RES1   0.0000
    23 N23     19.5549   9.0613  10.1425   N.pl3     1 RES1   0.0000
    24 N24     20.2866   8.0906   8.1264   N.2       1 RES1   0.0000
    25 C25     20.5678   8.1422   6.8282   C.2       1 RES1   0.0000
    26 N26     20.4965   9.2924   6.1559   N.2       1 RES1   0.0000
    27 C27     20.0951  10.4127   6.8074   C.2       1 RES1   0.0000
    28 C28     21.4380  11.6479   4.3311   C.3       1 RES1   0.0000
    29 O29     22.2544  12.7716   3.9060   O.3       1 RES1   0.0000
    30 C30     21.0153  10.8744   3.0851   C.3       1 RES1   0.0000
    31 O31     21.6403  11.3174   1.8931   O.3       1 RES1   0.0000
@<TRIPOS>BOND
     1     1     2    1
     2     2     3    1
     3     2     4    1
     4     2     5    1
     5     5     6    1
     6     5     7    1
     7     7     8    2
     8     7     9   am
     9     9    10    1
    10    10    11    2
    11    10    12    2
    12    10    13    1
    13    13    14    1
    14    15    14    1
    15    15    16    1
    16    16    17    1
    17    17    18    1
    18    18    19    1
    19    19    20    2
    20    20    21    1
    21    21    22    2
    22    22    23    1
    23    22    24    1
    24    24    25    2
    25    25    26    1
    26    26    27    2
    27    17    28    1
    28    28    29    1
    29    28    30    1
    30    30    31    1
    31    30    15    1
    32    27    18    1
    33    27    21    1
@<TRIPOS>SUBSTRUCTURE
     1 RES1        1 GROUP             0 ****  ****    0  
@<TRIPOS>MOLECULE
ligand_33
    31    33     1     0     0
SMALL
NO_CHARGES
****
Generated from the CSD

@<TRIPOS>ATOM
     1 C1      14.9033   8.5427   9.1294   C.3       1 RES1   0.0000
     2 C2      14.6928   9.0375   7.6922   C.3       1 RES1   0.0000
     3 C3      14.0242  10.4057   7.7827   C.3       1 RES1   0.0000
     4 C4      13.8274   8.0244   7.0030   C.3       1 RES1   0.0000
     5 C5      16.0465   9.0945   6.9251   C.3       1 RES1   0.0000
     6 O6      16.6816   7.7757   6.8392   O.3       1 RES1   0.0000
     7 C7      16.0228   9.6638   5.4796   C.2       1 RES1   0.0000
     8 O8      15.5756  10.7909   5.2405   O.2       1 RES1   0.0000
     9 N9      16.4247   8.8012   4.5693   N.am      1 RES1   0.0000
    10 S10     16.3797   9.0902   2.9658   S.o2      1 RES1   0.0000
    11 O11     15.0489   9.5930   2.5670   O.2       1 RES1   0.0000
    12 O12     16.8041   7.8706   2.2662   O.2       1 RES1   0.0000
    13 O13     17.2817  10.1543   2.5501   O.3       1 RES1   0.0000
    14 C14     18.7147   9.8516   2.6592   C.3       1 RES1   0.0000
    15 C15     19.5339  10.6181   1.5870   C.3       1 RES1   0.0000
    16 O16     19.3382  12.0341   1.8571   O.3       1 RES1   0.0000
    17 C17     20.5673  12.7483   1.6856   C.3       1 RES1   0.0000
    18 N18     20.6538  13.7196   2.8121   N.pl3     1 RES1   0.0000
    19 C19     20.4481  15.0626   2.7750   C.2       1 RES1   0.0000
    20 N20     20.6150  15.5981   4.0046   N.2       1 RES1   0.0000
    21 C21     20.9140  14.5738   4.8247   C.2       1 RES1   0.0000
    22 C22     21.1770  14.4696   6.1918   C.2       1 RES1   0.0000
    23 N23     21.1703  15.5671   6.9759   N.pl3     1 RES1   0.0000
    24 N24     21.4867  13.2523   6.6858   N.2       1 RES1   0.0000
    25 C25     21.4805  12.1459   5.9491   C.2       1 RES1   0.0000
    26 N26     21.2249  12.1942   4.6406   N.2       1 RES1   0.0000
    27 C27     20.9325  13.3899   4.0700   C.2       1 RES1   0.0000
    28 C28     21.6666  11.7388   1.5808   C.3       1 RES1   0.0000
    29 O29     22.3314  11.8339   0.2929   O.3       1 RES1   0.0000
    30 C30     21.0145  10.3620   1.6740   C.3       1 RES1   0.0000
    31 O31     21.3525   9.4918   0.6081   O.3       1 RES1   0.0000
@<TRIPOS>BOND
     1     1     2    1
     2     2     3    1
     3     2     4    1
     4     2     5    1
     5     5     6    1
     6     5     7    1
     7     7     8    2
     8     7     9   am
     9     9    10    1
    10    10    11    2
    11    10    12    2
    12    10    13    1
    13    13    14    1
    14    15    14    1
    15    15    16    1
    16    16    17    1
    17    17    18    1
    18    18    19    1
    19    19    20    2
    20    20    21    1
    21    21    22    2
    22    22    23    1
    23    22    24    1
    24    24    25    2
    25    25    26    1
    26    26    27    2
    27    17    28    1
    28    28    29    1
    29    28    30    1
    30    30    31    1
    31    30    15    1
    32    27    18    1
    33    27    21    1
@<TRIPOS>SUBSTRUCTURE
     1 RES1        1 GROUP             0 ****  ****    0  
@<TRIPOS>MOLECULE
ligand_34
    31    33     1     0     0
SMALL
NO_CHARGES
****
Generated from the CSD

@<TRIPOS>ATOM
     1 C1      14.5740   8.8449   9.0617   C.3       1 RES1   0.0000
     2 C2      14.4813   9.3133   7.6034   C.3       1 RES1   0.0000
     3 C3      13.9243  10.7334   7.6233   C.3       1 RES1   0.0000
     4 C4      13.5728   8.3543   6.8927   C.3       1 RES1   0.0000
     5 C5      15.8738   9.2378   6.9108   C.3       1 RES1   0.0000
     6 O6      16.4005   7.8695   6.8907   O.3       1 RES1   0.0000
     7 C7      15.9741   9.7668   5.4534   C.2       1 RES1   0.0000
     8 O8      15.6348  10.9194   5.1636   O.2       1 RES1   0.0000
     9 N9      16.3513   8.8495   4.5871   N.am      1 RES1   0.0000
    10 S10     16.3743   9.0825   2.9740   S.o2      1 RES1   0.0000
    11 O11     16.9634   7.9131   2.2898   O.2       1 RES1   0.0000
    12 O12     17.0572  10.3541   2.7023   O.2       1 RES1   0.0000
    13 O13     15.0444   9.1811   2.3905   O.3       1 RES1   0.0000
    14 C14     14.2945  10.4001   2.7202   C.3       1 RES1   0.0000
    15 C15     13.3131  10.7814   1.5802   C.3       1 RES1   0.0000
    16 O16     12.3731   9.6774   1.4627   O.3       1 RES1   0.0000
    17 C17     11.0476  10.1730   1.2450   C.3       1 RES1   0.0000
    18 N18     10.1419   9.3478   2.0928   N.pl3     1 RES1   0.0000
    19 C19      9.2990   8.3577   1.6971   C.2       1 RES1   0.0000
    20 N20      8.6468   7.8416   2.7624   N.2       1 RES1   0.0000
    21 C21      9.0995   8.5076   3.8407   C.2       1 RES1   0.0000
    22 C22      8.8356   8.4325   5.2096   C.2       1 RES1   0.0000
    23 N23      7.9409   7.5428   5.6865   N.pl3     1 RES1   0.0000
    24 N24      9.4618   9.3080   6.0239   N.2       1 RES1   0.0000
    25 C25     10.3659  10.1822   5.5935   C.2       1 RES1   0.0000
    26 N26     10.6588  10.2837   4.2958   N.2       1 RES1   0.0000
    27 C27     10.0461   9.4533   3.4151   C.2       1 RES1   0.0000
    28 C28     11.0650  11.6450   1.5125   C.3       1 RES1   0.0000
    29 O29     10.7052  12.3893   0.3183   O.3       1 RES1   0.0000
    30 C30     12.4998  12.0114   1.8819   C.3       1 RES1   0.0000
    31 O31     13.0400  13.0704   1.1108   O.3       1 RES1   0.0000
@<TRIPOS>BOND
     1     1     2    1
     2     2     3    1
     3     2     4    1
     4     2     5    1
     5     5     6    1
     6     5     7    1
     7     7     8    2
     8     7     9   am
     9     9    10    1
    10    10    11    2
    11    10    12    2
    12    10    13    1
    13    13    14    1
    14    15    14    1
    15    15    16    1
    16    16    17    1
    17    17    18    1
    18    18    19    1
    19    19    20    2
    20    20    21    1
    21    21    22    2
    22    22    23    1
    23    22    24    1
    24    24    25    2
    25    25    26    1
    26    26    27    2
    27    17    28    1
    28    28    29    1
    29    28    30    1
    30    30    31    1
    31    30    15    1
    32    27    18    1
    33    27    21    1
@<TRIPOS>SUBSTRUCTURE
     1 RES1        1 GROUP             0 ****  ****    0  
@<TRIPOS>MOLECULE
ligand_35
    31    33     1     0     0
SMALL
NO_CHARGES
****
Generated from the CSD

@<TRIPOS>ATOM
     1 C1      14.6958   8.6849   9.0686   C.3       1 RES1   0.0000
     2 C2      14.5089   9.1017   7.6036   C.3       1 RES1   0.0000
     3 C3      13.8012  10.4532   7.6090   C.3       1 RES1   0.0000
     4 C4      13.6893   8.0314   6.9455   C.3       1 RES1   0.0000
     5 C5      15.8798   9.1590   6.8677   C.3       1 RES1   0.0000
     6 O6      16.5262   7.8440   6.8137   O.3       1 RES1   0.0000
     7 C7      15.8860   9.7097   5.4149   C.2       1 RES1   0.0000
     8 O8      16.0251   8.9580   4.4437   O.2       1 RES1   0.0000
     9 N9      15.8293  11.0238   5.3516   N.am      1 RES1   0.0000
    10 S10     15.9357  11.8688   3.9618   S.o2      1 RES1   0.0000
    11 O11     15.7828  13.3152   4.2217   O.2       1 RES1   0.0000
    12 O12     14.9629  11.3153   3.0110   O.2       1 RES1   0.0000
    13 O13     17.2452  11.7748   3.3332   O.3       1 RES1   0.0000
    14 C14     17.3943  12.4984   2.0639   C.3       1 RES1   0.0000
    15 C15     18.8285  12.3408   1.4926   C.3       1 RES1   0.0000
    16 O16     19.7136  13.0442   2.4082   O.3       1 RES1   0.0000
    17 C17     20.9214  12.3004   2.6032   C.3       1 RES1   0.0000
    18 N18     21.2354  12.3759   4.0577   N.pl3     1 RES1   0.0000
    19 C19     22.1603  13.1589   4.6733   C.2       1 RES1   0.0000
    20 N20     22.1437  12.9457   6.0078   N.2       1 RES1   0.0000
    21 C21     21.1849  12.0281   6.2313   C.2       1 RES1   0.0000
    22 C22     20.6775  11.4135   7.3775   C.2       1 RES1   0.0000
    23 N23     21.1803  11.7109   8.5933   N.pl3     1 RES1   0.0000
    24 N24     19.7126  10.4826   7.2222   N.2       1 RES1   0.0000
    25 C25     19.1771  10.1805   6.0438   C.2       1 RES1   0.0000
    26 N26     19.6219  10.7493   4.9218   N.2       1 RES1   0.0000
    27 C27     20.6107  11.6749   4.9995   C.2       1 RES1   0.0000
    28 C28     20.7097  10.9347   2.0297   C.3       1 RES1   0.0000
    29 O29     21.6438  10.6810   0.9468   O.3       1 RES1   0.0000
    30 C30     19.2982  10.9115   1.4497   C.3       1 RES1   0.0000
    31 O31     19.2383  10.4912   0.0979   O.3       1 RES1   0.0000
@<TRIPOS>BOND
     1     1     2    1
     2     2     3    1
     3     2     4    1
     4     2     5    1
     5     5     6    1
     6     5     7    1
     7     7     8    2
     8     7     9   am
     9     9    10    1
    10    10    11    2
    11    10    12    2
    12    10    13    1
    13    13    14    1
    14    15    14    1
    15    15    16    1
    16    16    17    1
    17    17    18    1
    18    18    19    1
    19    19    20    2
    20    20    21    1
    21    21    22    2
    22    22    23    1
    23    22    24    1
    24    24    25    2
    25    25    26    1
    26    26    27    2
    27    17    28    1
    28    28    29    1
    29    28    30    1
    30    30    31    1
    31    30    15    1
    32    27    18    1
    33    27    21    1
@<TRIPOS>SUBSTRUCTURE
     1 RES1        1 GROUP             0 ****  ****    0  
@<TRIPOS>MOLECULE
ligand_36
    31    33     1     0     0
SMALL
NO_CHARGES
****
Generated from the CSD

@<TRIPOS>ATOM
     1 C1      14.8270   8.7047   9.1345   C.3       1 RES1   0.0000
     2 C2      14.6248   9.0844   7.6615   C.3       1 RES1   0.0000
     3 C3      13.8592  10.4037   7.6399   C.3       1 RES1   0.0000
     4 C4      13.8537   7.9670   7.0236   C.3       1 RES1   0.0000
     5 C5      15.9934   9.1869   6.9260   C.3       1 RES1   0.0000
     6 O6      16.6963   7.9004   6.8982   O.3       1 RES1   0.0000
     7 C7      15.9783   9.7091   5.4628   C.2       1 RES1   0.0000
     8 O8      16.1516   8.9454   4.5065   O.2       1 RES1   0.0000
     9 N9      15.8648  11.0180   5.3739   N.am      1 RES1   0.0000
    10 S10     15.9369  11.8397   3.9681   S.o2      1 RES1   0.0000
    11 O11     15.7404  13.2853   4.2020   O.2       1 RES1   0.0000
    12 O12     14.9766  11.2385   3.0337   O.2       1 RES1   0.0000
    13 O13     17.2452  11.7748   3.3332   O.3       1 RES1   0.0000
    14 C14     18.3182  12.5134   4.0116   C.3       1 RES1   0.0000
    15 C15     19.6690  12.3544   3.2643   C.3       1 RES1   0.0000
    16 O16     20.0388  10.9523   3.3807   O.3       1 RES1   0.0000
    17 C17     20.5865  10.4776   2.1460   C.3       1 RES1   0.0000
    18 N18     20.0119   9.1214   1.9210   N.pl3     1 RES1   0.0000
    19 C19     18.9644   8.5407   2.5636   C.2       1 RES1   0.0000
    20 N20     18.7406   7.3013   2.0732   N.2       1 RES1   0.0000
    21 C21     19.6506   7.1105   1.1003   C.2       1 RES1   0.0000
    22 C22     19.9250   6.0626   0.2196   C.2       1 RES1   0.0000
    23 N23     19.1947   4.9292   0.2554   N.pl3     1 RES1   0.0000
    24 N24     20.9694   6.2019  -0.6240   N.2       1 RES1   0.0000
    25 C25     21.6964   7.3119  -0.7038   C.2       1 RES1   0.0000
    26 N26     21.4650   8.3436   0.1100   N.2       1 RES1   0.0000
    27 C27     20.4474   8.2626   1.0037   C.2       1 RES1   0.0000
    28 C28     20.3063  11.5099   1.0998   C.3       1 RES1   0.0000
    29 O29     21.5442  12.0357   0.5512   O.3       1 RES1   0.0000
    30 C30     19.5738  12.6556   1.7927   C.3       1 RES1   0.0000
    31 O31     20.1661  13.9261   1.5860   O.3       1 RES1   0.0000
@<TRIPOS>BOND
     1     1     2    1
     2     2     3    1
     3     2     4    1
     4     2     5    1
     5     5     6    1
     6     5     7    1
     7     7     8    2
     8     7     9   am
     9     9    10    1
    10    10    11    2
    11    10    12    2
    12    10    13    1
    13    13    14    1
    14    15    14    1
    15    15    16    1
    16    16    17    1
    17    17    18    1
    18    18    19    1
    19    19    20    2
    20    20    21    1
    21    21    22    2
    22    22    23    1
    23    22    24    1
    24    24    25    2
    25    25    26    1
    26    26    27    2
    27    17    28    1
    28    28    29    1
    29    28    30    1
    30    30    31    1
    31    30    15    1
    32    27    18    1
    33    27    21    1
@<TRIPOS>SUBSTRUCTURE
     1 RES1        1 GROUP             0 ****  ****    0  
@<TRIPOS>MOLECULE
ligand_37
    31    33     1     0     0
SMALL
NO_CHARGES
****
Generated from the CSD

@<TRIPOS>ATOM
     1 C1      14.7132   8.7286   9.1029   C.3       1 RES1   0.0000
     2 C2      14.5332   9.1143   7.6285   C.3       1 RES1   0.0000
     3 C3      13.7898  10.4461   7.6012   C.3       1 RES1   0.0000
     4 C4      13.7507   8.0109   6.9800   C.3       1 RES1   0.0000
     5 C5      15.9111   9.1954   6.9080   C.3       1 RES1   0.0000
     6 O6      16.5925   7.8973   6.8843   O.3       1 RES1   0.0000
     7 C7      15.9207   9.7215   5.4461   C.2       1 RES1   0.0000
     8 O8      16.0914   8.9574   4.4897   O.2       1 RES1   0.0000
     9 N9      15.8303  11.0324   5.3596   N.am      1 RES1   0.0000
    10 S10     15.9315  11.8563   3.9568   S.o2      1 RES1   0.0000
    11 O11     17.1167  11.4254   3.1871   O.2       1 RES1   0.0000
    12 O12     15.8937  13.2923   4.2627   O.2       1 RES1   0.0000
    13 O13     14.8238  11.5851   3.0521   O.3       1 RES1   0.0000
    14 C14     13.5242  12.1378   3.4551   C.3       1 RES1   0.0000
    15 C15     12.4200  11.7865   2.4228   C.3       1 RES1   0.0000
    16 O16     12.7682  12.4871   1.1964   O.3       1 RES1   0.0000
    17 C17     12.5228  11.6524   0.0592   C.3       1 RES1   0.0000
    18 N18     13.6793  11.8394  -0.8613   N.pl3     1 RES1   0.0000
    19 C19     14.8733  12.4310  -0.5934   C.2       1 RES1   0.0000
    20 N20     15.6677  12.4034  -1.6865   N.2       1 RES1   0.0000
    21 C21     14.9666  11.7721  -2.6463   C.2       1 RES1   0.0000
    22 C22     15.2341  11.4178  -3.9699   C.2       1 RES1   0.0000
    23 N23     16.4188  11.7276  -4.5355   N.pl3     1 RES1   0.0000
    24 N24     14.2560  10.8076  -4.6718   N.2       1 RES1   0.0000
    25 C25     13.0858  10.4660  -4.1419   C.2       1 RES1   0.0000
    26 N26     12.7887  10.7742  -2.8783   N.2       1 RES1   0.0000
    27 C27     13.7150  11.4134  -2.1206   C.2       1 RES1   0.0000
    28 C28     12.2788  10.2641   0.5609   C.3       1 RES1   0.0000
    29 O29     10.9437   9.8159   0.2056   O.3       1 RES1   0.0000
    30 C30     12.3672  10.3211   2.0835   C.3       1 RES1   0.0000
    31 O31     11.2387   9.7780   2.7463   O.3       1 RES1   0.0000
@<TRIPOS>BOND
     1     1     2    1
     2     2     3    1
     3     2     4    1
     4     2     5    1
     5     5     6    1
     6     5     7    1
     7     7     8    2
     8     7     9   am
     9     9    10    1
    10    10    11    2
    11    10    12    2
    12    10    13    1
    13    13    14    1
    14    15    14    1
    15    15    16    1
    16    16    17    1
    17    17    18    1
    18    18    19    1
    19    19    20    2
    20    20    21    1
    21    21    22    2
    22    22    23    1
    23    22    24    1
    24    24    25    2
    25    25    26    1
    26    26    27    2
    27    17    28    1
    28    28    29    1
    29    28    30    1
    30    30    31    1
    31    30    15    1
    32    27    18    1
    33    27    21    1
@<TRIPOS>SUBSTRUCTURE
     1 RES1        1 GROUP             0 ****  ****    0  
@<TRIPOS>MOLECULE
ligand_38
    31    33     1     0     0
SMALL
NO_CHARGES
****
Generated from the CSD

@<TRIPOS>ATOM
     1 C1      14.6307   8.7617   9.0544   C.3       1 RES1   0.0000
     2 C2      14.3750   9.2259   7.6143   C.3       1 RES1   0.0000
     3 C3      13.8291  10.6483   7.6922   C.3       1 RES1   0.0000
     4 C4      13.3880   8.2684   7.0148   C.3       1 RES1   0.0000
     5 C5      15.6796   9.1424   6.7685   C.3       1 RES1   0.0000
     6 O6      16.1652   7.7642   6.6480   O.3       1 RES1   0.0000
     7 C7      15.6312   9.7172   5.3258   C.2       1 RES1   0.0000
     8 O8      15.5959   8.9737   4.3391   O.2       1 RES1   0.0000
     9 N9      15.7299  11.0296   5.2803   N.am      1 RES1   0.0000
    10 S10     15.9080  11.8767   3.8992   S.o2      1 RES1   0.0000
    11 O11     15.7530  13.3236   4.1551   O.2       1 RES1   0.0000
    12 O12     14.9776  11.3322   2.9019   O.2       1 RES1   0.0000
    13 O13     17.2452  11.7748   3.3332   O.3       1 RES1   0.0000
    14 C14     17.5953  10.4684   2.7610   C.3       1 RES1   0.0000
    15 C15     19.0114  10.4942   2.1267   C.3       1 RES1   0.0000
    16 O16     18.9347  11.3996   0.9906   O.3       1 RES1   0.0000
    17 C17     20.1145  12.2075   0.9172   C.3       1 RES1   0.0000
    18 N18     19.6629  13.5878   0.5841   N.pl3     1 RES1   0.0000
    19 C19     18.3991  14.0861   0.6250   C.2       1 RES1   0.0000
    20 N20     18.3938  15.3859   0.2547   N.2       1 RES1   0.0000
    21 C21     19.6740  15.7089  -0.0062   C.2       1 RES1   0.0000
    22 C22     20.3170  16.8813  -0.4077   C.2       1 RES1   0.0000
    23 N23     19.6104  18.0094  -0.6257   N.pl3     1 RES1   0.0000
    24 N24     21.6492  16.8322  -0.6183   N.2       1 RES1   0.0000
    25 C25     22.3814  15.7461  -0.3919   C.2       1 RES1   0.0000
    26 N26     21.8130  14.6053   0.0025   N.2       1 RES1   0.0000
    27 C27     20.4722  14.5737   0.2076   C.2       1 RES1   0.0000
    28 C28     20.8620  12.0349   2.2018   C.3       1 RES1   0.0000
    29 O29     22.1754  11.4638   1.9601   O.3       1 RES1   0.0000
    30 C30     20.0661  11.0452   3.0482   C.3       1 RES1   0.0000
    31 O31     20.8279   9.9465   3.5175   O.3       1 RES1   0.0000
@<TRIPOS>BOND
     1     1     2    1
     2     2     3    1
     3     2     4    1
     4     2     5    1
     5     5     6    1
     6     5     7    1
     7     7     8    2
     8     7     9   am
     9     9    10    1
    10    10    11    2
    11    10    12    2
    12    10    13    1
    13    13    14    1
    14    15    14    1
    15    15    16    1
    16    16    17    1
    17    17    18    1
    18    18    19    1
    19    19    20    2
    20    20    21    1
    21    21    22    2
    22    22    23    1
    23    22    24    1
    24    24    25    2
    25    25    26    1
    26    26    27    2
    27    17    28    1
    28    28    29    1
    29    28    30    1
    30    30    31    1
    31    30    15    1
    32    27    18    1
    33    27    21    1
@<TRIPOS>SUBSTRUCTURE
     1 RES1        1 GROUP             0 ****  ****    0  
@<TRIPOS>MOLECULE
ligand_39
    31    33     1     0     0
SMALL
NO_CHARGES
****
Generated from the CSD

@<TRIPOS>ATOM
     1 C1      14.8347   8.4398   8.8701   C.3       1 RES1   0.0000
     2 C2      14.7469   8.8413   7.3917   C.3       1 RES1   0.0000
     3 C3      13.8008  10.0350   7.3069   C.3       1 RES1   0.0000
     4 C4      14.2284   7.6484   6.6444   C.3       1 RES1   0.0000
     5 C5      16.1595   9.1696   6.8250   C.3       1 RES1   0.0000
     6 O6      17.0447   8.0009   6.8534   O.3       1 RES1   0.0000
     7 C7      16.2332   9.7393   5.3813   C.2       1 RES1   0.0000
     8 O8      16.6257   9.0459   4.4365   O.2       1 RES1   0.0000
     9 N9      15.9369  11.0202   5.3071   N.am      1 RES1   0.0000
    10 S10     15.9564  11.8750   3.9193   S.o2      1 RES1   0.0000
    11 O11     17.1242  11.4996   3.0957   O.2       1 RES1   0.0000
    12 O12     15.8837  13.3025   4.2569   O.2       1 RES1   0.0000
    13 O13     14.8238  11.5851   3.0521   O.3       1 RES1   0.0000
    14 C14     14.8183  10.2508   2.4386   C.3       1 RES1   0.0000
    15 C15     13.5972  10.0700   1.4982   C.3       1 RES1   0.0000
    16 O16     12.4171  10.1035   2.3483   O.3       1 RES1   0.0000
    17 C17     11.3697  10.8481   1.7171   C.3       1 RES1   0.0000
    18 N18     10.7491  11.6897   2.7785   N.pl3     1 RES1   0.0000
    19 C19     11.2280  11.9524   4.0231   C.2       1 RES1   0.0000
    20 N20     10.3788  12.7636   4.6921   N.2       1 RES1   0.0000
    21 C21      9.3628  13.0240   3.8489   C.2       1 RES1   0.0000
    22 C22      8.2029  13.7961   3.9355   C.2       1 RES1   0.0000
    23 N23      7.9146  14.4742   5.0652   N.pl3     1 RES1   0.0000
    24 N24      7.3631  13.7974   2.8788   N.2       1 RES1   0.0000
    25 C25      7.6247  13.1608   1.7416   C.2       1 RES1   0.0000
    26 N26      8.7255  12.4190   1.6081   N.2       1 RES1   0.0000
    27 C27      9.6023  12.3491   2.6411   C.2       1 RES1   0.0000
    28 C28     11.9665  11.5683   0.5493   C.3       1 RES1   0.0000
    29 O29     11.3505  11.1344  -0.6924   O.3       1 RES1   0.0000
    30 C30     13.4435  11.1870   0.5012   C.3       1 RES1   0.0000
    31 O31     13.8686  10.6886  -0.7552   O.3       1 RES1   0.0000
@<TRIPOS>BOND
     1     1     2    1
     2     2     3    1
     3     2     4    1
     4     2     5    1
     5     5     6    1
     6     5     7    1
     7     7     8    2
     8     7     9   am
     9     9    10    1
    10    10    11    2
    11    10    12    2
    12    10    13    1
    13    13    14    1
    14    15    14    1
    15    15    16    1
    16    16    17    1
    17    17    18    1
    18    18    19    1
    19    19    20    2
    20    20    21    1
    21    21    22    2
    22    22    23    1
    23    22    24    1
    24    24    25    2
    25    25    26    1
    26    26    27    2
    27    17    28    1
    28    28    29    1
    29    28    30    1
    30    30    31    1
    31    30    15    1
    32    27    18    1
    33    27    21    1
@<TRIPOS>SUBSTRUCTURE
     1 RES1        1 GROUP             0 ****  ****    0  
@<TRIPOS>MOLECULE
ligand_40
    31    33     1     0     0
SMALL
NO_CHARGES
****
Generated from the CSD

@<TRIPOS>ATOM
     1 C1      14.6833   8.2606   9.0378   C.3       1 RES1   0.0000
     2 C2      14.5101   8.7989   7.6112   C.3       1 RES1   0.0000
     3 C3      13.7841  10.1360   7.7217   C.3       1 RES1   0.0000
     4 C4      13.7140   7.7787   6.8523   C.3       1 RES1   0.0000
     5 C5      15.8898   8.9360   6.9027   C.3       1 RES1   0.0000
     6 O6      16.5802   7.6467   6.7970   O.3       1 RES1   0.0000
     7 C7      15.9006   9.5562   5.4782   C.2       1 RES1   0.0000
     8 O8      15.4184  10.6732   5.2603   O.2       1 RES1   0.0000
     9 N9      16.3724   8.7435   4.5556   N.am      1 RES1   0.0000
    10 S10     16.3797   9.0889   2.9627   S.o2      1 RES1   0.0000
    11 O11     17.0060   7.9913   2.1973   O.2       1 RES1   0.0000
    12 O12     17.0165  10.3995   2.7788   O.2       1 RES1   0.0000
    13 O13     15.0444   9.1811   2.3905   O.3       1 RES1   0.0000
    14 C14     14.2851   7.9249   2.3432   C.3       1 RES1   0.0000
    15 C15     13.3022   7.9075   1.1424   C.3       1 RES1   0.0000
    16 O16     14.0408   7.9961  -0.0980   O.3       1 RES1   0.0000
    17 C17     13.7228   6.9126  -0.9283   C.3       1 RES1   0.0000
    18 N18     14.9423   6.5226  -1.6904   N.pl3     1 RES1   0.0000
    19 C19     15.1921   6.6993  -3.0146   C.2       1 RES1   0.0000
    20 N20     16.4138   6.2158  -3.3314   N.2       1 RES1   0.0000
    21 C21     16.9413   5.7443  -2.1865   C.2       1 RES1   0.0000
    22 C22     18.1585   5.1483  -1.8515   C.2       1 RES1   0.0000
    23 N23     19.0973   4.9316  -2.7954   N.pl3     1 RES1   0.0000
    24 N24     18.3392   4.7531  -0.5737   N.2       1 RES1   0.0000
    25 C25     17.4471   4.9704   0.3875   C.2       1 RES1   0.0000
    26 N26     16.2741   5.5459   0.1176   N.2       1 RES1   0.0000
    27 C27     16.0123   5.9442  -1.1527   C.2       1 RES1   0.0000
    28 C28     13.1993   5.8211  -0.0035   C.3       1 RES1   0.0000
    29 O29     12.3448   4.9284  -0.7668   O.3       1 RES1   0.0000
    30 C30     12.4509   6.6458   1.0261   C.3       1 RES1   0.0000
    31 O31     11.1669   6.9937   0.5382   O.3       1 RES1   0.0000
@<TRIPOS>BOND
     1     1     2    1
     2     2     3    1
     3     2     4    1
     4     2     5    1
     5     5     6    1
     6     5     7    1
     7     7     8    2
     8     7     9   am
     9     9    10    1
    10    10    11    2
    11    10    12    2
    12    10    13    1
    13    13    14    1
    14    15    14    1
    15    15    16    1
    16    16    17    1
    17    17    18    1
    18    18    19    1
    19    19    20    2
    20    20    21    1
    21    21    22    2
    22    22    23    1
    23    22    24    1
    24    24    25    2
    25    25    26    1
    26    26    27    2
    27    17    28    1
    28    28    29    1
    29    28    30    1
    30    30    31    1
    31    30    15    1
    32    27    18    1
    33    27    21    1
@<TRIPOS>SUBSTRUCTURE
     1 RES1        1 GROUP             0 ****  ****    0  
@<TRIPOS>MOLECULE
ligand_41
    31    33     1     0     0
SMALL
NO_CHARGES
****
Generated from the CSD

@<TRIPOS>ATOM
     1 C1      14.6928   8.6857   9.0833   C.3       1 RES1   0.0000
     2 C2      14.5269   9.1386   7.6265   C.3       1 RES1   0.0000
     3 C3      13.8373  10.4991   7.6560   C.3       1 RES1   0.0000
     4 C4      13.7001   8.0950   6.9354   C.3       1 RES1   0.0000
     5 C5      15.9061   9.1943   6.9062   C.3       1 RES1   0.0000
     6 O6      16.5613   7.8828   6.8785   O.3       1 RES1   0.0000
     7 C7      15.9262   9.7244   5.4458   C.2       1 RES1   0.0000
     8 O8      15.4728  10.8382   5.1605   O.2       1 RES1   0.0000
     9 N9      16.3715   8.8435   4.5740   N.am      1 RES1   0.0000
    10 S10     16.3797   9.0889   2.9626   S.o2      1 RES1   0.0000
    11 O11     16.9727   7.9295   2.2649   O.2       1 RES1   0.0000
    12 O12     17.0501  10.3680   2.6952   O.2       1 RES1   0.0000
    13 O13     15.0444   9.1811   2.3905   O.3       1 RES1   0.0000
    14 C14     14.2851   7.9249   2.3432   C.3       1 RES1   0.0000
    15 C15     12.7594   8.1862   2.4542   C.3       1 RES1   0.0000
    16 O16     12.3154   8.9851   1.3332   O.3       1 RES1   0.0000
    17 C17     11.2824   8.3280   0.6505   C.3       1 RES1   0.0000
    18 N18     11.4089   8.6247  -0.8041   N.pl3     1 RES1   0.0000
    19 C19     10.6094   9.4147  -1.5683   C.2       1 RES1   0.0000
    20 N20     11.0528   9.4376  -2.8449   N.2       1 RES1   0.0000
    21 C21     12.1534   8.6638  -2.8758   C.2       1 RES1   0.0000
    22 C22     13.0604   8.3053  -3.8748   C.2       1 RES1   0.0000
    23 N23     12.9064   8.7611  -5.1349   N.pl3     1 RES1   0.0000
    24 N24     14.0557   7.4535  -3.5501   N.2       1 RES1   0.0000
    25 C25     14.2524   7.0024  -2.3153   C.2       1 RES1   0.0000
    26 N26     13.4182   7.3258  -1.3255   N.2       1 RES1   0.0000
    27 C27     12.3779   8.1569  -1.5857   C.2       1 RES1   0.0000
    28 C28     11.4326   6.8514   0.9931   C.3       1 RES1   0.0000
    29 O29     10.1469   6.1968   0.8251   O.3       1 RES1   0.0000
    30 C30     11.8890   6.9323   2.4373   C.3       1 RES1   0.0000
    31 O31     10.7772   7.1256   3.2941   O.3       1 RES1   0.0000
@<TRIPOS>BOND
     1     1     2    1
     2     2     3    1
     3     2     4    1
     4     2     5    1
     5     5     6    1
     6     5     7    1
     7     7     8    2
     8     7     9   am
     9     9    10    1
    10    10    11    2
    11    10    12    2
    12    10    13    1
    13    13    14    1
    14    15    14    1
    15    15    16    1
    16    16    17    1
    17    17    18    1
    18    18    19    1
    19    19    20    2
    20    20    21    1
    21    21    22    2
    22    22    23    1
    23    22    24    1
    24    24    25    2
    25    25    26    1
    26    26    27    2
    27    17    28    1
    28    28    29    1
    29    28    30    1
    30    30    31    1
    31    30    15    1
    32    27    18    1
    33    27    21    1
@<TRIPOS>SUBSTRUCTURE
     1 RES1        1 GROUP             0 ****  ****    0  
@<TRIPOS>MOLECULE
ligand_42
    31    33     1     0     0
SMALL
NO_CHARGES
****
Generated from the CSD

@<TRIPOS>ATOM
     1 C1      14.7598   8.6901   9.1264   C.3       1 RES1   0.0000
     2 C2      14.5359   9.0752   7.6580   C.3       1 RES1   0.0000
     3 C3      13.7057  10.3551   7.6520   C.3       1 RES1   0.0000
     4 C4      13.8197   7.9279   7.0091   C.3       1 RES1   0.0000
     5 C5      15.8960   9.2534   6.9214   C.3       1 RES1   0.0000
     6 O6      16.6878   8.0193   6.9302   O.3       1 RES1   0.0000
     7 C7      15.8487   9.7325   5.4441   C.2       1 RES1   0.0000
     8 O8      15.2771  10.7814   5.1271   O.2       1 RES1   0.0000
     9 N9      16.3789   8.8747   4.5972   N.am      1 RES1   0.0000
    10 S10     16.3903   9.0874   2.9812   S.o2      1 RES1   0.0000
    11 O11     15.0644   9.5360   2.5082   O.2       1 RES1   0.0000
    12 O12     16.8715   7.8481   2.3572   O.2       1 RES1   0.0000
    13 O13     17.2817  10.1543   2.5501   O.3       1 RES1   0.0000
    14 C14     16.8603  11.5161   2.9033   C.3       1 RES1   0.0000
    15 C15     17.3808  12.5508   1.8704   C.3       1 RES1   0.0000
    16 O16     16.8234  12.2660   0.5665   O.3       1 RES1   0.0000
    17 C17     16.1528  13.3927   0.0710   C.3       1 RES1   0.0000
    18 N18     14.9709  12.9366  -0.7134   N.pl3     1 RES1   0.0000
    19 C19     14.7965  12.9760  -2.0608   C.2       1 RES1   0.0000
    20 N20     13.5905  12.4650  -2.3940   N.2       1 RES1   0.0000
    21 C21     13.0093  12.0869  -1.2406   C.2       1 RES1   0.0000
    22 C22     11.7910  11.4859  -0.9188   C.2       1 RES1   0.0000
    23 N23     10.9056  11.1721  -1.8867   N.pl3     1 RES1   0.0000
    24 N24     11.5116  11.2804   0.3856   N.2       1 RES1   0.0000
    25 C25     12.3680  11.5550   1.3644   C.2       1 RES1   0.0000
    26 N26     13.5484  12.1202   1.1049   N.2       1 RES1   0.0000
    27 C27     13.8850  12.3812  -0.1832   C.2       1 RES1   0.0000
    28 C28     15.7956  14.2324   1.2907   C.3       1 RES1   0.0000
    29 O29     15.6313  15.6151   0.8775   O.3       1 RES1   0.0000
    30 C30     17.0099  14.0010   2.1694   C.3       1 RES1   0.0000
    31 O31     18.0745  14.8461   1.7692   O.3       1 RES1   0.0000
@<TRIPOS>BOND
     1     1     2    1
     2     2     3    1
     3     2     4    1
     4     2     5    1
     5     5     6    1
     6     5     7    1
     7     7     8    2
     8     7     9   am
     9     9    10    1
    10    10    11    2
    11    10    12    2
    12    10    13    1
    13    13    14    1
    14    15    14    1
    15    15    16    1
    16    16    17    1
    17    17    18    1
    18    18    19    1
    19    19    20    2
    20    20    21    1
    21    21    22    2
    22    22    23    1
    23    22    24    1
    24    24    25    2
    25    25    26    1
    26    26    27    2
    27    17    28    1
    28    28    29    1
    29    28    30    1
    30    30    31    1
    31    30    15    1
    32    27    18    1
    33    27    21    1
@<TRIPOS>SUBSTRUCTURE
     1 RES1        1 GROUP             0 ****  ****    0  
@<TRIPOS>MOLECULE
ligand_43
    31    33     1     0     0
SMALL
NO_CHARGES
****
Generated from the CSD

@<TRIPOS>ATOM
     1 C1      14.6923   8.6853   9.0830   C.3       1 RES1   0.0000
     2 C2      14.5266   9.1387   7.6264   C.3       1 RES1   0.0000
     3 C3      13.8374  10.4994   7.6562   C.3       1 RES1   0.0000
     4 C4      13.6996   8.0956   6.9349   C.3       1 RES1   0.0000
     5 C5      15.9059   9.1942   6.9061   C.3       1 RES1   0.0000
     6 O6      16.5609   7.8826   6.8785   O.3       1 RES1   0.0000
     7 C7      15.9262   9.7244   5.4458   C.2       1 RES1   0.0000
     8 O8      15.4729  10.8382   5.1605   O.2       1 RES1   0.0000
     9 N9      16.3715   8.8435   4.5740   N.am      1 RES1   0.0000
    10 S10     16.3797   9.0889   2.9626   S.o2      1 RES1   0.0000
    11 O11     16.9727   7.9295   2.2649   O.2       1 RES1   0.0000
    12 O12     17.0501  10.3680   2.6952   O.2       1 RES1   0.0000
    13 O13     15.0444   9.1811   2.3905   O.3       1 RES1   0.0000
    14 C14     14.9885   9.4023   0.9397   C.3       1 RES1   0.0000
    15 C15     13.5215   9.4840   0.4401   C.3       1 RES1   0.0000
    16 O16     12.9253  10.6315   1.1064   O.3       1 RES1   0.0000
    17 C17     12.0905  11.3570   0.1971   C.3       1 RES1   0.0000
    18 N18     12.3559  12.8029   0.4399   N.pl3     1 RES1   0.0000
    19 C19     11.5693  13.6986   1.0929   C.2       1 RES1   0.0000
    20 N20     12.1569  14.9157   1.1102   N.2       1 RES1   0.0000
    21 C21     13.3339  14.7753   0.4728   C.2       1 RES1   0.0000
    22 C22     14.3886  15.6418   0.1799   C.2       1 RES1   0.0000
    23 N23     14.3360  16.9361   0.5559   N.pl3     1 RES1   0.0000
    24 N24     15.4279  15.1560  -0.5312   N.2       1 RES1   0.0000
    25 C25     15.5252  13.8822  -0.8985   C.2       1 RES1   0.0000
    26 N26     14.5473  13.0147  -0.6321   N.2       1 RES1   0.0000
    27 C27     13.4582  13.4403   0.0559   C.2       1 RES1   0.0000
    28 C28     12.3680  10.8433  -1.1804   C.3       1 RES1   0.0000
    29 O29     11.1717  10.2609  -1.7631   O.3       1 RES1   0.0000
    30 C30     13.4101   9.7371  -1.0394   C.3       1 RES1   0.0000
    31 O31     13.0357   8.5129  -1.6468   O.3       1 RES1   0.0000
@<TRIPOS>BOND
     1     1     2    1
     2     2     3    1
     3     2     4    1
     4     2     5    1
     5     5     6    1
     6     5     7    1
     7     7     8    2
     8     7     9   am
     9     9    10    1
    10    10    11    2
    11    10    12    2
    12    10    13    1
    13    13    14    1
    14    15    14    1
    15    15    16    1
    16    16    17    1
    17    17    18    1
    18    18    19    1
    19    19    20    2
    20    20    21    1
    21    21    22    2
    22    22    23    1
    23    22    24    1
    24    24    25    2
    25    25    26    1
    26    26    27    2
    27    17    28    1
    28    28    29    1
    29    28    30    1
    30    30    31    1
    31    30    15    1
    32    27    18    1
    33    27    21    1
@<TRIPOS>SUBSTRUCTURE
     1 RES1        1 GROUP             0 ****  ****    0  
@<TRIPOS>MOLECULE
ligand_44
    31    33     1     0     0
SMALL
NO_CHARGES
****
Generated from the CSD

@<TRIPOS>ATOM
     1 C1      14.6907   8.6875   9.0831   C.3       1 RES1   0.0000
     2 C2      14.5256   9.1407   7.6263   C.3       1 RES1   0.0000
     3 C3      13.8385  10.5024   7.6557   C.3       1 RES1   0.0000
     4 C4      13.6970   8.0986   6.9352   C.3       1 RES1   0.0000
     5 C5      15.9050   9.1939   6.9060   C.3       1 RES1   0.0000
     6 O6      16.5577   7.8812   6.8780   O.3       1 RES1   0.0000
     7 C7      15.9262   9.7244   5.4458   C.2       1 RES1   0.0000
     8 O8      15.4736  10.8385   5.1606   O.2       1 RES1   0.0000
     9 N9      16.3715   8.8435   4.5740   N.am      1 RES1   0.0000
    10 S10     16.3797   9.0889   2.9626   S.o2      1 RES1   0.0000
    11 O11     15.0574   9.5620   2.5037   O.2       1 RES1   0.0000
    12 O12     16.8448   7.8572   2.3118   O.2       1 RES1   0.0000
    13 O13     17.2817  10.1543   2.5501   O.3       1 RES1   0.0000
    14 C14     17.3316  10.4215   1.1069   C.3       1 RES1   0.0000
    15 C15     18.3215  11.5719   0.7825   C.3       1 RES1   0.0000
    16 O16     19.6340  11.1167   1.2145   O.3       1 RES1   0.0000
    17 C17     20.6323  11.5002   0.2624   C.3       1 RES1   0.0000
    18 N18     21.5439  10.3315   0.1103   N.pl3     1 RES1   0.0000
    19 C19     22.7970  10.1783   0.6139   C.2       1 RES1   0.0000
    20 N20     23.3013   8.9747   0.2621   N.2       1 RES1   0.0000
    21 C21     22.3445   8.3608  -0.4583   C.2       1 RES1   0.0000
    22 C22     22.2461   7.1141  -1.0788   C.2       1 RES1   0.0000
    23 N23     23.2728   6.2409  -1.0275   N.pl3     1 RES1   0.0000
    24 N24     21.1196   6.8379  -1.7690   N.2       1 RES1   0.0000
    25 C25     20.0790   7.6633  -1.8224   C.2       1 RES1   0.0000
    26 N26     20.1225   8.8610  -1.2363   N.2       1 RES1   0.0000
    27 C27     21.2357   9.2176  -0.5476   C.2       1 RES1   0.0000
    28 C28     19.9258  11.9683  -0.9706   C.3       1 RES1   0.0000
    29 O29     20.2373  13.3603  -1.2449   O.3       1 RES1   0.0000
    30 C30     18.4291  11.8669  -0.6895   C.3       1 RES1   0.0000
    31 O31     17.7158  13.0674  -0.9294   O.3       1 RES1   0.0000
@<TRIPOS>BOND
     1     1     2    1
     2     2     3    1
     3     2     4    1
     4     2     5    1
     5     5     6    1
     6     5     7    1
     7     7     8    2
     8     7     9   am
     9     9    10    1
    10    10    11    2
    11    10    12    2
    12    10    13    1
    13    13    14    1
    14    15    14    1
    15    15    16    1
    16    16    17    1
    17    17    18    1
    18    18    19    1
    19    19    20    2
    20    20    21    1
    21    21    22    2
    22    22    23    1
    23    22    24    1
    24    24    25    2
    25    25    26    1
    26    26    27    2
    27    17    28    1
    28    28    29    1
    29    28    30    1
    30    30    31    1
    31    30    15    1
    32    27    18    1
    33    27    21    1
@<TRIPOS>SUBSTRUCTURE
     1 RES1        1 GROUP             0 ****  ****    0  
@<TRIPOS>MOLECULE
ligand_45
    31    33     1     0     0
SMALL
NO_CHARGES
****
Generated from the CSD

@<TRIPOS>ATOM
     1 C1      14.5877   8.6416   9.0734   C.3       1 RES1   0.0000
     2 C2      14.4426   9.1030   7.6171   C.3       1 RES1   0.0000
     3 C3      13.7445  10.4592   7.6440   C.3       1 RES1   0.0000
     4 C4      13.6333   8.0591   6.9060   C.3       1 RES1   0.0000
     5 C5      15.8329   9.1714   6.9195   C.3       1 RES1   0.0000
     6 O6      16.4964   7.8641   6.8944   O.3       1 RES1   0.0000
     7 C7      15.8734   9.7107   5.4629   C.2       1 RES1   0.0000
     8 O8      15.4179  10.8235   5.1772   O.2       1 RES1   0.0000
     9 N9      16.3382   8.8380   4.5931   N.am      1 RES1   0.0000
    10 S10     16.3709   9.0935   2.9836   S.o2      1 RES1   0.0000
    11 O11     16.9822   7.9420   2.2884   O.2       1 RES1   0.0000
    12 O12     17.0375  10.3783   2.7349   O.2       1 RES1   0.0000
    13 O13     15.0444   9.1811   2.3905   O.3       1 RES1   0.0000
    14 C14     14.2851   7.9249   2.3432   C.3       1 RES1   0.0000
    15 C15     12.8817   8.1400   1.7168   C.3       1 RES1   0.0000
    16 O16     12.1485   8.9940   2.6384   O.3       1 RES1   0.0000
    17 C17     11.3811   9.9631   1.9159   C.3       1 RES1   0.0000
    18 N18     11.5329  11.2534   2.6453   N.pl3     1 RES1   0.0000
    19 C19     12.5258  12.1729   2.5186   C.2       1 RES1   0.0000
    20 N20     12.3092  13.2164   3.3499   N.2       1 RES1   0.0000
    21 C21     11.1573  12.9528   3.9939   C.2       1 RES1   0.0000
    22 C22     10.4008  13.6348   4.9488   C.2       1 RES1   0.0000
    23 N23     10.8109  14.8298   5.4210   N.pl3     1 RES1   0.0000
    24 N24      9.2841  13.0378   5.4159   N.2       1 RES1   0.0000
    25 C25      8.8369  11.8728   4.9580   C.2       1 RES1   0.0000
    26 N26      9.5201  11.1891   4.0383   N.2       1 RES1   0.0000
    27 C27     10.6679  11.7163   3.5432   C.2       1 RES1   0.0000
    28 C28     11.8417   9.9356   0.4926   C.3       1 RES1   0.0000
    29 O29     10.7546   9.5559  -0.3927   O.3       1 RES1   0.0000
    30 C30     12.9236   8.8633   0.3975   C.3       1 RES1   0.0000
    31 O31     12.6919   7.9003  -0.6157   O.3       1 RES1   0.0000
@<TRIPOS>BOND
     1     1     2    1
     2     2     3    1
     3     2     4    1
     4     2     5    1
     5     5     6    1
     6     5     7    1
     7     7     8    2
     8     7     9   am
     9     9    10    1
    10    10    11    2
    11    10    12    2
    12    10    13    1
    13    13    14    1
    14    15    14    1
    15    15    16    1
    16    16    17    1
    17    17    18    1
    18    18    19    1
    19    19    20    2
    20    20    21    1
    21    21    22    2
    22    22    23    1
    23    22    24    1
    24    24    25    2
    25    25    26    1
    26    26    27    2
    27    17    28    1
    28    28    29    1
    29    28    30    1
    30    30    31    1
    31    30    15    1
    32    27    18    1
    33    27    21    1
@<TRIPOS>SUBSTRUCTURE
     1 RES1        1 GROUP             0 ****  ****    0  
@<TRIPOS>MOLECULE
ligand_46
    31    33     1     0     0
SMALL
NO_CHARGES
****
Generated from the CSD

@<TRIPOS>ATOM
     1 C1      14.7011   8.6954   9.0889   C.3       1 RES1   0.0000
     2 C2      14.5338   9.1473   7.6320   C.3       1 RES1   0.0000
     3 C3      13.8476  10.5095   7.6614   C.3       1 RES1   0.0000
     4 C4      13.7033   8.1051   6.9433   C.3       1 RES1   0.0000
     5 C5      15.9119   9.1989   6.9093   C.3       1 RES1   0.0000
     6 O6      16.5637   7.8858   6.8814   O.3       1 RES1   0.0000
     7 C7      15.9309   9.7280   5.4486   C.2       1 RES1   0.0000
     8 O8      15.4785  10.8422   5.1631   O.2       1 RES1   0.0000
     9 N9      16.3742   8.8461   4.5768   N.am      1 RES1   0.0000
    10 S10     16.3797   9.0899   2.9652   S.o2      1 RES1   0.0000
    11 O11     15.0569   9.5634   2.5082   O.2       1 RES1   0.0000
    12 O12     16.8428   7.8573   2.3148   O.2       1 RES1   0.0000
    13 O13     17.2817  10.1543   2.5501   O.3       1 RES1   0.0000
    14 C14     18.7147   9.8516   2.6592   C.3       1 RES1   0.0000
    15 C15     19.5796  11.0535   2.1946   C.3       1 RES1   0.0000
    16 O16     19.3307  11.2106   0.7699   O.3       1 RES1   0.0000
    17 C17     19.2304  12.5983   0.4320   C.3       1 RES1   0.0000
    18 N18     18.0933  12.7209  -0.5229   N.pl3     1 RES1   0.0000
    19 C19     16.7716  12.8544  -0.2356   C.2       1 RES1   0.0000
    20 N20     16.0491  12.9404  -1.3745   N.2       1 RES1   0.0000
    21 C21     16.9326  12.8753  -2.3876   C.2       1 RES1   0.0000
    22 C22     16.8206  12.9260  -3.7782   C.2       1 RES1   0.0000
    23 N23     15.6126  13.0581  -4.3634   N.pl3     1 RES1   0.0000
    24 N24     17.9466  12.7867  -4.5094   N.2       1 RES1   0.0000
    25 C25     19.1558  12.6780  -3.9683   C.2       1 RES1   0.0000
    26 N26     19.3138  12.6355  -2.6442   N.2       1 RES1   0.0000
    27 C27     18.2214  12.7420  -1.8465   C.2       1 RES1   0.0000
    28 C28     19.1229  13.3688   1.7100   C.3       1 RES1   0.0000
    29 O29     20.2428  14.2822   1.8559   O.3       1 RES1   0.0000
    30 C30     19.1917  12.3531   2.8471   C.3       1 RES1   0.0000
    31 O31     20.1796  12.6446   3.8201   O.3       1 RES1   0.0000
@<TRIPOS>BOND
     1     1     2    1
     2     2     3    1
     3     2     4    1
     4     2     5    1
     5     5     6    1
     6     5     7    1
     7     7     8    2
     8     7     9   am
     9     9    10    1
    10    10    11    2
    11    10    12    2
    12    10    13    1
    13    13    14    1
    14    15    14    1
    15    15    16    1
    16    16    17    1
    17    17    18    1
    18    18    19    1
    19    19    20    2
    20    20    21    1
    21    21    22    2
    22    22    23    1
    23    22    24    1
    24    24    25    2
    25    25    26    1
    26    26    27    2
    27    17    28    1
    28    28    29    1
    29    28    30    1
    30    30    31    1
    31    30    15    1
    32    27    18    1
    33    27    21    1
@<TRIPOS>SUBSTRUCTURE
     1 RES1        1 GROUP             0 ****  ****    0  
@<TRIPOS>MOLECULE
ligand_47
    31    33     1     0     0
SMALL
NO_CHARGES
****
Generated from the CSD

@<TRIPOS>ATOM
     1 C1      14.8406   9.1395   9.0581   C.3       1 RES1   0.0000
     2 C2      14.7374   9.5887   7.5945   C.3       1 RES1   0.0000
     3 C3      14.2997  11.0501   7.6040   C.3       1 RES1   0.0000
     4 C4      13.7297   8.6959   6.9329   C.3       1 RES1   0.0000
     5 C5      16.0947   9.3865   6.8589   C.3       1 RES1   0.0000
     6 O6      16.5050   7.9789   6.8467   O.3       1 RES1   0.0000
     7 C7      16.1896   9.8828   5.3896   C.2       1 RES1   0.0000
     8 O8      15.9370  11.0550   5.0900   O.2       1 RES1   0.0000
     9 N9      16.4607   8.9241   4.5285   N.am      1 RES1   0.0000
    10 S10     16.4023   9.1168   2.9110   S.o2      1 RES1   0.0000
    11 O11     16.9762   7.9392   2.2277   O.2       1 RES1   0.0000
    12 O12     17.0510  10.3910   2.5756   O.2       1 RES1   0.0000
    13 O13     15.0444   9.1811   2.3905   O.3       1 RES1   0.0000
    14 C14     14.2945  10.4001   2.7202   C.3       1 RES1   0.0000
    15 C15     12.8902  10.3916   2.0597   C.3       1 RES1   0.0000
    16 O16     13.1128  10.4578   0.6236   O.3       1 RES1   0.0000
    17 C17     12.2027   9.5907  -0.0618   C.3       1 RES1   0.0000
    18 N18     12.9884   8.9101  -1.1293   N.pl3     1 RES1   0.0000
    19 C19     13.7403   7.7828  -1.0234   C.2       1 RES1   0.0000
    20 N20     14.2975   7.4754  -2.2157   N.2       1 RES1   0.0000
    21 C21     13.8759   8.4147  -3.0824   C.2       1 RES1   0.0000
    22 C22     14.0808   8.6405  -4.4448   C.2       1 RES1   0.0000
    23 N23     14.8626   7.8113  -5.1663   N.pl3     1 RES1   0.0000
    24 N24     13.5175   9.7360  -4.9965   N.2       1 RES1   0.0000
    25 C25     12.7231  10.5621  -4.3232   C.2       1 RES1   0.0000
    26 N26     12.4894  10.3812  -3.0222   N.2       1 RES1   0.0000
    27 C27     13.0463   9.3149  -2.3948   C.2       1 RES1   0.0000
    28 C28     11.5560   8.7123   0.9623   C.3       1 RES1   0.0000
    29 O29     10.1193   8.9242   0.9884   O.3       1 RES1   0.0000
    30 C30     12.1182   9.1260   2.3196   C.3       1 RES1   0.0000
    31 O31     11.1264   9.4309   3.2846   O.3       1 RES1   0.0000
@<TRIPOS>BOND
     1     1     2    1
     2     2     3    1
     3     2     4    1
     4     2     5    1
     5     5     6    1
     6     5     7    1
     7     7     8    2
     8     7     9   am
     9     9    10    1
    10    10    11    2
    11    10    12    2
    12    10    13    1
    13    13    14    1
    14    15    14    1
    15    15    16    1
    16    16    17    1
    17    17    18    1
    18    18    19    1
    19    19    20    2
    20    20    21    1
    21    21    22    2
    22    22    23    1
    23    22    24    1
    24    24    25    2
    25    25    26    1
    26    26    27    2
    27    17    28    1
    28    28    29    1
    29    28    30    1
    30    30    31    1
    31    30    15    1
    32    27    18    1
    33    27    21    1
@<TRIPOS>SUBSTRUCTURE
     1 RES1        1 GROUP             0 ****  ****    0  
@<TRIPOS>MOLECULE
ligand_48
    31    33     1     0     0
SMALL
NO_CHARGES
****
Generated from the CSD

@<TRIPOS>ATOM
     1 C1      14.4987   8.5442   8.9986   C.3       1 RES1   0.0000
     2 C2      14.2968   8.9044   7.5207   C.3       1 RES1   0.0000
     3 C3      13.3577  10.1058   7.4765   C.3       1 RES1   0.0000
     4 C4      13.7096   7.6967   6.8523   C.3       1 RES1   0.0000
     5 C5      15.6625   9.2005   6.8340   C.3       1 RES1   0.0000
     6 O6      16.5597   8.0416   6.8802   O.3       1 RES1   0.0000
     7 C7      15.6286   9.6688   5.3530   C.2       1 RES1   0.0000
     8 O8      14.9792  10.6623   5.0082   O.2       1 RES1   0.0000
     9 N9      16.2635   8.8585   4.5318   N.am      1 RES1   0.0000
    10 S10     16.3576   9.0928   2.9214   S.o2      1 RES1   0.0000
    11 O11     15.0621   9.5640   2.3898   O.2       1 RES1   0.0000
    12 O12     16.8548   7.8561   2.3047   O.2       1 RES1   0.0000
    13 O13     17.2817  10.1543   2.5501   O.3       1 RES1   0.0000
    14 C14     16.8603  11.5161   2.9033   C.3       1 RES1   0.0000
    15 C15     17.8928  12.5676   2.4166   C.3       1 RES1   0.0000
    16 O16     19.1074  12.3338   3.1825   O.3       1 RES1   0.0000
    17 C17     20.2591  12.4670   2.3424   C.3       1 RES1   0.0000
    18 N18     21.1826  11.3572   2.7102   N.pl3     1 RES1   0.0000
    19 C19     21.1820  10.0804   2.2440   C.2       1 RES1   0.0000
    20 N20     22.1808   9.3709   2.8146   N.2       1 RES1   0.0000
    21 C21     22.8243  10.2198   3.6371   C.2       1 RES1   0.0000
    22 C22     23.9313  10.1032   4.4798   C.2       1 RES1   0.0000
    23 N23     24.5853   8.9289   4.5925   N.pl3     1 RES1   0.0000
    24 N24     24.2875  11.1813   5.2096   N.2       1 RES1   0.0000
    25 C25     23.6819  12.3602   5.1078   C.2       1 RES1   0.0000
    26 N26     22.6264  12.5227   4.3081   N.2       1 RES1   0.0000
    27 C27     22.1951  11.4729   3.5648   C.2       1 RES1   0.0000
    28 C28     19.7833  12.5055   0.9244   C.3       1 RES1   0.0000
    29 O29     20.1395  13.7657   0.2962   O.3       1 RES1   0.0000
    30 C30     18.2604  12.4130   0.9653   C.3       1 RES1   0.0000
    31 O31     17.6018  13.4463   0.2539   O.3       1 RES1   0.0000
@<TRIPOS>BOND
     1     1     2    1
     2     2     3    1
     3     2     4    1
     4     2     5    1
     5     5     6    1
     6     5     7    1
     7     7     8    2
     8     7     9   am
     9     9    10    1
    10    10    11    2
    11    10    12    2
    12    10    13    1
    13    13    14    1
    14    15    14    1
    15    15    16    1
    16    16    17    1
    17    17    18    1
    18    18    19    1
    19    19    20    2
    20    20    21    1
    21    21    22    2
    22    22    23    1
    23    22    24    1
    24    24    25    2
    25    25    26    1
    26    26    27    2
    27    17    28    1
    28    28    29    1
    29    28    30    1
    30    30    31    1
    31    30    15    1
    32    27    18    1
    33    27    21    1
@<TRIPOS>SUBSTRUCTURE
     1 RES1        1 GROUP             0 ****  ****    0  
@<TRIPOS>MOLECULE
ligand_49
    31    33     1     0     0
SMALL
NO_CHARGES
****
Generated from the CSD

@<TRIPOS>ATOM
     1 C1      14.5877   8.6416   9.0734   C.3       1 RES1   0.0000
     2 C2      14.4426   9.1030   7.6171   C.3       1 RES1   0.0000
     3 C3      13.7445  10.4592   7.6440   C.3       1 RES1   0.0000
     4 C4      13.6333   8.0591   6.9060   C.3       1 RES1   0.0000
     5 C5      15.8329   9.1714   6.9195   C.3       1 RES1   0.0000
     6 O6      16.4964   7.8641   6.8944   O.3       1 RES1   0.0000
     7 C7      15.8734   9.7107   5.4629   C.2       1 RES1   0.0000
     8 O8      15.4179  10.8235   5.1772   O.2       1 RES1   0.0000
     9 N9      16.3382   8.8380   4.5931   N.am      1 RES1   0.0000
    10 S10     16.3709   9.0935   2.9836   S.o2      1 RES1   0.0000
    11 O11     16.9822   7.9420   2.2884   O.2       1 RES1   0.0000
    12 O12     17.0375  10.3783   2.7349   O.2       1 RES1   0.0000
    13 O13     15.0444   9.1811   2.3905   O.3       1 RES1   0.0000
    14 C14     14.2851   7.9249   2.3432   C.3       1 RES1   0.0000
    15 C15     12.8817   8.1400   1.7168   C.3       1 RES1   0.0000
    16 O16     13.1072   8.5960   0.3539   O.3       1 RES1   0.0000
    17 C17     12.1725   7.9795  -0.5385   C.3       1 RES1   0.0000
    18 N18     12.9387   7.5999  -1.7587   N.pl3     1 RES1   0.0000
    19 C19     14.2877   7.5561  -1.9183   C.2       1 RES1   0.0000
    20 N20     14.6004   7.1591  -3.1718   N.2       1 RES1   0.0000
    21 C21     13.4310   6.9368  -3.7997   C.2       1 RES1   0.0000
    22 C22     13.0840   6.5015  -5.0800   C.2       1 RES1   0.0000
    23 N23     14.0393   6.2160  -5.9884   N.pl3     1 RES1   0.0000
    24 N24     11.7723   6.4280  -5.3897   N.2       1 RES1   0.0000
    25 C25     10.8037   6.6788  -4.5146   C.2       1 RES1   0.0000
    26 N26     11.0865   7.0875  -3.2764   N.2       1 RES1   0.0000
    27 C27     12.3852   7.2109  -2.9037   C.2       1 RES1   0.0000
    28 C28     11.4995   6.8701   0.2065   C.3       1 RES1   0.0000
    29 O29     10.0696   7.1072   0.3010   O.3       1 RES1   0.0000
    30 C30     12.0726   6.8746   1.6210   C.3       1 RES1   0.0000
    31 O31     11.0895   6.9277   2.6401   O.3       1 RES1   0.0000
@<TRIPOS>BOND
     1     1     2    1
     2     2     3    1
     3     2     4    1
     4     2     5    1
     5     5     6    1
     6     5     7    1
     7     7     8    2
     8     7     9   am
     9     9    10    1
    10    10    11    2
    11    10    12    2
    12    10    13    1
    13    13    14    1
    14    15    14    1
    15    15    16    1
    16    16    17    1
    17    17    18    1
    18    18    19    1
    19    19    20    2
    20    20    21    1
    21    21    22    2
    22    22    23    1
    23    22    24    1
    24    24    25    2
    25    25    26    1
    26    26    27    2
    27    17    28    1
    28    28    29    1
    29    28    30    1
    30    30    31    1
    31    30    15    1
    32    27    18    1
    33    27    21    1
@<TRIPOS>SUBSTRUCTURE
     1 RES1        1 GROUP             0 ****  ****    0  
@<TRIPOS>MOLECULE
ligand_50
    31    33     1     0     0
SMALL
NO_CHARGES
****
Generated from the CSD

@<TRIPOS>ATOM
     1 C1      14.7011   8.6954   9.0889   C.3       1 RES1   0.0000
     2 C2      14.5338   9.1473   7.6320   C.3       1 RES1   0.0000
     3 C3      13.8476  10.5095   7.6614   C.3       1 RES1   0.0000
     4 C4      13.7033   8.1051   6.9433   C.3       1 RES1   0.0000
     5 C5      15.9119   9.1989   6.9093   C.3       1 RES1   0.0000
     6 O6      16.5637   7.8858   6.8814   O.3       1 RES1   0.0000
     7 C7      15.9309   9.7280   5.4486   C.2       1 RES1   0.0000
     8 O8      15.4785  10.8422   5.1631   O.2       1 RES1   0.0000
     9 N9      16.3742   8.8461   4.5768   N.am      1 RES1   0.0000
    10 S10     16.3797   9.0899   2.9652   S.o2      1 RES1   0.0000
    11 O11     15.0569   9.5634   2.5082   O.2       1 RES1   0.0000
    12 O12     16.8428   7.8573   2.3148   O.2       1 RES1   0.0000
    13 O13     17.2817  10.1543   2.5501   O.3       1 RES1   0.0000
    14 C14     18.7147   9.8516   2.6592   C.3       1 RES1   0.0000
    15 C15     19.5796  11.0535   2.1946   C.3       1 RES1   0.0000
    16 O16     19.2692  12.1535   3.0945   O.3       1 RES1   0.0000
    17 C17     20.4606  12.8726   3.4315   C.3       1 RES1   0.0000
    18 N18     20.3791  13.1683   4.8895   N.pl3     1 RES1   0.0000
    19 C19     19.5258  12.6357   5.8036   C.2       1 RES1   0.0000
    20 N20     19.7658  13.1539   7.0287   N.2       1 RES1   0.0000
    21 C21     20.7932  14.0105   6.8812   C.2       1 RES1   0.0000
    22 C22     21.5073  14.8300   7.7574   C.2       1 RES1   0.0000
    23 N23     21.1904  14.8715   9.0678   N.pl3     1 RES1   0.0000
    24 N24     22.4810  15.6102   7.2426   N.2       1 RES1   0.0000
    25 C25     22.8364  15.5792   5.9621   C.2       1 RES1   0.0000
    26 N26     22.1901  14.8044   5.0892   N.2       1 RES1   0.0000
    27 C27     21.1807  14.0131   5.5316   C.2       1 RES1   0.0000
    28 C28     21.6274  12.0551   2.9741   C.3       1 RES1   0.0000
    29 O29     22.4020  12.7758   1.9790   O.3       1 RES1   0.0000
    30 C30     21.0590  10.8027   2.3126   C.3       1 RES1   0.0000
    31 O31     21.5500  10.5697   1.0040   O.3       1 RES1   0.0000
@<TRIPOS>BOND
     1     1     2    1
     2     2     3    1
     3     2     4    1
     4     2     5    1
     5     5     6    1
     6     5     7    1
     7     7     8    2
     8     7     9   am
     9     9    10    1
    10    10    11    2
    11    10    12    2
    12    10    13    1
    13    13    14    1
    14    15    14    1
    15    15    16    1
    16    16    17    1
    17    17    18    1
    18    18    19    1
    19    19    20    2
    20    20    21    1
    21    21    22    2
    22    22    23    1
    23    22    24    1
    24    24    25    2
    25    25    26    1
    26    26    27    2
    27    17    28    1
    28    28    29    1
    29    28    30    1
    30    30    31    1
    31    30    15    1
    32    27    18    1
    33    27    21    1
@<TRIPOS>SUBSTRUCTURE
     1 RES1        1 GROUP             0 ****  ****    0  
@<TRIPOS>MOLECULE
ligand_51
    31    33     1     0     0
SMALL
NO_CHARGES
****
Generated from the CSD

@<TRIPOS>ATOM
     1 C1      14.4987   8.5442   8.9986   C.3       1 RES1   0.0000
     2 C2      14.2968   8.9044   7.5207   C.3       1 RES1   0.0000
     3 C3      13.3577  10.1058   7.4765   C.3       1 RES1   0.0000
     4 C4      13.7096   7.6967   6.8523   C.3       1 RES1   0.0000
     5 C5      15.6625   9.2005   6.8340   C.3       1 RES1   0.0000
     6 O6      16.5597   8.0416   6.8802   O.3       1 RES1   0.0000
     7 C7      15.6286   9.6688   5.3530   C.2       1 RES1   0.0000
     8 O8      14.9792  10.6623   5.0082   O.2       1 RES1   0.0000
     9 N9      16.2635   8.8585   4.5318   N.am      1 RES1   0.0000
    10 S10     16.3576   9.0928   2.9214   S.o2      1 RES1   0.0000
    11 O11     15.0621   9.5640   2.3898   O.2       1 RES1   0.0000
    12 O12     16.8548   7.8561   2.3047   O.2       1 RES1   0.0000
    13 O13     17.2817  10.1543   2.5501   O.3       1 RES1   0.0000
    14 C14     16.8603  11.5161   2.9033   C.3       1 RES1   0.0000
    15 C15     17.8928  12.5676   2.4166   C.3       1 RES1   0.0000
    16 O16     17.9363  12.4580   0.9666   O.3       1 RES1   0.0000
    17 C17     18.0156  13.7578   0.3712   C.3       1 RES1   0.0000
    18 N18     17.0972  13.7432  -0.8020   N.pl3     1 RES1   0.0000
    19 C19     16.1458  12.8217  -1.1069   C.2       1 RES1   0.0000
    20 N20     15.5146  13.1591  -2.2534   N.2       1 RES1   0.0000
    21 C21     16.0683  14.3154  -2.6626   C.2       1 RES1   0.0000
    22 C22     15.8476  15.1676  -3.7462   C.2       1 RES1   0.0000
    23 N23     14.9042  14.8763  -4.6651   N.pl3     1 RES1   0.0000
    24 N24     16.6391  16.2541  -3.8684   N.2       1 RES1   0.0000
    25 C25     17.5624  16.5854  -2.9714   C.2       1 RES1   0.0000
    26 N26     17.8022  15.8077  -1.9142   N.2       1 RES1   0.0000
    27 C27     17.0626  14.6834  -1.7419   C.2       1 RES1   0.0000
    28 C28     17.7266  14.7639   1.4403   C.3       1 RES1   0.0000
    29 O29     18.8676  15.6390   1.6452   O.3       1 RES1   0.0000
    30 C30     17.4930  13.9840   2.7313   C.3       1 RES1   0.0000
    31 O31     18.2954  14.4145   3.8169   O.3       1 RES1   0.0000
@<TRIPOS>BOND
     1     1     2    1
     2     2     3    1
     3     2     4    1
     4     2     5    1
     5     5     6    1
     6     5     7    1
     7     7     8    2
     8     7     9   am
     9     9    10    1
    10    10    11    2
    11    10    12    2
    12    10    13    1
    13    13    14    1
    14    15    14    1
    15    15    16    1
    16    16    17    1
    17    17    18    1
    18    18    19    1
    19    19    20    2
    20    20    21    1
    21    21    22    2
    22    22    23    1
    23    22    24    1
    24    24    25    2
    25    25    26    1
    26    26    27    2
    27    17    28    1
    28    28    29    1
    29    28    30    1
    30    30    31    1
    31    30    15    1
    32    27    18    1
    33    27    21    1
@<TRIPOS>SUBSTRUCTURE
     1 RES1        1 GROUP             0 ****  ****    0  
@<TRIPOS>MOLECULE
ligand_52
    31    33     1     0     0
SMALL
NO_CHARGES
****
Generated from the CSD

@<TRIPOS>ATOM
     1 C1      15.1024   9.3418   9.0909   C.3       1 RES1   0.0000
     2 C2      14.9239   9.7347   7.6183   C.3       1 RES1   0.0000
     3 C3      14.4674  11.1901   7.5949   C.3       1 RES1   0.0000
     4 C4      13.8983   8.8059   7.0389   C.3       1 RES1   0.0000
     5 C5      16.2475   9.5212   6.8266   C.3       1 RES1   0.0000
     6 O6      16.6725   8.1179   6.8412   O.3       1 RES1   0.0000
     7 C7      16.2681   9.9691   5.3390   C.2       1 RES1   0.0000
     8 O8      15.9840  11.1269   5.0129   O.2       1 RES1   0.0000
     9 N9      16.5147   8.9859   4.4984   N.am      1 RES1   0.0000
    10 S10     16.4151   9.1336   2.8781   S.o2      1 RES1   0.0000
    11 O11     16.9745   7.9385   2.2135   O.2       1 RES1   0.0000
    12 O12     17.0521  10.3991   2.4913   O.2       1 RES1   0.0000
    13 O13     15.0444   9.1811   2.3905   O.3       1 RES1   0.0000
    14 C14     14.2945  10.4001   2.7202   C.3       1 RES1   0.0000
    15 C15     12.8902  10.3916   2.0597   C.3       1 RES1   0.0000
    16 O16     12.1897   9.2375   2.6018   O.3       1 RES1   0.0000
    17 C17     10.8228   9.5666   2.8723   C.3       1 RES1   0.0000
    18 N18     10.4889   8.9448   4.1845   N.pl3     1 RES1   0.0000
    19 C19     11.3427   8.4121   5.0981   C.2       1 RES1   0.0000
    20 N20     10.6581   7.9487   6.1673   N.2       1 RES1   0.0000
    21 C21      9.3600   8.2091   5.9258   C.2       1 RES1   0.0000
    22 C22      8.1784   7.9971   6.6385   C.2       1 RES1   0.0000
    23 N23      8.2058   7.3988   7.8471   N.pl3     1 RES1   0.0000
    24 N24      7.0153   8.3606   6.0581   N.2       1 RES1   0.0000
    25 C25      6.9510   8.9730   4.8801   C.2       1 RES1   0.0000
    26 N26      8.0542   9.2063   4.1670   N.2       1 RES1   0.0000
    27 C27      9.2576   8.8420   4.6766   C.2       1 RES1   0.0000
    28 C28     10.6879  11.0537   2.7778   C.3       1 RES1   0.0000
    29 O29      9.7584  11.4200   1.7235   O.3       1 RES1   0.0000
    30 C30     12.0631  11.6007   2.4049   C.3       1 RES1   0.0000
    31 O31     12.0577  12.4436   1.2659   O.3       1 RES1   0.0000
@<TRIPOS>BOND
     1     1     2    1
     2     2     3    1
     3     2     4    1
     4     2     5    1
     5     5     6    1
     6     5     7    1
     7     7     8    2
     8     7     9   am
     9     9    10    1
    10    10    11    2
    11    10    12    2
    12    10    13    1
    13    13    14    1
    14    15    14    1
    15    15    16    1
    16    16    17    1
    17    17    18    1
    18    18    19    1
    19    19    20    2
    20    20    21    1
    21    21    22    2
    22    22    23    1
    23    22    24    1
    24    24    25    2
    25    25    26    1
    26    26    27    2
    27    17    28    1
    28    28    29    1
    29    28    30    1
    30    30    31    1
    31    30    15    1
    32    27    18    1
    33    27    21    1
@<TRIPOS>SUBSTRUCTURE
     1 RES1        1 GROUP             0 ****  ****    0  
@<TRIPOS>MOLECULE
ligand_53
    31    33     1     0     0
SMALL
NO_CHARGES
****
Generated from the CSD

@<TRIPOS>ATOM
     1 C1      14.9848   8.3575   9.1211   C.3       1 RES1   0.0000
     2 C2      14.6728   8.7607   7.6737   C.3       1 RES1   0.0000
     3 C3      13.7445   9.9697   7.7355   C.3       1 RES1   0.0000
     4 C4      14.0242   7.5765   7.0199   C.3       1 RES1   0.0000
     5 C5      15.9841   9.0659   6.8918   C.3       1 RES1   0.0000
     6 O6      16.8743   7.9017   6.8425   O.3       1 RES1   0.0000
     7 C7      15.8405   9.5692   5.4289   C.2       1 RES1   0.0000
     8 O8      15.1785  10.5772   5.1585   O.2       1 RES1   0.0000
     9 N9      16.3995   8.7717   4.5424   N.am      1 RES1   0.0000
    10 S10     16.7048   9.2042   3.0008   S.o2      1 RES1   0.0000
    11 O11     15.5760   9.9803   2.4471   O.2       1 RES1   0.0000
    12 O12     17.0413   7.9933   2.2410   O.2       1 RES1   0.0000
    13 O13     17.8346  10.1133   2.8740   O.3       1 RES1   0.0000
    14 C14     17.5849  11.4993   3.2904   C.3       1 RES1   0.0000
    15 C15     18.8832  12.1723   3.8099   C.3       1 RES1   0.0000
    16 O16     19.2497  11.4682   5.0291   O.3       1 RES1   0.0000
    17 C17     20.6671  11.2735   5.0847   C.3       1 RES1   0.0000
    18 N18     20.8852   9.8859   5.5817   N.pl3     1 RES1   0.0000
    19 C19     21.2857   9.4954   6.8204   C.2       1 RES1   0.0000
    20 N20     21.3639   8.1477   6.8862   N.2       1 RES1   0.0000
    21 C21     20.9922   7.6888   5.6769   C.2       1 RES1   0.0000
    22 C22     20.8492   6.4149   5.1239   C.2       1 RES1   0.0000
    23 N23     21.1218   5.3159   5.8568   N.pl3     1 RES1   0.0000
    24 N24     20.4831   6.3250   3.8279   N.2       1 RES1   0.0000
    25 C25     20.1841   7.3838   3.0819   C.2       1 RES1   0.0000
    26 N26     20.2958   8.6205   3.5698   N.2       1 RES1   0.0000
    27 C27     20.6861   8.7878   4.8584   C.2       1 RES1   0.0000
    28 C28     21.2224  11.6003   3.7343   C.3       1 RES1   0.0000
    29 O29     22.1522  12.7132   3.8159   O.3       1 RES1   0.0000
    30 C30     20.0454  12.0324   2.8639   C.3       1 RES1   0.0000
    31 O31     20.2262  13.2885   2.2338   O.3       1 RES1   0.0000
@<TRIPOS>BOND
     1     1     2    1
     2     2     3    1
     3     2     4    1
     4     2     5    1
     5     5     6    1
     6     5     7    1
     7     7     8    2
     8     7     9   am
     9     9    10    1
    10    10    11    2
    11    10    12    2
    12    10    13    1
    13    13    14    1
    14    15    14    1
    15    15    16    1
    16    16    17    1
    17    17    18    1
    18    18    19    1
    19    19    20    2
    20    20    21    1
    21    21    22    2
    22    22    23    1
    23    22    24    1
    24    24    25    2
    25    25    26    1
    26    26    27    2
    27    17    28    1
    28    28    29    1
    29    28    30    1
    30    30    31    1
    31    30    15    1
    32    27    18    1
    33    27    21    1
@<TRIPOS>SUBSTRUCTURE
     1 RES1        1 GROUP             0 ****  ****    0  
@<TRIPOS>MOLECULE
ligand_54
    31    33     1     0     0
SMALL
NO_CHARGES
****
Generated from the CSD

@<TRIPOS>ATOM
     1 C1      14.8271   8.7046   9.1346   C.3       1 RES1   0.0000
     2 C2      14.6249   9.0844   7.6616   C.3       1 RES1   0.0000
     3 C3      13.8593  10.4037   7.6400   C.3       1 RES1   0.0000
     4 C4      13.8538   7.9670   7.0236   C.3       1 RES1   0.0000
     5 C5      15.9934   9.1869   6.9260   C.3       1 RES1   0.0000
     6 O6      16.6964   7.9004   6.8982   O.3       1 RES1   0.0000
     7 C7      15.9784   9.7090   5.4628   C.2       1 RES1   0.0000
     8 O8      16.1517   8.9454   4.5065   O.2       1 RES1   0.0000
     9 N9      15.8648  11.0180   5.3740   N.am      1 RES1   0.0000
    10 S10     15.9370  11.8397   3.9681   S.o2      1 RES1   0.0000
    11 O11     15.7404  13.2852   4.2021   O.2       1 RES1   0.0000
    12 O12     14.9766  11.2385   3.0337   O.2       1 RES1   0.0000
    13 O13     17.2452  11.7748   3.3332   O.3       1 RES1   0.0000
    14 C14     18.3182  12.5134   4.0116   C.3       1 RES1   0.0000
    15 C15     19.6690  12.3544   3.2643   C.3       1 RES1   0.0000
    16 O16     20.6137  13.2346   3.9344   O.3       1 RES1   0.0000
    17 C17     21.8906  12.5975   4.0520   C.3       1 RES1   0.0000
    18 N18     22.3933  12.9052   5.4204   N.pl3     1 RES1   0.0000
    19 C19     23.3608  13.7913   5.7755   C.2       1 RES1   0.0000
    20 N20     23.5314  13.7891   7.1162   N.2       1 RES1   0.0000
    21 C21     22.6477  12.9009   7.6075   C.2       1 RES1   0.0000
    22 C22     22.3228  12.4643   8.8931   C.2       1 RES1   0.0000
    23 N23     22.9718  12.9571   9.9679   N.pl3     1 RES1   0.0000
    24 N24     21.3829  11.5034   9.0165   N.2       1 RES1   0.0000
    25 C25     20.7067  11.0112   7.9835   C.2       1 RES1   0.0000
    26 N26     20.9747  11.4053   6.7373   N.2       1 RES1   0.0000
    27 C27     21.9281  12.3492   6.5354   C.2       1 RES1   0.0000
    28 C28     21.7086  11.1522   3.7104   C.3       1 RES1   0.0000
    29 O29     22.5031  10.7942   2.5484   O.3       1 RES1   0.0000
    30 C30     20.2372  10.9634   3.3517   C.3       1 RES1   0.0000
    31 O31     20.0261  10.3449   2.0945   O.3       1 RES1   0.0000
@<TRIPOS>BOND
     1     1     2    1
     2     2     3    1
     3     2     4    1
     4     2     5    1
     5     5     6    1
     6     5     7    1
     7     7     8    2
     8     7     9   am
     9     9    10    1
    10    10    11    2
    11    10    12    2
    12    10    13    1
    13    13    14    1
    14    15    14    1
    15    15    16    1
    16    16    17    1
    17    17    18    1
    18    18    19    1
    19    19    20    2
    20    20    21    1
    21    21    22    2
    22    22    23    1
    23    22    24    1
    24    24    25    2
    25    25    26    1
    26    26    27    2
    27    17    28    1
    28    28    29    1
    29    28    30    1
    30    30    31    1
    31    30    15    1
    32    27    18    1
    33    27    21    1
@<TRIPOS>SUBSTRUCTURE
     1 RES1        1 GROUP             0 ****  ****    0  
@<TRIPOS>MOLECULE
ligand_55
    31    33     1     0     0
SMALL
NO_CHARGES
****
Generated from the CSD

@<TRIPOS>ATOM
     1 C1      14.7132   8.7286   9.1029   C.3       1 RES1   0.0000
     2 C2      14.5332   9.1143   7.6285   C.3       1 RES1   0.0000
     3 C3      13.7898  10.4461   7.6012   C.3       1 RES1   0.0000
     4 C4      13.7507   8.0109   6.9800   C.3       1 RES1   0.0000
     5 C5      15.9111   9.1954   6.9080   C.3       1 RES1   0.0000
     6 O6      16.5925   7.8973   6.8843   O.3       1 RES1   0.0000
     7 C7      15.9207   9.7215   5.4461   C.2       1 RES1   0.0000
     8 O8      16.0914   8.9574   4.4897   O.2       1 RES1   0.0000
     9 N9      15.8303  11.0324   5.3596   N.am      1 RES1   0.0000
    10 S10     15.9315  11.8563   3.9568   S.o2      1 RES1   0.0000
    11 O11     17.1167  11.4254   3.1871   O.2       1 RES1   0.0000
    12 O12     15.8937  13.2923   4.2627   O.2       1 RES1   0.0000
    13 O13     14.8238  11.5851   3.0521   O.3       1 RES1   0.0000
    14 C14     13.5242  12.1378   3.4551   C.3       1 RES1   0.0000
    15 C15     12.4200  11.7865   2.4228   C.3       1 RES1   0.0000
    16 O16     11.1648  12.2535   2.9909   O.3       1 RES1   0.0000
    17 C17     10.3501  12.8499   1.9757   C.3       1 RES1   0.0000
    18 N18      9.7536  14.0758   2.5769   N.pl3     1 RES1   0.0000
    19 C19      8.4773  14.2594   3.0069   C.2       1 RES1   0.0000
    20 N20      8.3211  15.5098   3.4956   N.2       1 RES1   0.0000
    21 C21      9.5199  16.1110   3.3839   C.2       1 RES1   0.0000
    22 C22     10.0073  17.3750   3.7211   C.2       1 RES1   0.0000
    23 N23      9.1953  18.2947   4.2815   N.pl3     1 RES1   0.0000
    24 N24     11.2924  17.6586   3.4212   N.2       1 RES1   0.0000
    25 C25     12.1278  16.7712   2.8908   C.2       1 RES1   0.0000
    26 N26     11.7106  15.5475   2.5613   N.2       1 RES1   0.0000
    27 C27     10.4222  15.2018   2.8087   C.2       1 RES1   0.0000
    28 C28     11.2057  13.0420   0.7634   C.3       1 RES1   0.0000
    29 O29     10.6874  12.2787  -0.3583   O.3       1 RES1   0.0000
    30 C30     12.5890  12.4959   1.1062   C.3       1 RES1   0.0000
    31 O31     13.0784  11.5442   0.1774   O.3       1 RES1   0.0000
@<TRIPOS>BOND
     1     1     2    1
     2     2     3    1
     3     2     4    1
     4     2     5    1
     5     5     6    1
     6     5     7    1
     7     7     8    2
     8     7     9   am
     9     9    10    1
    10    10    11    2
    11    10    12    2
    12    10    13    1
    13    13    14    1
    14    15    14    1
    15    15    16    1
    16    16    17    1
    17    17    18    1
    18    18    19    1
    19    19    20    2
    20    20    21    1
    21    21    22    2
    22    22    23    1
    23    22    24    1
    24    24    25    2
    25    25    26    1
    26    26    27    2
    27    17    28    1
    28    28    29    1
    29    28    30    1
    30    30    31    1
    31    30    15    1
    32    27    18    1
    33    27    21    1
@<TRIPOS>SUBSTRUCTURE
     1 RES1        1 GROUP             0 ****  ****    0  
@<TRIPOS>MOLECULE
ligand_56
    31    33     1     0     0
SMALL
NO_CHARGES
****
Generated from the CSD

@<TRIPOS>ATOM
     1 C1      14.6307   8.7617   9.0544   C.3       1 RES1   0.0000
     2 C2      14.3750   9.2259   7.6143   C.3       1 RES1   0.0000
     3 C3      13.8291  10.6483   7.6922   C.3       1 RES1   0.0000
     4 C4      13.3880   8.2684   7.0148   C.3       1 RES1   0.0000
     5 C5      15.6796   9.1424   6.7685   C.3       1 RES1   0.0000
     6 O6      16.1652   7.7642   6.6480   O.3       1 RES1   0.0000
     7 C7      15.6312   9.7172   5.3258   C.2       1 RES1   0.0000
     8 O8      15.5959   8.9737   4.3391   O.2       1 RES1   0.0000
     9 N9      15.7299  11.0296   5.2803   N.am      1 RES1   0.0000
    10 S10     15.9080  11.8767   3.8992   S.o2      1 RES1   0.0000
    11 O11     15.7530  13.3236   4.1551   O.2       1 RES1   0.0000
    12 O12     14.9776  11.3322   2.9019   O.2       1 RES1   0.0000
    13 O13     17.2452  11.7748   3.3332   O.3       1 RES1   0.0000
    14 C14     17.5953  10.4684   2.7610   C.3       1 RES1   0.0000
    15 C15     19.0114  10.4942   2.1267   C.3       1 RES1   0.0000
    16 O16     19.3060   9.1268   1.7270   O.3       1 RES1   0.0000
    17 C17     19.9642   9.1105   0.4556   C.3       1 RES1   0.0000
    18 N18     19.3600   7.9909  -0.3200   N.pl3     1 RES1   0.0000
    19 C19     19.8993   6.7720  -0.5857   C.2       1 RES1   0.0000
    20 N20     19.0407   6.0271  -1.3170   N.2       1 RES1   0.0000
    21 C21     17.9435   6.7850  -1.4978   C.2       1 RES1   0.0000
    22 C22     16.7201   6.5846  -2.1399   C.2       1 RES1   0.0000
    23 N23     16.4579   5.4184  -2.7648   N.pl3     1 RES1   0.0000
    24 N24     15.8396   7.6074  -2.1578   N.2       1 RES1   0.0000
    25 C25     16.0534   8.7615  -1.5339   C.2       1 RES1   0.0000
    26 N26     17.2029   8.9953  -0.8983   N.2       1 RES1   0.0000
    27 C27     18.1465   8.0210  -0.8632   C.2       1 RES1   0.0000
    28 C28     19.8440  10.4803  -0.1340   C.3       1 RES1   0.0000
    29 O29     21.1556  11.0719  -0.3325   O.3       1 RES1   0.0000
    30 C30     19.0900  11.3351   0.8809   C.3       1 RES1   0.0000
    31 O31     19.7552  12.5371   1.2281   O.3       1 RES1   0.0000
@<TRIPOS>BOND
     1     1     2    1
     2     2     3    1
     3     2     4    1
     4     2     5    1
     5     5     6    1
     6     5     7    1
     7     7     8    2
     8     7     9   am
     9     9    10    1
    10    10    11    2
    11    10    12    2
    12    10    13    1
    13    13    14    1
    14    15    14    1
    15    15    16    1
    16    16    17    1
    17    17    18    1
    18    18    19    1
    19    19    20    2
    20    20    21    1
    21    21    22    2
    22    22    23    1
    23    22    24    1
    24    24    25    2
    25    25    26    1
    26    26    27    2
    27    17    28    1
    28    28    29    1
    29    28    30    1
    30    30    31    1
    31    30    15    1
    32    27    18    1
    33    27    21    1
@<TRIPOS>SUBSTRUCTURE
     1 RES1        1 GROUP             0 ****  ****    0  
@<TRIPOS>MOLECULE
ligand_57
    31    33     1     0     0
SMALL
NO_CHARGES
****
Generated from the CSD

@<TRIPOS>ATOM
     1 C1      14.8109   8.7438   9.2442   C.3       1 RES1   0.0000
     2 C2      14.6312   8.9603   7.7357   C.3       1 RES1   0.0000
     3 C3      13.9045  10.2897   7.5572   C.3       1 RES1   0.0000
     4 C4      13.8328   7.8001   7.2193   C.3       1 RES1   0.0000
     5 C5      16.0077   8.9407   7.0083   C.3       1 RES1   0.0000
     6 O6      15.8716   9.2140   5.5741   O.3       1 RES1   0.0000
     7 C7      17.1058   9.9053   7.5353   C.2       1 RES1   0.0000
     8 O8      17.4308  10.9157   6.9021   O.2       1 RES1   0.0000
     9 N9      17.6916   9.4821   8.6362   N.am      1 RES1   0.0000
    10 S10     18.9222  10.2639   9.3650   S.o2      1 RES1   0.0000
    11 O11     19.8884  10.7581   8.3624   O.2       1 RES1   0.0000
    12 O12     19.4996   9.3707  10.3777   O.2       1 RES1   0.0000
    13 O13     18.5026  11.4746  10.0556   O.3       1 RES1   0.0000
    14 C14     18.2178  12.6306   9.1956   C.3       1 RES1   0.0000
    15 C15     17.8454  13.8794  10.0383   C.3       1 RES1   0.0000
    16 O16     17.8533  15.0091   9.1217   O.3       1 RES1   0.0000
    17 C17     16.7557  15.8849   9.4014   C.3       1 RES1   0.0000
    18 N18     16.1916  16.2916   8.0837   N.pl3     1 RES1   0.0000
    19 C19     16.3460  17.4782   7.4391   C.2       1 RES1   0.0000
    20 N20     15.6829  17.4635   6.2615   N.2       1 RES1   0.0000
    21 C21     15.1190  16.2456   6.1614   C.2       1 RES1   0.0000
    22 C22     14.3363  15.6148   5.1926   C.2       1 RES1   0.0000
    23 N23     13.9897  16.2650   4.0628   N.pl3     1 RES1   0.0000
    24 N24     13.8998  14.3634   5.4479   N.2       1 RES1   0.0000
    25 C25     14.2396  13.6834   6.5383   C.2       1 RES1   0.0000
    26 N26     14.9943  14.2406   7.4871   N.2       1 RES1   0.0000
    27 C27     15.4463  15.5075   7.3101   C.2       1 RES1   0.0000
    28 C28     15.8330  15.1698  10.3373   C.3       1 RES1   0.0000
    29 O29     15.7184  15.8872  11.5950   O.3       1 RES1   0.0000
    30 C30     16.4617  13.8094  10.6263   C.3       1 RES1   0.0000
    31 O31     16.6069  13.5240  12.0065   O.3       1 RES1   0.0000
@<TRIPOS>BOND
     1     1     2    1
     2     2     3    1
     3     2     4    1
     4     2     5    1
     5     5     6    1
     6     5     7    1
     7     7     8    2
     8     7     9   am
     9     9    10    1
    10    10    11    2
    11    10    12    2
    12    10    13    1
    13    13    14    1
    14    15    14    1
    15    15    16    1
    16    16    17    1
    17    17    18    1
    18    18    19    1
    19    19    20    2
    20    20    21    1
    21    21    22    2
    22    22    23    1
    23    22    24    1
    24    24    25    2
    25    25    26    1
    26    26    27    2
    27    17    28    1
    28    28    29    1
    29    28    30    1
    30    30    31    1
    31    30    15    1
    32    27    18    1
    33    27    21    1
@<TRIPOS>SUBSTRUCTURE
     1 RES1        1 GROUP             0 ****  ****    0  
@<TRIPOS>MOLECULE
ligand_58
    31    33     1     0     0
SMALL
NO_CHARGES
****
Generated from the CSD

@<TRIPOS>ATOM
     1 C1      15.1815   9.9213   8.9708   C.3       1 RES1   0.0000
     2 C2      15.0170  10.2372   7.4782   C.3       1 RES1   0.0000
     3 C3      14.7400  11.7331   7.3646   C.3       1 RES1   0.0000
     4 C4      13.8728   9.4058   6.9785   C.3       1 RES1   0.0000
     5 C5      16.2857   9.8123   6.6818   C.3       1 RES1   0.0000
     6 O6      16.5547   8.3765   6.8083   O.3       1 RES1   0.0000
     7 C7      16.3120  10.1302   5.1612   C.2       1 RES1   0.0000
     8 O8      16.0687  11.2657   4.7381   O.2       1 RES1   0.0000
     9 N9      16.5159   9.0700   4.4070   N.am      1 RES1   0.0000
    10 S10     16.0848   8.9789   2.8377   S.o2      1 RES1   0.0000
    11 O11     16.7234   7.8136   2.1918   O.2       1 RES1   0.0000
    12 O12     16.3864  10.2679   2.2019   O.2       1 RES1   0.0000
    13 O13     14.6627   8.7336   2.6477   O.3       1 RES1   0.0000
    14 C14     13.7717   9.8407   3.0184   C.3       1 RES1   0.0000
    15 C15     12.3436   9.3277   3.3434   C.3       1 RES1   0.0000
    16 O16     11.6913   8.8891   2.1292   O.3       1 RES1   0.0000
    17 C17     11.2687   7.5592   2.2609   C.3       1 RES1   0.0000
    18 N18     11.4047   6.8834   0.9400   N.pl3     1 RES1   0.0000
    19 C19     10.4141   6.4955   0.0940   C.2       1 RES1   0.0000
    20 N20     10.9379   5.9186  -1.0103   N.2       1 RES1   0.0000
    21 C21     12.2746   5.9603  -0.8597   C.2       1 RES1   0.0000
    22 C22     13.3534   5.5505  -1.6455   C.2       1 RES1   0.0000
    23 N23     13.1449   4.9587  -2.8394   N.pl3     1 RES1   0.0000
    24 N24     14.5974   5.7183  -1.1496   N.2       1 RES1   0.0000
    25 C25     14.8425   6.3178   0.0112   C.2       1 RES1   0.0000
    26 N26     13.8445   6.7355   0.7919   N.2       1 RES1   0.0000
    27 C27     12.5654   6.5741   0.3692   C.2       1 RES1   0.0000
    28 C28     12.1391   6.9539   3.3548   C.3       1 RES1   0.0000
    29 O29     11.4372   5.8270   3.9441   O.3       1 RES1   0.0000
    30 C30     12.2893   8.1349   4.2945   C.3       1 RES1   0.0000
    31 O31     11.1463   8.2519   5.1235   O.3       1 RES1   0.0000
@<TRIPOS>BOND
     1     1     2    1
     2     2     3    1
     3     2     4    1
     4     2     5    1
     5     5     6    1
     6     5     7    1
     7     7     8    2
     8     7     9   am
     9     9    10    1
    10    10    11    2
    11    10    12    2
    12    10    13    1
    13    13    14    1
    14    15    14    1
    15    15    16    1
    16    16    17    1
    17    17    18    1
    18    18    19    1
    19    19    20    2
    20    20    21    1
    21    21    22    2
    22    22    23    1
    23    22    24    1
    24    24    25    2
    25    25    26    1
    26    26    27    2
    27    17    28    1
    28    28    29    1
    29    28    30    1
    30    30    31    1
    31    30    15    1
    32    27    18    1
    33    27    21    1
@<TRIPOS>SUBSTRUCTURE
     1 RES1        1 GROUP             0 ****  ****    0  
@<TRIPOS>MOLECULE
ligand_59
    31    33     1     0     0
SMALL
NO_CHARGES
****
Generated from the CSD

@<TRIPOS>ATOM
     1 C1      14.6828   8.2622   9.0378   C.3       1 RES1   0.0000
     2 C2      14.5099   8.8002   7.6111   C.3       1 RES1   0.0000
     3 C3      13.7843  10.1376   7.7214   C.3       1 RES1   0.0000
     4 C4      13.7135   7.7803   6.8524   C.3       1 RES1   0.0000
     5 C5      15.8896   8.9368   6.9027   C.3       1 RES1   0.0000
     6 O6      16.5796   7.6473   6.7972   O.3       1 RES1   0.0000
     7 C7      15.9007   9.5568   5.4781   C.2       1 RES1   0.0000
     8 O8      15.4188  10.6739   5.2600   O.2       1 RES1   0.0000
     9 N9      16.3724   8.7439   4.5557   N.am      1 RES1   0.0000
    10 S10     16.3797   9.0889   2.9627   S.o2      1 RES1   0.0000
    11 O11     17.0059   7.9911   2.1975   O.2       1 RES1   0.0000
    12 O12     17.0166  10.3994   2.7785   O.2       1 RES1   0.0000
    13 O13     15.0444   9.1811   2.3905   O.3       1 RES1   0.0000
    14 C14     14.2851   7.9249   2.3432   C.3       1 RES1   0.0000
    15 C15     13.3022   7.9075   1.1424   C.3       1 RES1   0.0000
    16 O16     12.3132   8.9408   1.4079   O.3       1 RES1   0.0000
    17 C17     12.0015   9.6525   0.2052   C.3       1 RES1   0.0000
    18 N18     11.9254  11.0942   0.5735   N.pl3     1 RES1   0.0000
    19 C19     12.3451  11.6862   1.7227   C.2       1 RES1   0.0000
    20 N20     12.1075  13.0161   1.6806   N.2       1 RES1   0.0000
    21 C21     11.5456  13.2611   0.4825   C.2       1 RES1   0.0000
    22 C22     11.0944  14.4152  -0.1604   C.2       1 RES1   0.0000
    23 N23     11.1739  15.6149   0.4509   N.pl3     1 RES1   0.0000
    24 N24     10.5337  14.2818  -1.3809   N.2       1 RES1   0.0000
    25 C25     10.4592  13.1206  -2.0235   C.2       1 RES1   0.0000
    26 N26     10.8867  11.9924  -1.4539   N.2       1 RES1   0.0000
    27 C27     11.4371  12.0473  -0.2150   C.2       1 RES1   0.0000
    28 C28     13.0204   9.2727  -0.8225   C.3       1 RES1   0.0000
    29 O29     12.3882   8.6276  -1.9600   O.3       1 RES1   0.0000
    30 C30     13.9558   8.2607  -0.1665   C.3       1 RES1   0.0000
    31 O31     14.1054   7.0566  -0.8984   O.3       1 RES1   0.0000
@<TRIPOS>BOND
     1     1     2    1
     2     2     3    1
     3     2     4    1
     4     2     5    1
     5     5     6    1
     6     5     7    1
     7     7     8    2
     8     7     9   am
     9     9    10    1
    10    10    11    2
    11    10    12    2
    12    10    13    1
    13    13    14    1
    14    15    14    1
    15    15    16    1
    16    16    17    1
    17    17    18    1
    18    18    19    1
    19    19    20    2
    20    20    21    1
    21    21    22    2
    22    22    23    1
    23    22    24    1
    24    24    25    2
    25    25    26    1
    26    26    27    2
    27    17    28    1
    28    28    29    1
    29    28    30    1
    30    30    31    1
    31    30    15    1
    32    27    18    1
    33    27    21    1
@<TRIPOS>SUBSTRUCTURE
     1 RES1        1 GROUP             0 ****  ****    0  
@<TRIPOS>MOLECULE
ligand_60
    31    33     1     0     0
SMALL
NO_CHARGES
****
Generated from the CSD

@<TRIPOS>ATOM
     1 C1      14.9423   8.4555   9.1006   C.3       1 RES1   0.0000
     2 C2      14.7107   8.9476   7.6656   C.3       1 RES1   0.0000
     3 C3      13.9875  10.2874   7.7626   C.3       1 RES1   0.0000
     4 C4      13.8862   7.9034   6.9728   C.3       1 RES1   0.0000
     5 C5      16.0603   9.0624   6.8978   C.3       1 RES1   0.0000
     6 O6      16.7481   7.7707   6.8058   O.3       1 RES1   0.0000
     7 C7      16.0124   9.6365   5.4548   C.2       1 RES1   0.0000
     8 O8      15.5200  10.7457   5.2209   O.2       1 RES1   0.0000
     9 N9      16.4477   8.7946   4.5405   N.am      1 RES1   0.0000
    10 S10     16.3929   9.0899   2.9385   S.o2      1 RES1   0.0000
    11 O11     17.5214   8.4292   2.2508   O.2       1 RES1   0.0000
    12 O12     16.3268  10.5436   2.7404   O.2       1 RES1   0.0000
    13 O13     15.2212   8.5188   2.2906   O.3       1 RES1   0.0000
    14 C14     15.1881   7.0525   2.2150   C.3       1 RES1   0.0000
    15 C15     13.9139   6.5566   1.4809   C.3       1 RES1   0.0000
    16 O16     12.7398   6.8842   2.2595   O.3       1 RES1   0.0000
    17 C17     11.8456   7.6414   1.4903   C.3       1 RES1   0.0000
    18 N18     11.1673   8.6255   2.3799   N.pl3     1 RES1   0.0000
    19 C19      9.8924   8.5872   2.8496   C.2       1 RES1   0.0000
    20 N20      9.6477   9.6605   3.6337   N.2       1 RES1   0.0000
    21 C21     10.7899  10.3714   3.6672   C.2       1 RES1   0.0000
    22 C22     11.1812  11.5506   4.3040   C.2       1 RES1   0.0000
    23 N23     10.3121  12.2306   5.0796   N.pl3     1 RES1   0.0000
    24 N24     12.4302  12.0086   4.0761   N.2       1 RES1   0.0000
    25 C25     13.3208  11.3544   3.3374   C.2       1 RES1   0.0000
    26 N26     12.9962  10.2183   2.7176   N.2       1 RES1   0.0000
    27 C27     11.7476   9.7129   2.8793   C.2       1 RES1   0.0000
    28 C28     12.6832   8.2808   0.3903   C.3       1 RES1   0.0000
    29 O29     11.8211   8.5911  -0.7367   O.3       1 RES1   0.0000
    30 C30     13.6820   7.1756   0.1049   C.3       1 RES1   0.0000
    31 O31     13.1085   6.2040  -0.7522   O.3       1 RES1   0.0000
@<TRIPOS>BOND
     1     1     2    1
     2     2     3    1
     3     2     4    1
     4     2     5    1
     5     5     6    1
     6     5     7    1
     7     7     8    2
     8     7     9   am
     9     9    10    1
    10    10    11    2
    11    10    12    2
    12    10    13    1
    13    13    14    1
    14    15    14    1
    15    15    16    1
    16    16    17    1
    17    17    18    1
    18    18    19    1
    19    19    20    2
    20    20    21    1
    21    21    22    2
    22    22    23    1
    23    22    24    1
    24    24    25    2
    25    25    26    1
    26    26    27    2
    27    17    28    1
    28    28    29    1
    29    28    30    1
    30    30    31    1
    31    30    15    1
    32    27    18    1
    33    27    21    1
@<TRIPOS>SUBSTRUCTURE
     1 RES1        1 GROUP             0 ****  ****    0  
@<TRIPOS>MOLECULE
ligand_61
    31    33     1     0     0
SMALL
NO_CHARGES
****
Generated from the CSD

@<TRIPOS>ATOM
     1 C1      14.6811   8.8004   9.1582   C.3       1 RES1   0.0000
     2 C2      14.5141   9.1643   7.6769   C.3       1 RES1   0.0000
     3 C3      13.7663  10.4928   7.6233   C.3       1 RES1   0.0000
     4 C4      13.7419   8.0489   7.0367   C.3       1 RES1   0.0000
     5 C5      15.8987   9.2402   6.9686   C.3       1 RES1   0.0000
     6 O6      16.5853   7.9447   6.9710   O.3       1 RES1   0.0000
     7 C7      15.9204   9.7443   5.4991   C.2       1 RES1   0.0000
     8 O8      16.1034   8.9667   4.5560   O.2       1 RES1   0.0000
     9 N9      15.8256  11.0534   5.3919   N.am      1 RES1   0.0000
    10 S10     15.9372  11.8565   3.9780   S.o2      1 RES1   0.0000
    11 O11     14.8162  11.4942   3.0863   O.2       1 RES1   0.0000
    12 O12     17.2695  11.6088   3.4118   O.2       1 RES1   0.0000
    13 O13     15.7995  13.2981   4.1256   O.3       1 RES1   0.0000
    14 C14     14.4567  13.7750   4.4812   C.3       1 RES1   0.0000
    15 C15     14.4320  15.3189   4.6366   C.3       1 RES1   0.0000
    16 O16     15.2638  15.6278   5.7895   O.3       1 RES1   0.0000
    17 C17     16.0569  16.7921   5.5336   C.3       1 RES1   0.0000
    18 N18     17.4163  16.5055   6.0718   N.pl3     1 RES1   0.0000
    19 C19     17.9814  16.9833   7.2119   C.2       1 RES1   0.0000
    20 N20     19.2304  16.4888   7.3607   N.2       1 RES1   0.0000
    21 C21     19.4434  15.6787   6.3073   C.2       1 RES1   0.0000
    22 C22     20.5101  14.8752   5.9005   C.2       1 RES1   0.0000
    23 N23     21.6411  14.8164   6.6331   N.pl3     1 RES1   0.0000
    24 N24     20.3906  14.2076   4.7336   N.2       1 RES1   0.0000
    25 C25     19.2839  14.2230   3.9974   C.2       1 RES1   0.0000
    26 N26     18.2349  14.9677   4.3509   N.2       1 RES1   0.0000
    27 C27     18.2951  15.6878   5.4992   C.2       1 RES1   0.0000
    28 C28     15.9610  17.0927   4.0710   C.3       1 RES1   0.0000
    29 O29     15.3662  18.3997   3.8523   O.3       1 RES1   0.0000
    30 C30     15.0329  16.0448   3.4630   C.3       1 RES1   0.0000
    31 O31     13.9608  16.5905   2.7143   O.3       1 RES1   0.0000
@<TRIPOS>BOND
     1     1     2    1
     2     2     3    1
     3     2     4    1
     4     2     5    1
     5     5     6    1
     6     5     7    1
     7     7     8    2
     8     7     9   am
     9     9    10    1
    10    10    11    2
    11    10    12    2
    12    10    13    1
    13    13    14    1
    14    15    14    1
    15    15    16    1
    16    16    17    1
    17    17    18    1
    18    18    19    1
    19    19    20    2
    20    20    21    1
    21    21    22    2
    22    22    23    1
    23    22    24    1
    24    24    25    2
    25    25    26    1
    26    26    27    2
    27    17    28    1
    28    28    29    1
    29    28    30    1
    30    30    31    1
    31    30    15    1
    32    27    18    1
    33    27    21    1
@<TRIPOS>SUBSTRUCTURE
     1 RES1        1 GROUP             0 ****  ****    0  
@<TRIPOS>MOLECULE
ligand_62
    31    33     1     0     0
SMALL
NO_CHARGES
****
Generated from the CSD

@<TRIPOS>ATOM
     1 C1      14.7248   8.7405   9.1128   C.3       1 RES1   0.0000
     2 C2      14.5418   9.1228   7.6380   C.3       1 RES1   0.0000
     3 C3      13.7971  10.4539   7.6092   C.3       1 RES1   0.0000
     4 C4      13.7591   8.0173   6.9933   C.3       1 RES1   0.0000
     5 C5      15.9183   9.2036   6.9148   C.3       1 RES1   0.0000
     6 O6      16.6008   7.9060   6.8927   O.3       1 RES1   0.0000
     7 C7      15.9248   9.7265   5.4517   C.2       1 RES1   0.0000
     8 O8      16.0944   8.9606   4.4967   O.2       1 RES1   0.0000
     9 N9      15.8330  11.0372   5.3626   N.am      1 RES1   0.0000
    10 S10     15.9309  11.8581   3.9579   S.o2      1 RES1   0.0000
    11 O11     14.7986  11.5108   3.0746   O.2       1 RES1   0.0000
    12 O12     17.2558  11.6137   3.3732   O.2       1 RES1   0.0000
    13 O13     15.7995  13.2981   4.1256   O.3       1 RES1   0.0000
    14 C14     16.9363  13.9693   4.7691   C.3       1 RES1   0.0000
    15 C15     16.6874  15.4956   4.8985   C.3       1 RES1   0.0000
    16 O16     16.6523  16.0212   3.5424   O.3       1 RES1   0.0000
    17 C17     15.6170  17.0020   3.4152   C.3       1 RES1   0.0000
    18 N18     14.9501  16.7470   2.1074   N.pl3     1 RES1   0.0000
    19 C19     15.0743  17.4552   0.9540   C.2       1 RES1   0.0000
    20 N20     14.3115  16.9080  -0.0183   N.2       1 RES1   0.0000
    21 C21     13.7142  15.8340   0.5303   C.2       1 RES1   0.0000
    22 C22     12.8367  14.8601   0.0501   C.2       1 RES1   0.0000
    23 N23     12.4081  14.8954  -1.2283   N.pl3     1 RES1   0.0000
    24 N24     12.3963  13.9228   0.9157   N.2       1 RES1   0.0000
    25 C25     12.8142  13.8427   2.1750   C.2       1 RES1   0.0000
    26 N26     13.6603  14.7445   2.6759   N.2       1 RES1   0.0000
    27 C27     14.1234  15.7327   1.8697   C.2       1 RES1   0.0000
    28 C28     14.7584  16.9151   4.6374   C.3       1 RES1   0.0000
    29 O29     14.7848  18.1662   5.3747   O.3       1 RES1   0.0000
    30 C30     15.3615  15.8311   5.5266   C.3       1 RES1   0.0000
    31 O31     15.6217  16.2542   6.8537   O.3       1 RES1   0.0000
@<TRIPOS>BOND
     1     1     2    1
     2     2     3    1
     3     2     4    1
     4     2     5    1
     5     5     6    1
     6     5     7    1
     7     7     8    2
     8     7     9   am
     9     9    10    1
    10    10    11    2
    11    10    12    2
    12    10    13    1
    13    13    14    1
    14    15    14    1
    15    15    16    1
    16    16    17    1
    17    17    18    1
    18    18    19    1
    19    19    20    2
    20    20    21    1
    21    21    22    2
    22    22    23    1
    23    22    24    1
    24    24    25    2
    25    25    26    1
    26    26    27    2
    27    17    28    1
    28    28    29    1
    29    28    30    1
    30    30    31    1
    31    30    15    1
    32    27    18    1
    33    27    21    1
@<TRIPOS>SUBSTRUCTURE
     1 RES1        1 GROUP             0 ****  ****    0  
@<TRIPOS>MOLECULE
ligand_63
    31    33     1     0     0
SMALL
NO_CHARGES
****
Generated from the CSD

@<TRIPOS>ATOM
     1 C1      14.6907   8.6874   9.0830   C.3       1 RES1   0.0000
     2 C2      14.5256   9.1407   7.6263   C.3       1 RES1   0.0000
     3 C3      13.8384  10.5023   7.6557   C.3       1 RES1   0.0000
     4 C4      13.6970   8.0985   6.9351   C.3       1 RES1   0.0000
     5 C5      15.9050   9.1939   6.9060   C.3       1 RES1   0.0000
     6 O6      16.5577   7.8812   6.8780   O.3       1 RES1   0.0000
     7 C7      15.9262   9.7244   5.4458   C.2       1 RES1   0.0000
     8 O8      15.4736  10.8385   5.1606   O.2       1 RES1   0.0000
     9 N9      16.3715   8.8435   4.5740   N.am      1 RES1   0.0000
    10 S10     16.3797   9.0889   2.9626   S.o2      1 RES1   0.0000
    11 O11     15.0574   9.5620   2.5037   O.2       1 RES1   0.0000
    12 O12     16.8448   7.8572   2.3118   O.2       1 RES1   0.0000
    13 O13     17.2817  10.1543   2.5501   O.3       1 RES1   0.0000
    14 C14     18.7147   9.8516   2.6592   C.3       1 RES1   0.0000
    15 C15     19.5404  11.1357   2.9379   C.3       1 RES1   0.0000
    16 O16     19.4680  12.0230   1.7979   O.3       1 RES1   0.0000
    17 C17     18.9893  13.2797   2.1932   C.3       1 RES1   0.0000
    18 N18     18.1553  13.8392   1.0926   N.pl3     1 RES1   0.0000
    19 C19     17.6661  13.1911   0.0026   C.2       1 RES1   0.0000
    20 N20     16.9491  14.0399  -0.7668   N.2       1 RES1   0.0000
    21 C21     16.9775  15.2313  -0.1415   C.2       1 RES1   0.0000
    22 C22     16.4233  16.4836  -0.4128   C.2       1 RES1   0.0000
    23 N23     15.6808  16.6779  -1.5219   N.pl3     1 RES1   0.0000
    24 N24     16.6978  17.4950   0.4378   N.2       1 RES1   0.0000
    25 C25     17.4054  17.3361   1.5518   C.2       1 RES1   0.0000
    26 N26     17.9464  16.1557   1.8586   N.2       1 RES1   0.0000
    27 C27     17.7349  15.0995   1.0336   C.2       1 RES1   0.0000
    28 C28     18.2221  13.0428   3.4877   C.3       1 RES1   0.0000
    29 O29     18.1865  14.2809   4.2462   O.3       1 RES1   0.0000
    30 C30     19.0656  11.9595   4.1322   C.3       1 RES1   0.0000
    31 O31     20.1888  12.5310   4.7797   O.3       1 RES1   0.0000
@<TRIPOS>BOND
     1     1     2    1
     2     2     3    1
     3     2     4    1
     4     2     5    1
     5     5     6    1
     6     5     7    1
     7     7     8    2
     8     7     9   am
     9     9    10    1
    10    10    11    2
    11    10    12    2
    12    10    13    1
    13    13    14    1
    14    15    14    1
    15    15    16    1
    16    16    17    1
    17    17    18    1
    18    18    19    1
    19    19    20    2
    20    20    21    1
    21    21    22    2
    22    22    23    1
    23    22    24    1
    24    24    25    2
    25    25    26    1
    26    26    27    2
    27    17    28    1
    28    28    29    1
    29    28    30    1
    30    30    31    1
    31    30    15    1
    32    27    18    1
    33    27    21    1
@<TRIPOS>SUBSTRUCTURE
     1 RES1        1 GROUP             0 ****  ****    0  
@<TRIPOS>MOLECULE
ligand_64
    31    33     1     0     0
SMALL
NO_CHARGES
****
Generated from the CSD

@<TRIPOS>ATOM
     1 C1      14.7583   8.6901   9.1259   C.3       1 RES1   0.0000
     2 C2      14.5347   9.0752   7.6574   C.3       1 RES1   0.0000
     3 C3      13.7045  10.3550   7.6511   C.3       1 RES1   0.0000
     4 C4      13.8187   7.9278   7.0084   C.3       1 RES1   0.0000
     5 C5      15.8949   9.2534   6.9210   C.3       1 RES1   0.0000
     6 O6      16.6868   8.0194   6.9300   O.3       1 RES1   0.0000
     7 C7      15.8479   9.7325   5.4438   C.2       1 RES1   0.0000
     8 O8      15.2763  10.7814   5.1266   O.2       1 RES1   0.0000
     9 N9      16.3784   8.8747   4.5969   N.am      1 RES1   0.0000
    10 S10     16.3901   9.0874   2.9809   S.o2      1 RES1   0.0000
    11 O11     15.0644   9.5360   2.5076   O.2       1 RES1   0.0000
    12 O12     16.8715   7.8481   2.3571   O.2       1 RES1   0.0000
    13 O13     17.2817  10.1543   2.5501   O.3       1 RES1   0.0000
    14 C14     16.8603  11.5161   2.9033   C.3       1 RES1   0.0000
    15 C15     17.3808  12.5508   1.8704   C.3       1 RES1   0.0000
    16 O16     18.8245  12.6180   1.9275   O.3       1 RES1   0.0000
    17 C17     19.3707  12.3639   0.6619   C.3       1 RES1   0.0000
    18 N18     20.6529  11.6253   0.8362   N.pl3     1 RES1   0.0000
    19 C19     21.1234  11.0216   1.9594   C.2       1 RES1   0.0000
    20 N20     22.3247  10.4510   1.7186   N.2       1 RES1   0.0000
    21 C21     22.6019  10.6879   0.4232   C.2       1 RES1   0.0000
    22 C22     23.6626  10.3515  -0.4199   C.2       1 RES1   0.0000
    23 N23     24.7096   9.6410   0.0472   N.pl3     1 RES1   0.0000
    24 N24     23.6281  10.8028  -1.6915   N.2       1 RES1   0.0000
    25 C25     22.6035  11.4850  -2.1931   C.2       1 RES1   0.0000
    26 N26     21.5628  11.8209  -1.4288   N.2       1 RES1   0.0000
    27 C27     21.5428  11.4244  -0.1314   C.2       1 RES1   0.0000
    28 C28     18.3079  11.5814  -0.0988   C.3       1 RES1   0.0000
    29 O29     18.5196  11.7646  -1.5241   O.3       1 RES1   0.0000
    30 C30     17.0401  12.2355   0.4161   C.3       1 RES1   0.0000
    31 O31     16.7948  13.4463  -0.2778   O.3       1 RES1   0.0000
@<TRIPOS>BOND
     1     1     2    1
     2     2     3    1
     3     2     4    1
     4     2     5    1
     5     5     6    1
     6     5     7    1
     7     7     8    2
     8     7     9   am
     9     9    10    1
    10    10    11    2
    11    10    12    2
    12    10    13    1
    13    13    14    1
    14    15    14    1
    15    15    16    1
    16    16    17    1
    17    17    18    1
    18    18    19    1
    19    19    20    2
    20    20    21    1
    21    21    22    2
    22    22    23    1
    23    22    24    1
    24    24    25    2
    25    25    26    1
    26    26    27    2
    27    17    28    1
    28    28    29    1
    29    28    30    1
    30    30    31    1
    31    30    15    1
    32    27    18    1
    33    27    21    1
@<TRIPOS>SUBSTRUCTURE
     1 RES1        1 GROUP             0 ****  ****    0  
@<TRIPOS>MOLECULE
ligand_65
    31    33     1     0     0
SMALL
NO_CHARGES
****
Generated from the CSD

@<TRIPOS>ATOM
     1 C1      14.6923   8.6853   9.0830   C.3       1 RES1   0.0000
     2 C2      14.5266   9.1387   7.6264   C.3       1 RES1   0.0000
     3 C3      13.8374  10.4994   7.6562   C.3       1 RES1   0.0000
     4 C4      13.6996   8.0956   6.9349   C.3       1 RES1   0.0000
     5 C5      15.9059   9.1942   6.9061   C.3       1 RES1   0.0000
     6 O6      16.5609   7.8826   6.8785   O.3       1 RES1   0.0000
     7 C7      15.9262   9.7244   5.4458   C.2       1 RES1   0.0000
     8 O8      15.4729  10.8382   5.1605   O.2       1 RES1   0.0000
     9 N9      16.3715   8.8435   4.5740   N.am      1 RES1   0.0000
    10 S10     16.3797   9.0889   2.9626   S.o2      1 RES1   0.0000
    11 O11     16.9727   7.9295   2.2649   O.2       1 RES1   0.0000
    12 O12     17.0501  10.3680   2.6952   O.2       1 RES1   0.0000
    13 O13     15.0444   9.1811   2.3905   O.3       1 RES1   0.0000
    14 C14     14.9885   9.4023   0.9397   C.3       1 RES1   0.0000
    15 C15     13.5215   9.4840   0.4401   C.3       1 RES1   0.0000
    16 O16     12.9445   8.1647   0.6470   O.3       1 RES1   0.0000
    17 C17     11.6015   8.2788   1.1300   C.3       1 RES1   0.0000
    18 N18     11.4475   7.2536   2.2002   N.pl3     1 RES1   0.0000
    19 C19     12.4244   6.5438   2.8241   C.2       1 RES1   0.0000
    20 N20     11.8869   5.7119   3.7438   N.2       1 RES1   0.0000
    21 C21     10.5572   5.9155   3.7051   C.2       1 RES1   0.0000
    22 C22      9.4733   5.3869   4.4086   C.2       1 RES1   0.0000
    23 N23      9.6655   4.4488   5.3585   N.pl3     1 RES1   0.0000
    24 N24      8.2352   5.8053   4.0713   N.2       1 RES1   0.0000
    25 C25      8.0088   6.7440   3.1578   C.2       1 RES1   0.0000
    26 N26      9.0136   7.2857   2.4671   N.2       1 RES1   0.0000
    27 C27     10.2842   6.8922   2.7340   C.2       1 RES1   0.0000
    28 C28     11.3827   9.7047   1.5268   C.3       1 RES1   0.0000
    29 O29     10.3242  10.3032   0.7322   O.3       1 RES1   0.0000
    30 C30     12.6786  10.4525   1.2254   C.3       1 RES1   0.0000
    31 O31     12.5040  11.6049   0.4197   O.3       1 RES1   0.0000
@<TRIPOS>BOND
     1     1     2    1
     2     2     3    1
     3     2     4    1
     4     2     5    1
     5     5     6    1
     6     5     7    1
     7     7     8    2
     8     7     9   am
     9     9    10    1
    10    10    11    2
    11    10    12    2
    12    10    13    1
    13    13    14    1
    14    15    14    1
    15    15    16    1
    16    16    17    1
    17    17    18    1
    18    18    19    1
    19    19    20    2
    20    20    21    1
    21    21    22    2
    22    22    23    1
    23    22    24    1
    24    24    25    2
    25    25    26    1
    26    26    27    2
    27    17    28    1
    28    28    29    1
    29    28    30    1
    30    30    31    1
    31    30    15    1
    32    27    18    1
    33    27    21    1
@<TRIPOS>SUBSTRUCTURE
     1 RES1        1 GROUP             0 ****  ****    0  
@<TRIPOS>MOLECULE
ligand_66
    31    33     1     0     0
SMALL
NO_CHARGES
****
Generated from the CSD

@<TRIPOS>ATOM
     1 C1      14.6907   8.6875   9.0831   C.3       1 RES1   0.0000
     2 C2      14.5256   9.1407   7.6263   C.3       1 RES1   0.0000
     3 C3      13.8385  10.5024   7.6557   C.3       1 RES1   0.0000
     4 C4      13.6970   8.0986   6.9352   C.3       1 RES1   0.0000
     5 C5      15.9050   9.1939   6.9060   C.3       1 RES1   0.0000
     6 O6      16.5577   7.8812   6.8780   O.3       1 RES1   0.0000
     7 C7      15.9262   9.7244   5.4458   C.2       1 RES1   0.0000
     8 O8      15.4736  10.8385   5.1606   O.2       1 RES1   0.0000
     9 N9      16.3715   8.8435   4.5740   N.am      1 RES1   0.0000
    10 S10     16.3797   9.0889   2.9626   S.o2      1 RES1   0.0000
    11 O11     15.0574   9.5620   2.5037   O.2       1 RES1   0.0000
    12 O12     16.8448   7.8572   2.3118   O.2       1 RES1   0.0000
    13 O13     17.2817  10.1543   2.5501   O.3       1 RES1   0.0000
    14 C14     17.3316  10.4215   1.1069   C.3       1 RES1   0.0000
    15 C15     18.3215  11.5719   0.7825   C.3       1 RES1   0.0000
    16 O16     17.7581  12.7758   1.3737   O.3       1 RES1   0.0000
    17 C17     18.7907  13.5669   1.9720   C.3       1 RES1   0.0000
    18 N18     18.2501  14.0571   3.2710   N.pl3     1 RES1   0.0000
    19 C19     17.1388  13.6314   3.9275   C.2       1 RES1   0.0000
    20 N20     16.9814  14.3188   5.0805   N.2       1 RES1   0.0000
    21 C21     18.0170  15.1753   5.1533   C.2       1 RES1   0.0000
    22 C22     18.4261  16.1265   6.0897   C.2       1 RES1   0.0000
    23 N23     17.7055  16.3383   7.2101   N.pl3     1 RES1   0.0000
    24 N24     19.5275  16.8555   5.8117   N.2       1 RES1   0.0000
    25 C25     20.2751  16.6593   4.7303   C.2       1 RES1   0.0000
    26 N26     19.9300  15.7546   3.8124   N.2       1 RES1   0.0000
    27 C27     18.8178  15.0038   4.0128   C.2       1 RES1   0.0000
    28 C28     20.0276  12.7271   2.0311   C.3       1 RES1   0.0000
    29 O29     21.0939  13.3259   1.2474   O.3       1 RES1   0.0000
    30 C30     19.6796  11.3806   1.4024   C.3       1 RES1   0.0000
    31 O31     20.5611  10.9843   0.3662   O.3       1 RES1   0.0000
@<TRIPOS>BOND
     1     1     2    1
     2     2     3    1
     3     2     4    1
     4     2     5    1
     5     5     6    1
     6     5     7    1
     7     7     8    2
     8     7     9   am
     9     9    10    1
    10    10    11    2
    11    10    12    2
    12    10    13    1
    13    13    14    1
    14    15    14    1
    15    15    16    1
    16    16    17    1
    17    17    18    1
    18    18    19    1
    19    19    20    2
    20    20    21    1
    21    21    22    2
    22    22    23    1
    23    22    24    1
    24    24    25    2
    25    25    26    1
    26    26    27    2
    27    17    28    1
    28    28    29    1
    29    28    30    1
    30    30    31    1
    31    30    15    1
    32    27    18    1
    33    27    21    1
@<TRIPOS>SUBSTRUCTURE
     1 RES1        1 GROUP             0 ****  ****    0  
@<TRIPOS>MOLECULE
ligand_67
    31    33     1     0     0
SMALL
NO_CHARGES
****
Generated from the CSD

@<TRIPOS>ATOM
     1 C1      14.5808   8.9420   9.1956   C.3       1 RES1   0.0000
     2 C2      14.4244   9.2830   7.7076   C.3       1 RES1   0.0000
     3 C3      13.7205  10.6341   7.6290   C.3       1 RES1   0.0000
     4 C4      13.6153   8.1816   7.0891   C.3       1 RES1   0.0000
     5 C5      15.8100   9.2999   6.9975   C.3       1 RES1   0.0000
     6 O6      16.4538   7.9828   7.0246   O.3       1 RES1   0.0000
     7 C7      15.8467   9.7747   5.5186   C.2       1 RES1   0.0000
     8 O8      16.0032   8.9735   4.5905   O.2       1 RES1   0.0000
     9 N9      15.7949  11.0839   5.3864   N.am      1 RES1   0.0000
    10 S10     15.9313  11.8557   3.9572   S.o2      1 RES1   0.0000
    11 O11     17.1099  11.3649   3.2136   O.2       1 RES1   0.0000
    12 O12     15.9324  13.3018   4.2133   O.2       1 RES1   0.0000
    13 O13     14.8238  11.5851   3.0521   O.3       1 RES1   0.0000
    14 C14     13.5242  12.1378   3.4551   C.3       1 RES1   0.0000
    15 C15     12.6474  12.4702   2.2186   C.3       1 RES1   0.0000
    16 O16     12.4202  11.2105   1.5272   O.3       1 RES1   0.0000
    17 C17     11.0690  11.1357   1.0596   C.3       1 RES1   0.0000
    18 N18     10.6011   9.7484   1.3359   N.pl3     1 RES1   0.0000
    19 C19     10.4363   8.7303   0.4507   C.2       1 RES1   0.0000
    20 N20      9.9989   7.6206   1.0862   N.2       1 RES1   0.0000
    21 C21      9.9037   7.9449   2.3889   C.2       1 RES1   0.0000
    22 C22      9.5338   7.2452   3.5390   C.2       1 RES1   0.0000
    23 N23      9.1574   5.9522   3.4624   N.pl3     1 RES1   0.0000
    24 N24      9.5158   7.9164   4.7099   N.2       1 RES1   0.0000
    25 C25      9.9019   9.1829   4.8277   C.2       1 RES1   0.0000
    26 N26     10.2737   9.8891   3.7586   N.2       1 RES1   0.0000
    27 C27     10.2892   9.2862   2.5433   C.2       1 RES1   0.0000
    28 C28     10.3037  12.2463   1.7074   C.3       1 RES1   0.0000
    29 O29      9.7803  13.1615   0.7082   O.3       1 RES1   0.0000
    30 C30     11.2919  13.0156   2.5797   C.3       1 RES1   0.0000
    31 O31     11.3199  14.4093   2.3257   O.3       1 RES1   0.0000
@<TRIPOS>BOND
     1     1     2    1
     2     2     3    1
     3     2     4    1
     4     2     5    1
     5     5     6    1
     6     5     7    1
     7     7     8    2
     8     7     9   am
     9     9    10    1
    10    10    11    2
    11    10    12    2
    12    10    13    1
    13    13    14    1
    14    15    14    1
    15    15    16    1
    16    16    17    1
    17    17    18    1
    18    18    19    1
    19    19    20    2
    20    20    21    1
    21    21    22    2
    22    22    23    1
    23    22    24    1
    24    24    25    2
    25    25    26    1
    26    26    27    2
    27    17    28    1
    28    28    29    1
    29    28    30    1
    30    30    31    1
    31    30    15    1
    32    27    18    1
    33    27    21    1
@<TRIPOS>SUBSTRUCTURE
     1 RES1        1 GROUP             0 ****  ****    0  
@<TRIPOS>MOLECULE
ligand_68
    31    33     1     0     0
SMALL
NO_CHARGES
****
Generated from the CSD

@<TRIPOS>ATOM
     1 C1      14.7571   8.5860   9.1134   C.3       1 RES1   0.0000
     2 C2      14.5715   9.0538   7.6637   C.3       1 RES1   0.0000
     3 C3      13.8688  10.4069   7.7159   C.3       1 RES1   0.0000
     4 C4      13.7480   8.0099   6.9693   C.3       1 RES1   0.0000
     5 C5      15.9426   9.1315   6.9299   C.3       1 RES1   0.0000
     6 O6      16.6106   7.8271   6.8808   O.3       1 RES1   0.0000
     7 C7      15.9421   9.6780   5.4755   C.2       1 RES1   0.0000
     8 O8      15.4746  10.7903   5.2074   O.2       1 RES1   0.0000
     9 N9      16.3873   8.8115   4.5893   N.am      1 RES1   0.0000
    10 S10     16.3762   9.0749   2.9808   S.o2      1 RES1   0.0000
    11 O11     17.2667  10.2017   2.6340   O.2       1 RES1   0.0000
    12 O12     14.9821   9.2471   2.5522   O.2       1 RES1   0.0000
    13 O13     16.9223   7.9642   2.2147   O.3       1 RES1   0.0000
    14 C14     18.3711   7.7582   2.3387   C.3       1 RES1   0.0000
    15 C15     18.8384   6.5369   1.5030   C.3       1 RES1   0.0000
    16 O16     18.5324   6.8490   0.1154   O.3       1 RES1   0.0000
    17 C17     19.5976   6.4177  -0.7386   C.3       1 RES1   0.0000
    18 N18     19.8048   7.5026  -1.7386   N.pl3     1 RES1   0.0000
    19 C19     19.4318   7.5166  -3.0455   C.2       1 RES1   0.0000
    20 N20     19.7930   8.6829  -3.6252   N.2       1 RES1   0.0000
    21 C21     20.3861   9.4142  -2.6636   C.2       1 RES1   0.0000
    22 C22     20.9490  10.6911  -2.6233   C.2       1 RES1   0.0000
    23 N23     20.9764  11.4625  -3.7294   N.pl3     1 RES1   0.0000
    24 N24     21.5059  11.1010  -1.4641   N.2       1 RES1   0.0000
    25 C25     21.4774  10.3786  -0.3487   C.2       1 RES1   0.0000
    26 N26     20.9412   9.1570  -0.3358   N.2       1 RES1   0.0000
    27 C27     20.3871   8.6685  -1.4739   C.2       1 RES1   0.0000
    28 C28     20.7644   6.0724   0.1322   C.3       1 RES1   0.0000
    29 O29     21.1184   4.6713  -0.0137   O.3       1 RES1   0.0000
    30 C30     20.3228   6.2993   1.5754   C.3       1 RES1   0.0000
    31 O31     20.5274   5.1818   2.4222   O.3       1 RES1   0.0000
@<TRIPOS>BOND
     1     1     2    1
     2     2     3    1
     3     2     4    1
     4     2     5    1
     5     5     6    1
     6     5     7    1
     7     7     8    2
     8     7     9   am
     9     9    10    1
    10    10    11    2
    11    10    12    2
    12    10    13    1
    13    13    14    1
    14    15    14    1
    15    15    16    1
    16    16    17    1
    17    17    18    1
    18    18    19    1
    19    19    20    2
    20    20    21    1
    21    21    22    2
    22    22    23    1
    23    22    24    1
    24    24    25    2
    25    25    26    1
    26    26    27    2
    27    17    28    1
    28    28    29    1
    29    28    30    1
    30    30    31    1
    31    30    15    1
    32    27    18    1
    33    27    21    1
@<TRIPOS>SUBSTRUCTURE
     1 RES1        1 GROUP             0 ****  ****    0  
@<TRIPOS>MOLECULE
ligand_69
    31    33     1     0     0
SMALL
NO_CHARGES
****
Generated from the CSD

@<TRIPOS>ATOM
     1 C1      14.6954   8.6743   9.0851   C.3       1 RES1   0.0000
     2 C2      14.5295   9.1306   7.6294   C.3       1 RES1   0.0000
     3 C3      13.8415  10.4918   7.6621   C.3       1 RES1   0.0000
     4 C4      13.7013   8.0895   6.9363   C.3       1 RES1   0.0000
     5 C5      15.9086   9.1862   6.9088   C.3       1 RES1   0.0000
     6 O6      16.5625   7.8741   6.8785   O.3       1 RES1   0.0000
     7 C7      15.9288   9.7191   5.4495   C.2       1 RES1   0.0000
     8 O8      15.4765  10.8339   5.1665   O.2       1 RES1   0.0000
     9 N9      16.3731   8.8396   4.5759   N.am      1 RES1   0.0000
    10 S10     16.3809   9.0880   2.9650   S.o2      1 RES1   0.0000
    11 O11     17.2874  10.2016   2.6167   O.2       1 RES1   0.0000
    12 O12     14.9932   9.2715   2.5208   O.2       1 RES1   0.0000
    13 O13     16.9223   7.9642   2.2147   O.3       1 RES1   0.0000
    14 C14     16.0801   6.7617   2.1752   C.3       1 RES1   0.0000
    15 C15     16.7544   5.6304   1.3543   C.3       1 RES1   0.0000
    16 O16     17.9927   5.3055   2.0451   O.3       1 RES1   0.0000
    17 C17     18.2023   3.8891   2.0518   C.3       1 RES1   0.0000
    18 N18     18.6932   3.5398   3.4145   N.pl3     1 RES1   0.0000
    19 C19     19.9610   3.2260   3.7910   C.2       1 RES1   0.0000
    20 N20     20.0086   2.9733   5.1178   N.2       1 RES1   0.0000
    21 C21     18.7566   3.1466   5.5800   C.2       1 RES1   0.0000
    22 C22     18.1662   3.0549   6.8418   C.2       1 RES1   0.0000
    23 N23     18.9031   2.7165   7.9195   N.pl3     1 RES1   0.0000
    24 N24     16.8359   3.2634   6.9347   N.2       1 RES1   0.0000
    25 C25     16.0821   3.6210   5.8998   C.2       1 RES1   0.0000
    26 N26     16.6036   3.7314   4.6768   N.2       1 RES1   0.0000
    27 C27     17.9307   3.5088   4.5037   C.2       1 RES1   0.0000
    28 C28     16.9290   3.2409   1.6079   C.3       1 RES1   0.0000
    29 O29     17.1357   2.4849   0.3850   O.3       1 RES1   0.0000
    30 C30     15.9413   4.3647   1.3060   C.3       1 RES1   0.0000
    31 O31     15.3601   4.2890   0.0160   O.3       1 RES1   0.0000
@<TRIPOS>BOND
     1     1     2    1
     2     2     3    1
     3     2     4    1
     4     2     5    1
     5     5     6    1
     6     5     7    1
     7     7     8    2
     8     7     9   am
     9     9    10    1
    10    10    11    2
    11    10    12    2
    12    10    13    1
    13    13    14    1
    14    15    14    1
    15    15    16    1
    16    16    17    1
    17    17    18    1
    18    18    19    1
    19    19    20    2
    20    20    21    1
    21    21    22    2
    22    22    23    1
    23    22    24    1
    24    24    25    2
    25    25    26    1
    26    26    27    2
    27    17    28    1
    28    28    29    1
    29    28    30    1
    30    30    31    1
    31    30    15    1
    32    27    18    1
    33    27    21    1
@<TRIPOS>SUBSTRUCTURE
     1 RES1        1 GROUP             0 ****  ****    0  
@<TRIPOS>MOLECULE
ligand_70
    31    33     1     0     0
SMALL
NO_CHARGES
****
Generated from the CSD

@<TRIPOS>ATOM
     1 C1      14.8299   9.0204   9.2917   C.3       1 RES1   0.0000
     2 C2      14.6325   9.3083   7.7974   C.3       1 RES1   0.0000
     3 C3      13.8486  10.6128   7.6921   C.3       1 RES1   0.0000
     4 C4      13.8815   8.1437   7.2229   C.3       1 RES1   0.0000
     5 C5      16.0044   9.3863   7.0653   C.3       1 RES1   0.0000
     6 O6      16.7250   8.1104   7.1178   O.3       1 RES1   0.0000
     7 C7      15.9922   9.8209   5.5736   C.2       1 RES1   0.0000
     8 O8      16.1824   9.0046   4.6653   O.2       1 RES1   0.0000
     9 N9      15.8614  11.1206   5.4069   N.am      1 RES1   0.0000
    10 S10     15.9319  11.8588   3.9553   S.o2      1 RES1   0.0000
    11 O11     15.7141  13.3127   4.1022   O.2       1 RES1   0.0000
    12 O12     14.9862  11.1900   3.0524   O.2       1 RES1   0.0000
    13 O13     17.2452  11.7748   3.3332   O.3       1 RES1   0.0000
    14 C14     18.3182  12.5134   4.0116   C.3       1 RES1   0.0000
    15 C15     19.3918  12.9985   3.0015   C.3       1 RES1   0.0000
    16 O16     18.7945  13.9096   2.0500   O.3       1 RES1   0.0000
    17 C17     19.4827  15.1307   2.0527   C.3       1 RES1   0.0000
    18 N18     18.5044  16.2290   1.8146   N.pl3     1 RES1   0.0000
    19 C19     18.3596  16.9916   0.6988   C.2       1 RES1   0.0000
    20 N20     17.3569  17.8825   0.8650   N.2       1 RES1   0.0000
    21 C21     16.8579  17.6636   2.0956   C.2       1 RES1   0.0000
    22 C22     15.8203  18.2309   2.8375   C.2       1 RES1   0.0000
    23 N23     15.0827  19.2371   2.3247   N.pl3     1 RES1   0.0000
    24 N24     15.6178  17.7771   4.0924   N.2       1 RES1   0.0000
    25 C25     16.3086  16.7727   4.6224   C.2       1 RES1   0.0000
    26 N26     17.3026  16.1923   3.9478   N.2       1 RES1   0.0000
    27 C27     17.5809  16.6166   2.6895   C.2       1 RES1   0.0000
    28 C28     20.1809  15.2103   3.4042   C.3       1 RES1   0.0000
    29 O29     21.3229  16.1007   3.2914   O.3       1 RES1   0.0000
    30 C30     20.5617  13.7583   3.6214   C.3       1 RES1   0.0000
    31 O31     21.7472  13.4493   2.9095   O.3       1 RES1   0.0000
@<TRIPOS>BOND
     1     1     2    1
     2     2     3    1
     3     2     4    1
     4     2     5    1
     5     5     6    1
     6     5     7    1
     7     7     8    2
     8     7     9   am
     9     9    10    1
    10    10    11    2
    11    10    12    2
    12    10    13    1
    13    13    14    1
    14    15    14    1
    15    15    16    1
    16    16    17    1
    17    17    18    1
    18    18    19    1
    19    19    20    2
    20    20    21    1
    21    21    22    2
    22    22    23    1
    23    22    24    1
    24    24    25    2
    25    25    26    1
    26    26    27    2
    27    17    28    1
    28    28    29    1
    29    28    30    1
    30    30    31    1
    31    30    15    1
    32    27    18    1
    33    27    21    1
@<TRIPOS>SUBSTRUCTURE
     1 RES1        1 GROUP             0 ****  ****    0  
@<TRIPOS>MOLECULE
ligand_71
    31    33     1     0     0
SMALL
NO_CHARGES
****
Generated from the CSD

@<TRIPOS>ATOM
     1 C1      14.7241   8.7315   9.1044   C.3       1 RES1   0.0000
     2 C2      14.5420   9.1160   7.6300   C.3       1 RES1   0.0000
     3 C3      13.7963  10.4466   7.6027   C.3       1 RES1   0.0000
     4 C4      13.7606   8.0110   6.9830   C.3       1 RES1   0.0000
     5 C5      15.9190   9.1990   6.9080   C.3       1 RES1   0.0000
     6 O6      16.6024   7.9019   6.8842   O.3       1 RES1   0.0000
     7 C7      15.9262   9.7244   5.4458   C.2       1 RES1   0.0000
     8 O8      16.0971   8.9601   4.4896   O.2       1 RES1   0.0000
     9 N9      15.8336  11.0351   5.3588   N.am      1 RES1   0.0000
    10 S10     15.9320  11.8585   3.9555   S.o2      1 RES1   0.0000
    11 O11     15.7553  13.3064   4.1908   O.2       1 RES1   0.0000
    12 O12     14.9716  11.2740   3.0106   O.2       1 RES1   0.0000
    13 O13     17.2452  11.7748   3.3332   O.3       1 RES1   0.0000
    14 C14     18.3182  12.5134   4.0116   C.3       1 RES1   0.0000
    15 C15     19.6941  11.8286   3.7969   C.3       1 RES1   0.0000
    16 O16     20.0218  11.8160   2.3882   O.3       1 RES1   0.0000
    17 C17     21.2616  12.4340   2.1748   C.3       1 RES1   0.0000
    18 N18     21.2161  13.1554   0.8719   N.pl3     1 RES1   0.0000
    19 C19     21.8480  12.8291  -0.2863   C.2       1 RES1   0.0000
    20 N20     21.5548  13.7286  -1.2516   N.2       1 RES1   0.0000
    21 C21     20.7158  14.6207  -0.6935   C.2       1 RES1   0.0000
    22 C22     20.0530  15.7560  -1.1636   C.2       1 RES1   0.0000
    23 N23     20.2116  16.1619  -2.4400   N.pl3     1 RES1   0.0000
    24 N24     19.2978  16.4550  -0.2902   N.2       1 RES1   0.0000
    25 C25     19.0997  16.0731   0.9675   C.2       1 RES1   0.0000
    26 N26     19.7034  14.9895   1.4587   N.2       1 RES1   0.0000
    27 C27     20.5004  14.2530   0.6444   C.2       1 RES1   0.0000
    28 C28     21.4830  13.3449   3.3756   C.3       1 RES1   0.0000
    29 O29     22.9086  13.5711   3.5372   O.3       1 RES1   0.0000
    30 C30     20.8695  12.5156   4.4874   C.3       1 RES1   0.0000
    31 O31     21.7881  11.5324   4.9315   O.3       1 RES1   0.0000
@<TRIPOS>BOND
     1     1     2    1
     2     2     3    1
     3     2     4    1
     4     2     5    1
     5     5     6    1
     6     5     7    1
     7     7     8    2
     8     7     9   am
     9     9    10    1
    10    10    11    2
    11    10    12    2
    12    10    13    1
    13    13    14    1
    14    15    14    1
    15    15    16    1
    16    16    17    1
    17    17    18    1
    18    18    19    1
    19    19    20    2
    20    20    21    1
    21    21    22    2
    22    22    23    1
    23    22    24    1
    24    24    25    2
    25    25    26    1
    26    26    27    2
    27    17    28    1
    28    28    29    1
    29    28    30    1
    30    30    31    1
    31    30    15    1
    32    27    18    1
    33    27    21    1
@<TRIPOS>SUBSTRUCTURE
     1 RES1        1 GROUP             0 ****  ****    0  
@<TRIPOS>MOLECULE
ligand_72
    31    33     1     0     0
SMALL
NO_CHARGES
****
Generated from the CSD

@<TRIPOS>ATOM
     1 C1      14.8792   8.7325   9.1601   C.3       1 RES1   0.0000
     2 C2      14.6137   9.1478   7.7069   C.3       1 RES1   0.0000
     3 C3      13.9484  10.5200   7.7474   C.3       1 RES1   0.0000
     4 C4      13.7230   8.0997   7.1081   C.3       1 RES1   0.0000
     5 C5      15.9371   9.1602   6.8868   C.3       1 RES1   0.0000
     6 O6      16.5391   7.8259   6.8009   O.3       1 RES1   0.0000
     7 C7      15.8692   9.7039   5.4329   C.2       1 RES1   0.0000
     8 O8      15.9222   8.9438   4.4598   O.2       1 RES1   0.0000
     9 N9      15.8510  11.0189   5.3649   N.am      1 RES1   0.0000
    10 S10     15.9378  11.8545   3.9681   S.o2      1 RES1   0.0000
    11 O11     15.7650  13.3005   4.2176   O.2       1 RES1   0.0000
    12 O12     14.9682  11.2795   3.0267   O.2       1 RES1   0.0000
    13 O13     17.2452  11.7748   3.3332   O.3       1 RES1   0.0000
    14 C14     17.5953  10.4684   2.7610   C.3       1 RES1   0.0000
    15 C15     18.5524  10.6241   1.5494   C.3       1 RES1   0.0000
    16 O16     19.7902  11.2379   1.9772   O.3       1 RES1   0.0000
    17 C17     20.8776  10.4224   1.6349   C.3       1 RES1   0.0000
    18 N18     21.9149  10.5408   2.6980   N.pl3     1 RES1   0.0000
    19 C19     23.1206  11.1637   2.6233   C.2       1 RES1   0.0000
    20 N20     23.7780  11.0583   3.7994   N.2       1 RES1   0.0000
    21 C21     22.9658  10.3735   4.6255   C.2       1 RES1   0.0000
    22 C22     23.0580   9.9617   5.9563   C.2       1 RES1   0.0000
    23 N23     24.1585  10.2407   6.6846   N.pl3     1 RES1   0.0000
    24 N24     22.0402   9.2367   6.4665   N.2       1 RES1   0.0000
    25 C25     20.9311   8.9625   5.7871   C.2       1 RES1   0.0000
    26 N26     20.7929   9.3441   4.5161   N.2       1 RES1   0.0000
    27 C27     21.7895  10.0532   3.9289   C.2       1 RES1   0.0000
    28 C28     20.3101   9.0170   1.4822   C.3       1 RES1   0.0000
    29 O29     21.1828   8.2499   0.6105   O.3       1 RES1   0.0000
    30 C30     18.9532   9.3152   0.8737   C.3       1 RES1   0.0000
    31 O31     19.0766   9.5301  -0.5214   O.3       1 RES1   0.0000
@<TRIPOS>BOND
     1     1     2    1
     2     2     3    1
     3     2     4    1
     4     2     5    1
     5     5     6    1
     6     5     7    1
     7     7     8    2
     8     7     9   am
     9     9    10    1
    10    10    11    2
    11    10    12    2
    12    10    13    1
    13    13    14    1
    14    15    14    1
    15    15    16    1
    16    16    17    1
    17    17    18    1
    18    18    19    1
    19    19    20    2
    20    20    21    1
    21    21    22    2
    22    22    23    1
    23    22    24    1
    24    24    25    2
    25    25    26    1
    26    26    27    2
    27    17    28    1
    28    28    29    1
    29    28    30    1
    30    30    31    1
    31    30    15    1
    32    27    18    1
    33    27    21    1
@<TRIPOS>SUBSTRUCTURE
     1 RES1        1 GROUP             0 ****  ****    0  
@<TRIPOS>MOLECULE
ligand_73
    31    33     1     0     0
SMALL
NO_CHARGES
****
Generated from the CSD

@<TRIPOS>ATOM
     1 C1      14.5847   8.5387   8.9630   C.3       1 RES1   0.0000
     2 C2      14.4929   8.9418   7.4852   C.3       1 RES1   0.0000
     3 C3      13.6556  10.2153   7.4193   C.3       1 RES1   0.0000
     4 C4      13.8495   7.7979   6.7588   C.3       1 RES1   0.0000
     5 C5      15.9133   9.1403   6.8789   C.3       1 RES1   0.0000
     6 O6      16.6906   7.8971   6.8900   O.3       1 RES1   0.0000
     7 C7      15.9983   9.6967   5.4308   C.2       1 RES1   0.0000
     8 O8      16.3011   8.9680   4.4795   O.2       1 RES1   0.0000
     9 N9      15.8161  10.9988   5.3574   N.am      1 RES1   0.0000
    10 S10     15.9203  11.8510   3.9719   S.o2      1 RES1   0.0000
    11 O11     17.1170  11.4485   3.2046   O.2       1 RES1   0.0000
    12 O12     15.8635  13.2802   4.3051   O.2       1 RES1   0.0000
    13 O13     14.8238  11.5851   3.0521   O.3       1 RES1   0.0000
    14 C14     14.8183  10.2508   2.4386   C.3       1 RES1   0.0000
    15 C15     14.1500  10.2792   1.0383   C.3       1 RES1   0.0000
    16 O16     14.9006  11.1427   0.1535   O.3       1 RES1   0.0000
    17 C17     15.2885  10.4385  -0.9947   C.3       1 RES1   0.0000
    18 N18     16.6269  10.9309  -1.4259   N.pl3     1 RES1   0.0000
    19 C19     16.9276  11.6907  -2.5120   C.2       1 RES1   0.0000
    20 N20     18.2557  11.9364  -2.5610   N.2       1 RES1   0.0000
    21 C21     18.7906  11.3351  -1.4823   C.2       1 RES1   0.0000
    22 C22     20.0846  11.2365  -0.9677   C.2       1 RES1   0.0000
    23 N23     21.1206  11.8213  -1.6033   N.pl3     1 RES1   0.0000
    24 N24     20.2676  10.4990   0.1478   N.2       1 RES1   0.0000
    25 C25     19.2689   9.9280   0.8137   C.2       1 RES1   0.0000
    26 N26     18.0142  10.0036   0.3663   N.2       1 RES1   0.0000
    27 C27     17.7595  10.7063  -0.7660   C.2       1 RES1   0.0000
    28 C28     15.2706   8.9662  -0.6040   C.3       1 RES1   0.0000
    29 O29     15.0958   8.1641  -1.8022   O.3       1 RES1   0.0000
    30 C30     14.0780   8.9277   0.3322   C.3       1 RES1   0.0000
    31 O31     12.8730   8.8534  -0.4095   O.3       1 RES1   0.0000
@<TRIPOS>BOND
     1     1     2    1
     2     2     3    1
     3     2     4    1
     4     2     5    1
     5     5     6    1
     6     5     7    1
     7     7     8    2
     8     7     9   am
     9     9    10    1
    10    10    11    2
    11    10    12    2
    12    10    13    1
    13    13    14    1
    14    15    14    1
    15    15    16    1
    16    16    17    1
    17    17    18    1
    18    18    19    1
    19    19    20    2
    20    20    21    1
    21    21    22    2
    22    22    23    1
    23    22    24    1
    24    24    25    2
    25    25    26    1
    26    26    27    2
    27    17    28    1
    28    28    29    1
    29    28    30    1
    30    30    31    1
    31    30    15    1
    32    27    18    1
    33    27    21    1
@<TRIPOS>SUBSTRUCTURE
     1 RES1        1 GROUP             0 ****  ****    0  
@<TRIPOS>MOLECULE
ligand_74
    31    33     1     0     0
SMALL
NO_CHARGES
****
Generated from the CSD

@<TRIPOS>ATOM
     1 C1      14.7550   8.7374   9.0993   C.3       1 RES1   0.0000
     2 C2      14.5731   9.1781   7.6407   C.3       1 RES1   0.0000
     3 C3      13.8899  10.5418   7.6664   C.3       1 RES1   0.0000
     4 C4      13.7334   8.1321   6.9692   C.3       1 RES1   0.0000
     5 C5      15.9436   9.2212   6.9031   C.3       1 RES1   0.0000
     6 O6      16.5921   7.9063   6.8779   O.3       1 RES1   0.0000
     7 C7      15.9483   9.7395   5.4383   C.2       1 RES1   0.0000
     8 O8      15.4940  10.8519   5.1493   O.2       1 RES1   0.0000
     9 N9      16.3820   8.8508   4.5687   N.am      1 RES1   0.0000
    10 S10     16.3824   9.0875   2.9560   S.o2      1 RES1   0.0000
    11 O11     16.9678   7.9224   2.2613   O.2       1 RES1   0.0000
    12 O12     17.0556  10.3629   2.6782   O.2       1 RES1   0.0000
    13 O13     15.0444   9.1811   2.3905   O.3       1 RES1   0.0000
    14 C14     14.2851   7.9249   2.3432   C.3       1 RES1   0.0000
    15 C15     12.7594   8.1862   2.4542   C.3       1 RES1   0.0000
    16 O16     12.0339   6.9511   2.2538   O.3       1 RES1   0.0000
    17 C17     11.1995   6.6973   3.3510   C.3       1 RES1   0.0000
    18 N18     11.1454   5.2256   3.5777   N.pl3     1 RES1   0.0000
    19 C19     10.1048   4.3824   3.3466   C.2       1 RES1   0.0000
    20 N20     10.4440   3.1159   3.6746   N.2       1 RES1   0.0000
    21 C21     11.7192   3.1656   4.1021   C.2       1 RES1   0.0000
    22 C22     12.6293   2.2088   4.5551   C.2       1 RES1   0.0000
    23 N23     12.2726   0.9107   4.6396   N.pl3     1 RES1   0.0000
    24 N24     13.8482   2.6321   4.9508   N.2       1 RES1   0.0000
    25 C25     14.2428   3.8982   4.8603   C.2       1 RES1   0.0000
    26 N26     13.4118   4.8463   4.4237   N.2       1 RES1   0.0000
    27 C27     12.1598   4.4971   4.0347   C.2       1 RES1   0.0000
    28 C28     11.7960   7.4781   4.5150   C.3       1 RES1   0.0000
    29 O29     10.7507   7.7428   5.4882   O.3       1 RES1   0.0000
    30 C30     12.2951   8.7224   3.8059   C.3       1 RES1   0.0000
    31 O31     11.2293   9.6340   3.6040   O.3       1 RES1   0.0000
@<TRIPOS>BOND
     1     1     2    1
     2     2     3    1
     3     2     4    1
     4     2     5    1
     5     5     6    1
     6     5     7    1
     7     7     8    2
     8     7     9   am
     9     9    10    1
    10    10    11    2
    11    10    12    2
    12    10    13    1
    13    13    14    1
    14    15    14    1
    15    15    16    1
    16    16    17    1
    17    17    18    1
    18    18    19    1
    19    19    20    2
    20    20    21    1
    21    21    22    2
    22    22    23    1
    23    22    24    1
    24    24    25    2
    25    25    26    1
    26    26    27    2
    27    17    28    1
    28    28    29    1
    29    28    30    1
    30    30    31    1
    31    30    15    1
    32    27    18    1
    33    27    21    1
@<TRIPOS>SUBSTRUCTURE
     1 RES1        1 GROUP             0 ****  ****    0  
@<TRIPOS>MOLECULE
ligand_75
    31    33     1     0     0
SMALL
NO_CHARGES
****
Generated from the CSD

@<TRIPOS>ATOM
     1 C1      14.9029   8.5441   9.1296   C.3       1 RES1   0.0000
     2 C2      14.6923   9.0383   7.6922   C.3       1 RES1   0.0000
     3 C3      14.0238  10.4065   7.7820   C.3       1 RES1   0.0000
     4 C4      13.8270   8.0248   7.0035   C.3       1 RES1   0.0000
     5 C5      16.0461   9.0948   6.9251   C.3       1 RES1   0.0000
     6 O6      16.6809   7.7759   6.8393   O.3       1 RES1   0.0000
     7 C7      16.0226   9.6640   5.4795   C.2       1 RES1   0.0000
     8 O8      15.5753  10.7911   5.2402   O.2       1 RES1   0.0000
     9 N9      16.4245   8.8013   4.5694   N.am      1 RES1   0.0000
    10 S10     16.3797   9.0902   2.9658   S.o2      1 RES1   0.0000
    11 O11     15.0490   9.5929   2.5668   O.2       1 RES1   0.0000
    12 O12     16.8042   7.8705   2.2664   O.2       1 RES1   0.0000
    13 O13     17.2817  10.1543   2.5501   O.3       1 RES1   0.0000
    14 C14     18.7147   9.8516   2.6592   C.3       1 RES1   0.0000
    15 C15     19.5339  10.6181   1.5870   C.3       1 RES1   0.0000
    16 O16     20.9481  10.4108   1.8087   O.3       1 RES1   0.0000
    17 C17     21.5469   9.8887   0.6539   C.3       1 RES1   0.0000
    18 N18     22.6255   8.9453   1.0618   N.pl3     1 RES1   0.0000
    19 C19     23.9698   9.1198   0.9624   C.2       1 RES1   0.0000
    20 N20     24.6213   8.0381   1.4443   N.2       1 RES1   0.0000
    21 C21     23.6717   7.1822   1.8649   C.2       1 RES1   0.0000
    22 C22     23.6975   5.9219   2.4648   C.2       1 RES1   0.0000
    23 N23     24.8718   5.3120   2.7262   N.pl3     1 RES1   0.0000
    24 N24     22.5175   5.3195   2.7230   N.2       1 RES1   0.0000
    25 C25     21.3419   5.8986   2.5008   C.2       1 RES1   0.0000
    26 N26     21.2671   7.1064   1.9389   N.2       1 RES1   0.0000
    27 C27     22.4143   7.7600   1.6267   C.2       1 RES1   0.0000
    28 C28     20.4217   9.2330  -0.1364   C.3       1 RES1   0.0000
    29 O29     20.8007   9.1796  -1.5376   O.3       1 RES1   0.0000
    30 C30     19.2743  10.1836   0.1468   C.3       1 RES1   0.0000
    31 O31     19.3525  11.3152  -0.7023   O.3       1 RES1   0.0000
@<TRIPOS>BOND
     1     1     2    1
     2     2     3    1
     3     2     4    1
     4     2     5    1
     5     5     6    1
     6     5     7    1
     7     7     8    2
     8     7     9   am
     9     9    10    1
    10    10    11    2
    11    10    12    2
    12    10    13    1
    13    13    14    1
    14    15    14    1
    15    15    16    1
    16    16    17    1
    17    17    18    1
    18    18    19    1
    19    19    20    2
    20    20    21    1
    21    21    22    2
    22    22    23    1
    23    22    24    1
    24    24    25    2
    25    25    26    1
    26    26    27    2
    27    17    28    1
    28    28    29    1
    29    28    30    1
    30    30    31    1
    31    30    15    1
    32    27    18    1
    33    27    21    1
@<TRIPOS>SUBSTRUCTURE
     1 RES1        1 GROUP             0 ****  ****    0  
@<TRIPOS>MOLECULE
ligand_76
    31    33     1     0     0
SMALL
NO_CHARGES
****
Generated from the CSD

@<TRIPOS>ATOM
     1 C1      14.5730   8.8469   9.0618   C.3       1 RES1   0.0000
     2 C2      14.4808   9.3149   7.6033   C.3       1 RES1   0.0000
     3 C3      13.9249  10.7354   7.6228   C.3       1 RES1   0.0000
     4 C4      13.5714   8.3564   6.8930   C.3       1 RES1   0.0000
     5 C5      15.8732   9.2380   6.9107   C.3       1 RES1   0.0000
     6 O6      16.3984   7.8692   6.8906   O.3       1 RES1   0.0000
     7 C7      15.9741   9.7670   5.4533   C.2       1 RES1   0.0000
     8 O8      15.6351  10.9197   5.1635   O.2       1 RES1   0.0000
     9 N9      16.3513   8.8496   4.5871   N.am      1 RES1   0.0000
    10 S10     16.3743   9.0825   2.9740   S.o2      1 RES1   0.0000
    11 O11     16.9634   7.9129   2.2899   O.2       1 RES1   0.0000
    12 O12     17.0572  10.3540   2.7023   O.2       1 RES1   0.0000
    13 O13     15.0444   9.1811   2.3905   O.3       1 RES1   0.0000
    14 C14     14.2945  10.4001   2.7202   C.3       1 RES1   0.0000
    15 C15     13.3131  10.7814   1.5802   C.3       1 RES1   0.0000
    16 O16     12.4923  11.8988   1.9922   O.3       1 RES1   0.0000
    17 C17     12.6133  12.9516   1.0749   C.3       1 RES1   0.0000
    18 N18     12.5345  14.2412   1.8170   N.pl3     1 RES1   0.0000
    19 C19     11.5190  15.1446   1.8167   C.2       1 RES1   0.0000
    20 N20     11.8185  16.1890   2.6206   N.2       1 RES1   0.0000
    21 C21     13.0311  15.9277   3.1425   C.2       1 RES1   0.0000
    22 C22     13.8661  16.5955   4.0402   C.2       1 RES1   0.0000
    23 N23     13.4963  17.7808   4.5671   N.pl3     1 RES1   0.0000
    24 N24     15.0664  16.0443   4.3181   N.2       1 RES1   0.0000
    25 C25     15.4550  14.8679   3.8366   C.2       1 RES1   0.0000
    26 N26     14.6867  14.1879   2.9837   N.2       1 RES1   0.0000
    27 C27     13.4773  14.6959   2.6374   C.2       1 RES1   0.0000
    28 C28     13.9420  12.7309   0.3633   C.3       1 RES1   0.0000
    29 O29     13.8960  13.3864  -0.9321   O.3       1 RES1   0.0000
    30 C30     13.9785  11.2171   0.2772   C.3       1 RES1   0.0000
    31 O31     13.1984  10.7680  -0.8170   O.3       1 RES1   0.0000
@<TRIPOS>BOND
     1     1     2    1
     2     2     3    1
     3     2     4    1
     4     2     5    1
     5     5     6    1
     6     5     7    1
     7     7     8    2
     8     7     9   am
     9     9    10    1
    10    10    11    2
    11    10    12    2
    12    10    13    1
    13    13    14    1
    14    15    14    1
    15    15    16    1
    16    16    17    1
    17    17    18    1
    18    18    19    1
    19    19    20    2
    20    20    21    1
    21    21    22    2
    22    22    23    1
    23    22    24    1
    24    24    25    2
    25    25    26    1
    26    26    27    2
    27    17    28    1
    28    28    29    1
    29    28    30    1
    30    30    31    1
    31    30    15    1
    32    27    18    1
    33    27    21    1
@<TRIPOS>SUBSTRUCTURE
     1 RES1        1 GROUP             0 ****  ****    0  
@<TRIPOS>MOLECULE
ligand_77
    31    33     1     0     0
SMALL
NO_CHARGES
****
Generated from the CSD

@<TRIPOS>ATOM
     1 C1      14.7241   8.7315   9.1044   C.3       1 RES1   0.0000
     2 C2      14.5420   9.1160   7.6300   C.3       1 RES1   0.0000
     3 C3      13.7963  10.4466   7.6027   C.3       1 RES1   0.0000
     4 C4      13.7606   8.0110   6.9830   C.3       1 RES1   0.0000
     5 C5      15.9190   9.1990   6.9080   C.3       1 RES1   0.0000
     6 O6      16.6024   7.9019   6.8842   O.3       1 RES1   0.0000
     7 C7      15.9262   9.7244   5.4458   C.2       1 RES1   0.0000
     8 O8      16.0971   8.9601   4.4896   O.2       1 RES1   0.0000
     9 N9      15.8336  11.0351   5.3588   N.am      1 RES1   0.0000
    10 S10     15.9320  11.8585   3.9555   S.o2      1 RES1   0.0000
    11 O11     15.7553  13.3064   4.1908   O.2       1 RES1   0.0000
    12 O12     14.9716  11.2740   3.0106   O.2       1 RES1   0.0000
    13 O13     17.2452  11.7748   3.3332   O.3       1 RES1   0.0000
    14 C14     17.3943  12.4984   2.0639   C.3       1 RES1   0.0000
    15 C15     18.8285  12.3408   1.4926   C.3       1 RES1   0.0000
    16 O16     19.0149  10.9203   1.2401   O.3       1 RES1   0.0000
    17 C17     19.7134  10.7213   0.0062   C.3       1 RES1   0.0000
    18 N18     19.0401   9.5850  -0.6835   N.pl3     1 RES1   0.0000
    19 C19     19.4785   8.3044  -0.8064   C.2       1 RES1   0.0000
    20 N20     18.5836   7.5655  -1.4991   N.2       1 RES1   0.0000
    21 C21     17.5647   8.3916  -1.8001   C.2       1 RES1   0.0000
    22 C22     16.3518   8.2322  -2.4727   C.2       1 RES1   0.0000
    23 N23     16.0096   7.0358  -2.9930   N.pl3     1 RES1   0.0000
    24 N24     15.5664   9.3189  -2.6277   N.2       1 RES1   0.0000
    25 C25     15.8594  10.5074  -2.1094   C.2       1 RES1   0.0000
    26 N26     17.0020  10.7055  -1.4497   N.2       1 RES1   0.0000
    27 C27     17.8539   9.6632  -1.2795   C.2       1 RES1   0.0000
    28 C28     19.7357  12.0306  -0.7177   C.3       1 RES1   0.0000
    29 O29     21.1007  12.4863  -0.9147   O.3       1 RES1   0.0000
    30 C30     19.0250  13.0433   0.1761   C.3       1 RES1   0.0000
    31 O31     19.7813  14.2134   0.4344   O.3       1 RES1   0.0000
@<TRIPOS>BOND
     1     1     2    1
     2     2     3    1
     3     2     4    1
     4     2     5    1
     5     5     6    1
     6     5     7    1
     7     7     8    2
     8     7     9   am
     9     9    10    1
    10    10    11    2
    11    10    12    2
    12    10    13    1
    13    13    14    1
    14    15    14    1
    15    15    16    1
    16    16    17    1
    17    17    18    1
    18    18    19    1
    19    19    20    2
    20    20    21    1
    21    21    22    2
    22    22    23    1
    23    22    24    1
    24    24    25    2
    25    25    26    1
    26    26    27    2
    27    17    28    1
    28    28    29    1
    29    28    30    1
    30    30    31    1
    31    30    15    1
    32    27    18    1
    33    27    21    1
@<TRIPOS>SUBSTRUCTURE
     1 RES1        1 GROUP             0 ****  ****    0  
@<TRIPOS>MOLECULE
ligand_78
    31    33     1     0     0
SMALL
NO_CHARGES
****
Generated from the CSD

@<TRIPOS>ATOM
     1 C1      14.7241   8.7315   9.1044   C.3       1 RES1   0.0000
     2 C2      14.5420   9.1160   7.6300   C.3       1 RES1   0.0000
     3 C3      13.7963  10.4466   7.6027   C.3       1 RES1   0.0000
     4 C4      13.7606   8.0110   6.9830   C.3       1 RES1   0.0000
     5 C5      15.9190   9.1990   6.9080   C.3       1 RES1   0.0000
     6 O6      16.6024   7.9019   6.8842   O.3       1 RES1   0.0000
     7 C7      15.9262   9.7244   5.4458   C.2       1 RES1   0.0000
     8 O8      16.0971   8.9601   4.4896   O.2       1 RES1   0.0000
     9 N9      15.8336  11.0351   5.3588   N.am      1 RES1   0.0000
    10 S10     15.9320  11.8585   3.9555   S.o2      1 RES1   0.0000
    11 O11     17.1170  11.4291   3.1847   O.2       1 RES1   0.0000
    12 O12     15.8923  13.2945   4.2607   O.2       1 RES1   0.0000
    13 O13     14.8238  11.5851   3.0521   O.3       1 RES1   0.0000
    14 C14     14.8584  12.2997   1.7696   C.3       1 RES1   0.0000
    15 C15     13.6336  11.9338   0.8895   C.3       1 RES1   0.0000
    16 O16     12.4560  12.3641   1.6274   O.3       1 RES1   0.0000
    17 C17     11.4993  12.9523   0.7393   C.3       1 RES1   0.0000
    18 N18     10.9618  14.1566   1.4326   N.pl3     1 RES1   0.0000
    19 C19      9.7511  14.3046   2.0324   C.2       1 RES1   0.0000
    20 N20      9.6341  15.5453   2.5557   N.2       1 RES1   0.0000
    21 C21     10.7934  16.1763   2.2930   C.2       1 RES1   0.0000
    22 C22     11.2934  17.4478   2.5802   C.2       1 RES1   0.0000
    23 N23     10.5437  18.3413   3.2576   N.pl3     1 RES1   0.0000
    24 N24     12.5199  17.7655   2.1149   N.2       1 RES1   0.0000
    25 C25     13.2961  16.9044   1.4645   C.2       1 RES1   0.0000
    26 N26     12.8658  15.6749   1.1762   N.2       1 RES1   0.0000
    27 C27     11.6303  15.2956   1.5890   C.2       1 RES1   0.0000
    28 C28     12.1798  13.1786  -0.5738   C.3       1 RES1   0.0000
    29 O29     11.5326  12.4159  -1.6269   O.3       1 RES1   0.0000
    30 C30     13.6085  12.6620  -0.4275   C.3       1 RES1   0.0000
    31 O31     13.9897  11.7330  -1.4271   O.3       1 RES1   0.0000
@<TRIPOS>BOND
     1     1     2    1
     2     2     3    1
     3     2     4    1
     4     2     5    1
     5     5     6    1
     6     5     7    1
     7     7     8    2
     8     7     9   am
     9     9    10    1
    10    10    11    2
    11    10    12    2
    12    10    13    1
    13    13    14    1
    14    15    14    1
    15    15    16    1
    16    16    17    1
    17    17    18    1
    18    18    19    1
    19    19    20    2
    20    20    21    1
    21    21    22    2
    22    22    23    1
    23    22    24    1
    24    24    25    2
    25    25    26    1
    26    26    27    2
    27    17    28    1
    28    28    29    1
    29    28    30    1
    30    30    31    1
    31    30    15    1
    32    27    18    1
    33    27    21    1
@<TRIPOS>SUBSTRUCTURE
     1 RES1        1 GROUP             0 ****  ****    0  
@<TRIPOS>MOLECULE
ligand_79
    31    33     1     0     0
SMALL
NO_CHARGES
****
Generated from the CSD

@<TRIPOS>ATOM
     1 C1      14.6923   8.6853   9.0830   C.3       1 RES1   0.0000
     2 C2      14.5266   9.1387   7.6264   C.3       1 RES1   0.0000
     3 C3      13.8374  10.4994   7.6562   C.3       1 RES1   0.0000
     4 C4      13.6996   8.0956   6.9349   C.3       1 RES1   0.0000
     5 C5      15.9059   9.1942   6.9061   C.3       1 RES1   0.0000
     6 O6      16.5609   7.8826   6.8785   O.3       1 RES1   0.0000
     7 C7      15.9262   9.7244   5.4458   C.2       1 RES1   0.0000
     8 O8      15.4729  10.8382   5.1605   O.2       1 RES1   0.0000
     9 N9      16.3715   8.8435   4.5740   N.am      1 RES1   0.0000
    10 S10     16.3797   9.0889   2.9626   S.o2      1 RES1   0.0000
    11 O11     16.9727   7.9295   2.2649   O.2       1 RES1   0.0000
    12 O12     17.0501  10.3680   2.6952   O.2       1 RES1   0.0000
    13 O13     15.0444   9.1811   2.3905   O.3       1 RES1   0.0000
    14 C14     14.9885   9.4023   0.9397   C.3       1 RES1   0.0000
    15 C15     13.5215   9.4840   0.4401   C.3       1 RES1   0.0000
    16 O16     13.5878   9.8457  -0.9674   O.3       1 RES1   0.0000
    17 C17     12.6174   9.1071  -1.7176   C.3       1 RES1   0.0000
    18 N18     13.2901   8.6807  -2.9769   N.pl3     1 RES1   0.0000
    19 C19     13.1298   9.1943  -4.2250   C.2       1 RES1   0.0000
    20 N20     13.9195   8.5422  -5.1069   N.2       1 RES1   0.0000
    21 C21     14.5943   7.6186  -4.3977   C.2       1 RES1   0.0000
    22 C22     15.5574   6.6605  -4.7195   C.2       1 RES1   0.0000
    23 N23     15.9859   6.5207  -5.9908   N.pl3     1 RES1   0.0000
    24 N24     16.0007   5.8527  -3.7333   N.2       1 RES1   0.0000
    25 C25     15.6190   5.9759  -2.4660   C.2       1 RES1   0.0000
    26 N26     14.7089   6.8837  -2.1087   N.2       1 RES1   0.0000
    27 C27     14.1985   7.7124  -3.0538   C.2       1 RES1   0.0000
    28 C28     12.0926   8.0205  -0.8330   C.3       1 RES1   0.0000
    29 O29     10.6651   8.1783  -0.6159   O.3       1 RES1   0.0000
    30 C30     12.7935   8.1687   0.5146   C.3       1 RES1   0.0000
    31 O31     11.9085   8.2417   1.6187   O.3       1 RES1   0.0000
@<TRIPOS>BOND
     1     1     2    1
     2     2     3    1
     3     2     4    1
     4     2     5    1
     5     5     6    1
     6     5     7    1
     7     7     8    2
     8     7     9   am
     9     9    10    1
    10    10    11    2
    11    10    12    2
    12    10    13    1
    13    13    14    1
    14    15    14    1
    15    15    16    1
    16    16    17    1
    17    17    18    1
    18    18    19    1
    19    19    20    2
    20    20    21    1
    21    21    22    2
    22    22    23    1
    23    22    24    1
    24    24    25    2
    25    25    26    1
    26    26    27    2
    27    17    28    1
    28    28    29    1
    29    28    30    1
    30    30    31    1
    31    30    15    1
    32    27    18    1
    33    27    21    1
@<TRIPOS>SUBSTRUCTURE
     1 RES1        1 GROUP             0 ****  ****    0  
@<TRIPOS>MOLECULE
ligand_80
    31    33     1     0     0
SMALL
NO_CHARGES
****
Generated from the CSD

@<TRIPOS>ATOM
     1 C1      14.6907   8.6875   9.0831   C.3       1 RES1   0.0000
     2 C2      14.5256   9.1407   7.6263   C.3       1 RES1   0.0000
     3 C3      13.8385  10.5024   7.6557   C.3       1 RES1   0.0000
     4 C4      13.6970   8.0986   6.9352   C.3       1 RES1   0.0000
     5 C5      15.9050   9.1939   6.9060   C.3       1 RES1   0.0000
     6 O6      16.5577   7.8812   6.8780   O.3       1 RES1   0.0000
     7 C7      15.9262   9.7244   5.4458   C.2       1 RES1   0.0000
     8 O8      15.4736  10.8385   5.1606   O.2       1 RES1   0.0000
     9 N9      16.3715   8.8435   4.5740   N.am      1 RES1   0.0000
    10 S10     16.3797   9.0889   2.9626   S.o2      1 RES1   0.0000
    11 O11     15.0574   9.5620   2.5037   O.2       1 RES1   0.0000
    12 O12     16.8448   7.8572   2.3118   O.2       1 RES1   0.0000
    13 O13     17.2817  10.1543   2.5501   O.3       1 RES1   0.0000
    14 C14     17.3316  10.4215   1.1069   C.3       1 RES1   0.0000
    15 C15     18.3215  11.5719   0.7825   C.3       1 RES1   0.0000
    16 O16     18.3976  11.6498  -0.6682   O.3       1 RES1   0.0000
    17 C17     18.4256  13.0169  -1.0926   C.3       1 RES1   0.0000
    18 N18     17.5313  13.1103  -2.2807   N.pl3     1 RES1   0.0000
    19 C19     17.8873  13.2184  -3.5879   C.2       1 RES1   0.0000
    20 N20     16.7876  13.2733  -4.3718   N.2       1 RES1   0.0000
    21 C21     15.7299  13.1826  -3.5446   C.2       1 RES1   0.0000
    22 C22     14.3471  13.1623  -3.7355   C.2       1 RES1   0.0000
    23 N23     13.8257  13.2569  -4.9759   N.pl3     1 RES1   0.0000
    24 N24     13.5581  13.0984  -2.6422   N.2       1 RES1   0.0000
    25 C25     14.0354  12.9810  -1.4072   C.2       1 RES1   0.0000
    26 N26     15.3494  12.9853  -1.1762   N.2       1 RES1   0.0000
    27 C27     16.2030  13.0748  -2.2270   C.2       1 RES1   0.0000
    28 C28     18.0687  13.8647   0.0874   C.3       1 RES1   0.0000
    29 O29     19.1624  14.7573   0.4293   O.3       1 RES1   0.0000
    30 C30     17.8484  12.9173   1.2635   C.3       1 RES1   0.0000
    31 O31     18.6087  13.2419   2.4143   O.3       1 RES1   0.0000
@<TRIPOS>BOND
     1     1     2    1
     2     2     3    1
     3     2     4    1
     4     2     5    1
     5     5     6    1
     6     5     7    1
     7     7     8    2
     8     7     9   am
     9     9    10    1
    10    10    11    2
    11    10    12    2
    12    10    13    1
    13    13    14    1
    14    15    14    1
    15    15    16    1
    16    16    17    1
    17    17    18    1
    18    18    19    1
    19    19    20    2
    20    20    21    1
    21    21    22    2
    22    22    23    1
    23    22    24    1
    24    24    25    2
    25    25    26    1
    26    26    27    2
    27    17    28    1
    28    28    29    1
    29    28    30    1
    30    30    31    1
    31    30    15    1
    32    27    18    1
    33    27    21    1
@<TRIPOS>SUBSTRUCTURE
     1 RES1        1 GROUP             0 ****  ****    0  
@<TRIPOS>MOLECULE
ligand_81
    31    33     1     0     0
SMALL
NO_CHARGES
****
Generated from the CSD

@<TRIPOS>ATOM
     1 C1      14.6907   8.6875   9.0831   C.3       1 RES1   0.0000
     2 C2      14.5256   9.1407   7.6263   C.3       1 RES1   0.0000
     3 C3      13.8385  10.5024   7.6557   C.3       1 RES1   0.0000
     4 C4      13.6970   8.0986   6.9352   C.3       1 RES1   0.0000
     5 C5      15.9050   9.1939   6.9060   C.3       1 RES1   0.0000
     6 O6      16.5577   7.8812   6.8780   O.3       1 RES1   0.0000
     7 C7      15.9262   9.7244   5.4458   C.2       1 RES1   0.0000
     8 O8      15.4736  10.8385   5.1606   O.2       1 RES1   0.0000
     9 N9      16.3715   8.8435   4.5740   N.am      1 RES1   0.0000
    10 S10     16.3797   9.0889   2.9626   S.o2      1 RES1   0.0000
    11 O11     17.2853  10.2026   2.6127   O.2       1 RES1   0.0000
    12 O12     14.9919   9.2704   2.5176   O.2       1 RES1   0.0000
    13 O13     16.9223   7.9642   2.2147   O.3       1 RES1   0.0000
    14 C14     18.3711   7.7582   2.3387   C.3       1 RES1   0.0000
    15 C15     18.7399   6.2580   2.1910   C.3       1 RES1   0.0000
    16 O16     18.1589   5.5786   3.3386   O.3       1 RES1   0.0000
    17 C17     17.5996   4.3216   2.9425   C.3       1 RES1   0.0000
    18 N18     16.2980   4.1930   3.6563   N.pl3     1 RES1   0.0000
    19 C19     16.0088   3.4154   4.7329   C.2       1 RES1   0.0000
    20 N20     14.7168   3.5763   5.0956   N.2       1 RES1   0.0000
    21 C21     14.1953   4.4782   4.2438   C.2       1 RES1   0.0000
    22 C22     12.9382   5.0695   4.1057   C.2       1 RES1   0.0000
    23 N23     11.9324   4.7431   4.9430   N.pl3     1 RES1   0.0000
    24 N24     12.7527   5.9305   3.0830   N.2       1 RES1   0.0000
    25 C25     13.7253   6.2935   2.2528   C.2       1 RES1   0.0000
    26 N26     14.9456   5.7633   2.3520   N.2       1 RES1   0.0000
    27 C27     15.1970   4.8688   3.3406   C.2       1 RES1   0.0000
    28 C28     17.5530   4.2979   1.4472   C.3       1 RES1   0.0000
    29 O29     18.3721   3.2186   0.9239   O.3       1 RES1   0.0000
    30 C30     18.1478   5.6178   0.9642   C.3       1 RES1   0.0000
    31 O31     19.1963   5.4664   0.0232   O.3       1 RES1   0.0000
@<TRIPOS>BOND
     1     1     2    1
     2     2     3    1
     3     2     4    1
     4     2     5    1
     5     5     6    1
     6     5     7    1
     7     7     8    2
     8     7     9   am
     9     9    10    1
    10    10    11    2
    11    10    12    2
    12    10    13    1
    13    13    14    1
    14    15    14    1
    15    15    16    1
    16    16    17    1
    17    17    18    1
    18    18    19    1
    19    19    20    2
    20    20    21    1
    21    21    22    2
    22    22    23    1
    23    22    24    1
    24    24    25    2
    25    25    26    1
    26    26    27    2
    27    17    28    1
    28    28    29    1
    29    28    30    1
    30    30    31    1
    31    30    15    1
    32    27    18    1
    33    27    21    1
@<TRIPOS>SUBSTRUCTURE
     1 RES1        1 GROUP             0 ****  ****    0  
@<TRIPOS>MOLECULE
ligand_82
    31    33     1     0     0
SMALL
NO_CHARGES
****
Generated from the CSD

@<TRIPOS>ATOM
     1 C1      14.8271   8.7046   9.1346   C.3       1 RES1   0.0000
     2 C2      14.6249   9.0844   7.6616   C.3       1 RES1   0.0000
     3 C3      13.8593  10.4037   7.6400   C.3       1 RES1   0.0000
     4 C4      13.8538   7.9670   7.0236   C.3       1 RES1   0.0000
     5 C5      15.9934   9.1869   6.9260   C.3       1 RES1   0.0000
     6 O6      16.6964   7.9004   6.8982   O.3       1 RES1   0.0000
     7 C7      15.9784   9.7090   5.4628   C.2       1 RES1   0.0000
     8 O8      16.1517   8.9454   4.5065   O.2       1 RES1   0.0000
     9 N9      15.8648  11.0180   5.3740   N.am      1 RES1   0.0000
    10 S10     15.9370  11.8397   3.9681   S.o2      1 RES1   0.0000
    11 O11     15.7404  13.2852   4.2021   O.2       1 RES1   0.0000
    12 O12     14.9766  11.2385   3.0337   O.2       1 RES1   0.0000
    13 O13     17.2452  11.7748   3.3332   O.3       1 RES1   0.0000
    14 C14     18.3182  12.5134   4.0116   C.3       1 RES1   0.0000
    15 C15     19.6690  12.3544   3.2643   C.3       1 RES1   0.0000
    16 O16     20.0388  10.9523   3.3807   O.3       1 RES1   0.0000
    17 C17     20.5865  10.4776   2.1460   C.3       1 RES1   0.0000
    18 N18     20.0119   9.1214   1.9210   N.pl3     1 RES1   0.0000
    19 C19     18.8259   8.8026   1.3386   C.2       1 RES1   0.0000
    20 N20     18.6598   7.4616   1.3135   N.2       1 RES1   0.0000
    21 C21     19.7640   6.9342   1.8737   C.2       1 RES1   0.0000
    22 C22     20.1992   5.6309   2.1212   C.2       1 RES1   0.0000
    23 N23     19.4312   4.5761   1.7793   N.pl3     1 RES1   0.0000
    24 N24     21.3794   5.4675   2.7554   N.2       1 RES1   0.0000
    25 C25     22.1732   6.4810   3.0863   C.2       1 RES1   0.0000
    26 N26     21.8047   7.7433   2.8606   N.2       1 RES1   0.0000
    27 C27     20.6167   7.9839   2.2510   C.2       1 RES1   0.0000
    28 C28     20.3063  11.5099   1.0998   C.3       1 RES1   0.0000
    29 O29     21.5442  12.0357   0.5512   O.3       1 RES1   0.0000
    30 C30     19.5738  12.6556   1.7927   C.3       1 RES1   0.0000
    31 O31     20.1661  13.9261   1.5860   O.3       1 RES1   0.0000
@<TRIPOS>BOND
     1     1     2    1
     2     2     3    1
     3     2     4    1
     4     2     5    1
     5     5     6    1
     6     5     7    1
     7     7     8    2
     8     7     9   am
     9     9    10    1
    10    10    11    2
    11    10    12    2
    12    10    13    1
    13    13    14    1
    14    15    14    1
    15    15    16    1
    16    16    17    1
    17    17    18    1
    18    18    19    1
    19    19    20    2
    20    20    21    1
    21    21    22    2
    22    22    23    1
    23    22    24    1
    24    24    25    2
    25    25    26    1
    26    26    27    2
    27    17    28    1
    28    28    29    1
    29    28    30    1
    30    30    31    1
    31    30    15    1
    32    27    18    1
    33    27    21    1
@<TRIPOS>SUBSTRUCTURE
     1 RES1        1 GROUP             0 ****  ****    0  
@<TRIPOS>MOLECULE
ligand_83
    31    33     1     0     0
SMALL
NO_CHARGES
****
Generated from the CSD

@<TRIPOS>ATOM
     1 C1      14.7132   8.7286   9.1029   C.3       1 RES1   0.0000
     2 C2      14.5332   9.1143   7.6285   C.3       1 RES1   0.0000
     3 C3      13.7898  10.4461   7.6012   C.3       1 RES1   0.0000
     4 C4      13.7507   8.0109   6.9800   C.3       1 RES1   0.0000
     5 C5      15.9111   9.1954   6.9080   C.3       1 RES1   0.0000
     6 O6      16.5925   7.8973   6.8843   O.3       1 RES1   0.0000
     7 C7      15.9207   9.7215   5.4461   C.2       1 RES1   0.0000
     8 O8      16.0914   8.9574   4.4897   O.2       1 RES1   0.0000
     9 N9      15.8303  11.0324   5.3596   N.am      1 RES1   0.0000
    10 S10     15.9315  11.8563   3.9568   S.o2      1 RES1   0.0000
    11 O11     17.1167  11.4254   3.1871   O.2       1 RES1   0.0000
    12 O12     15.8937  13.2923   4.2627   O.2       1 RES1   0.0000
    13 O13     14.8238  11.5851   3.0521   O.3       1 RES1   0.0000
    14 C14     13.5242  12.1378   3.4551   C.3       1 RES1   0.0000
    15 C15     12.4200  11.7865   2.4228   C.3       1 RES1   0.0000
    16 O16     12.7682  12.4871   1.1964   O.3       1 RES1   0.0000
    17 C17     12.5228  11.6524   0.0592   C.3       1 RES1   0.0000
    18 N18     13.6793  11.8394  -0.8613   N.pl3     1 RES1   0.0000
    19 C19     14.8761  11.1953  -0.8410   C.2       1 RES1   0.0000
    20 N20     15.6659  11.6388  -1.8441   N.2       1 RES1   0.0000
    21 C21     14.9475  12.5616  -2.5100   C.2       1 RES1   0.0000
    22 C22     15.1901  13.3571  -3.6313   C.2       1 RES1   0.0000
    23 N23     16.3722  13.2877  -4.2771   N.pl3     1 RES1   0.0000
    24 N24     14.2298  14.2266  -4.0103   N.2       1 RES1   0.0000
    25 C25     13.0449  14.3065  -3.4131   C.2       1 RES1   0.0000
    26 N26     12.7633  13.5591  -2.3445   N.2       1 RES1   0.0000
    27 C27     13.6932  12.6817  -1.8904   C.2       1 RES1   0.0000
    28 C28     12.2788  10.2641   0.5609   C.3       1 RES1   0.0000
    29 O29     10.9437   9.8159   0.2056   O.3       1 RES1   0.0000
    30 C30     12.3672  10.3211   2.0835   C.3       1 RES1   0.0000
    31 O31     11.2387   9.7780   2.7463   O.3       1 RES1   0.0000
@<TRIPOS>BOND
     1     1     2    1
     2     2     3    1
     3     2     4    1
     4     2     5    1
     5     5     6    1
     6     5     7    1
     7     7     8    2
     8     7     9   am
     9     9    10    1
    10    10    11    2
    11    10    12    2
    12    10    13    1
    13    13    14    1
    14    15    14    1
    15    15    16    1
    16    16    17    1
    17    17    18    1
    18    18    19    1
    19    19    20    2
    20    20    21    1
    21    21    22    2
    22    22    23    1
    23    22    24    1
    24    24    25    2
    25    25    26    1
    26    26    27    2
    27    17    28    1
    28    28    29    1
    29    28    30    1
    30    30    31    1
    31    30    15    1
    32    27    18    1
    33    27    21    1
@<TRIPOS>SUBSTRUCTURE
     1 RES1        1 GROUP             0 ****  ****    0  
@<TRIPOS>MOLECULE
ligand_84
    31    33     1     0     0
SMALL
NO_CHARGES
****
Generated from the CSD

@<TRIPOS>ATOM
     1 C1      14.6307   8.7617   9.0544   C.3       1 RES1   0.0000
     2 C2      14.3750   9.2259   7.6143   C.3       1 RES1   0.0000
     3 C3      13.8291  10.6483   7.6922   C.3       1 RES1   0.0000
     4 C4      13.3880   8.2684   7.0148   C.3       1 RES1   0.0000
     5 C5      15.6796   9.1424   6.7685   C.3       1 RES1   0.0000
     6 O6      16.1652   7.7642   6.6480   O.3       1 RES1   0.0000
     7 C7      15.6312   9.7172   5.3258   C.2       1 RES1   0.0000
     8 O8      15.5959   8.9737   4.3391   O.2       1 RES1   0.0000
     9 N9      15.7299  11.0296   5.2803   N.am      1 RES1   0.0000
    10 S10     15.9080  11.8767   3.8992   S.o2      1 RES1   0.0000
    11 O11     15.7530  13.3236   4.1551   O.2       1 RES1   0.0000
    12 O12     14.9776  11.3322   2.9019   O.2       1 RES1   0.0000
    13 O13     17.2452  11.7748   3.3332   O.3       1 RES1   0.0000
    14 C14     17.5953  10.4684   2.7610   C.3       1 RES1   0.0000
    15 C15     19.0114  10.4942   2.1267   C.3       1 RES1   0.0000
    16 O16     18.9347  11.3996   0.9906   O.3       1 RES1   0.0000
    17 C17     20.1145  12.2075   0.9172   C.3       1 RES1   0.0000
    18 N18     19.6629  13.5878   0.5841   N.pl3     1 RES1   0.0000
    19 C19     19.2393  14.5571   1.4376   C.2       1 RES1   0.0000
    20 N20     18.9181  15.6779   0.7540   N.2       1 RES1   0.0000
    21 C21     19.1588  15.4109  -0.5428   C.2       1 RES1   0.0000
    22 C22     19.0477  16.1486  -1.7228   C.2       1 RES1   0.0000
    23 N23     18.6032  17.4218  -1.6949   N.pl3     1 RES1   0.0000
    24 N24     19.3475  15.5320  -2.8854   N.2       1 RES1   0.0000
    25 C25     19.8101  14.2875  -2.9499   C.2       1 RES1   0.0000
    26 N26     19.9431  13.5470  -1.8482   N.2       1 RES1   0.0000
    27 C27     19.6333  14.0933  -0.6456   C.2       1 RES1   0.0000
    28 C28     20.8620  12.0349   2.2018   C.3       1 RES1   0.0000
    29 O29     22.1754  11.4638   1.9601   O.3       1 RES1   0.0000
    30 C30     20.0661  11.0452   3.0482   C.3       1 RES1   0.0000
    31 O31     20.8279   9.9465   3.5175   O.3       1 RES1   0.0000
@<TRIPOS>BOND
     1     1     2    1
     2     2     3    1
     3     2     4    1
     4     2     5    1
     5     5     6    1
     6     5     7    1
     7     7     8    2
     8     7     9   am
     9     9    10    1
    10    10    11    2
    11    10    12    2
    12    10    13    1
    13    13    14    1
    14    15    14    1
    15    15    16    1
    16    16    17    1
    17    17    18    1
    18    18    19    1
    19    19    20    2
    20    20    21    1
    21    21    22    2
    22    22    23    1
    23    22    24    1
    24    24    25    2
    25    25    26    1
    26    26    27    2
    27    17    28    1
    28    28    29    1
    29    28    30    1
    30    30    31    1
    31    30    15    1
    32    27    18    1
    33    27    21    1
@<TRIPOS>SUBSTRUCTURE
     1 RES1        1 GROUP             0 ****  ****    0  
@<TRIPOS>MOLECULE
ligand_85
    31    33     1     0     0
SMALL
NO_CHARGES
****
Generated from the CSD

@<TRIPOS>ATOM
     1 C1      14.8347   8.4398   8.8701   C.3       1 RES1   0.0000
     2 C2      14.7469   8.8413   7.3917   C.3       1 RES1   0.0000
     3 C3      13.8008  10.0350   7.3069   C.3       1 RES1   0.0000
     4 C4      14.2284   7.6484   6.6444   C.3       1 RES1   0.0000
     5 C5      16.1595   9.1696   6.8250   C.3       1 RES1   0.0000
     6 O6      17.0447   8.0009   6.8534   O.3       1 RES1   0.0000
     7 C7      16.2332   9.7393   5.3813   C.2       1 RES1   0.0000
     8 O8      16.6257   9.0459   4.4365   O.2       1 RES1   0.0000
     9 N9      15.9369  11.0202   5.3071   N.am      1 RES1   0.0000
    10 S10     15.9564  11.8750   3.9193   S.o2      1 RES1   0.0000
    11 O11     17.1242  11.4996   3.0957   O.2       1 RES1   0.0000
    12 O12     15.8837  13.3025   4.2569   O.2       1 RES1   0.0000
    13 O13     14.8238  11.5851   3.0521   O.3       1 RES1   0.0000
    14 C14     14.8183  10.2508   2.4386   C.3       1 RES1   0.0000
    15 C15     13.5972  10.0700   1.4982   C.3       1 RES1   0.0000
    16 O16     12.4171  10.1035   2.3483   O.3       1 RES1   0.0000
    17 C17     11.3697  10.8481   1.7171   C.3       1 RES1   0.0000
    18 N18     10.7491  11.6897   2.7785   N.pl3     1 RES1   0.0000
    19 C19     11.1472  12.9145   3.2130   C.2       1 RES1   0.0000
    20 N20     10.3238  13.3578   4.1888   N.2       1 RES1   0.0000
    21 C21      9.3891  12.4040   4.3559   C.2       1 RES1   0.0000
    22 C22      8.2718  12.2739   5.1828   C.2       1 RES1   0.0000
    23 N23      7.9538  13.2462   6.0619   N.pl3     1 RES1   0.0000
    24 N24      7.5595  11.1298   5.1089   N.2       1 RES1   0.0000
    25 C25      7.8287  10.1608   4.2398   C.2       1 RES1   0.0000
    26 N26      8.8797  10.2449   3.4222   N.2       1 RES1   0.0000
    27 C27      9.6576  11.3557   3.4611   C.2       1 RES1   0.0000
    28 C28     11.9665  11.5683   0.5493   C.3       1 RES1   0.0000
    29 O29     11.3505  11.1344  -0.6924   O.3       1 RES1   0.0000
    30 C30     13.4435  11.1870   0.5012   C.3       1 RES1   0.0000
    31 O31     13.8686  10.6886  -0.7552   O.3       1 RES1   0.0000
@<TRIPOS>BOND
     1     1     2    1
     2     2     3    1
     3     2     4    1
     4     2     5    1
     5     5     6    1
     6     5     7    1
     7     7     8    2
     8     7     9   am
     9     9    10    1
    10    10    11    2
    11    10    12    2
    12    10    13    1
    13    13    14    1
    14    15    14    1
    15    15    16    1
    16    16    17    1
    17    17    18    1
    18    18    19    1
    19    19    20    2
    20    20    21    1
    21    21    22    2
    22    22    23    1
    23    22    24    1
    24    24    25    2
    25    25    26    1
    26    26    27    2
    27    17    28    1
    28    28    29    1
    29    28    30    1
    30    30    31    1
    31    30    15    1
    32    27    18    1
    33    27    21    1
@<TRIPOS>SUBSTRUCTURE
     1 RES1        1 GROUP             0 ****  ****    0  
@<TRIPOS>MOLECULE
ligand_86
    31    33     1     0     0
SMALL
NO_CHARGES
****
Generated from the CSD

@<TRIPOS>ATOM
     1 C1      14.8271   8.7046   9.1346   C.3       1 RES1   0.0000
     2 C2      14.6249   9.0844   7.6616   C.3       1 RES1   0.0000
     3 C3      13.8593  10.4037   7.6400   C.3       1 RES1   0.0000
     4 C4      13.8538   7.9670   7.0236   C.3       1 RES1   0.0000
     5 C5      15.9934   9.1869   6.9260   C.3       1 RES1   0.0000
     6 O6      16.6964   7.9004   6.8982   O.3       1 RES1   0.0000
     7 C7      15.9784   9.7090   5.4628   C.2       1 RES1   0.0000
     8 O8      16.1517   8.9454   4.5065   O.2       1 RES1   0.0000
     9 N9      15.8648  11.0180   5.3740   N.am      1 RES1   0.0000
    10 S10     15.9370  11.8397   3.9681   S.o2      1 RES1   0.0000
    11 O11     15.7404  13.2852   4.2021   O.2       1 RES1   0.0000
    12 O12     14.9766  11.2385   3.0337   O.2       1 RES1   0.0000
    13 O13     17.2452  11.7748   3.3332   O.3       1 RES1   0.0000
    14 C14     18.3182  12.5134   4.0116   C.3       1 RES1   0.0000
    15 C15     19.6690  12.3544   3.2643   C.3       1 RES1   0.0000
    16 O16     19.4756  12.9297   1.9422   O.3       1 RES1   0.0000
    17 C17     20.6329  13.6756   1.5496   C.3       1 RES1   0.0000
    18 N18     20.1346  14.9248   0.9084   N.pl3     1 RES1   0.0000
    19 C19     18.8736  15.4313   0.9337   C.2       1 RES1   0.0000
    20 N20     18.8172  16.5878   0.2366   N.2       1 RES1   0.0000
    21 C21     20.0634  16.8154  -0.2179   C.2       1 RES1   0.0000
    22 C22     20.6511  17.8330  -0.9716   C.2       1 RES1   0.0000
    23 N23     19.9128  18.8722  -1.4123   N.pl3     1 RES1   0.0000
    24 N24     21.9586  17.7143  -1.2846   N.2       1 RES1   0.0000
    25 C25     22.7227  16.7175  -0.8492   C.2       1 RES1   0.0000
    26 N26     22.2081  15.7276  -0.1175   N.2       1 RES1   0.0000
    27 C27     20.8926  15.7671   0.2122   C.2       1 RES1   0.0000
    28 C28     21.4984  13.8384   2.7592   C.3       1 RES1   0.0000
    29 O29     22.7911  13.2082   2.5555   O.3       1 RES1   0.0000
    30 C30     20.7973  13.1159   3.9063   C.3       1 RES1   0.0000
    31 O31     21.6135  12.1705   4.5754   O.3       1 RES1   0.0000
@<TRIPOS>BOND
     1     1     2    1
     2     2     3    1
     3     2     4    1
     4     2     5    1
     5     5     6    1
     6     5     7    1
     7     7     8    2
     8     7     9   am
     9     9    10    1
    10    10    11    2
    11    10    12    2
    12    10    13    1
    13    13    14    1
    14    15    14    1
    15    15    16    1
    16    16    17    1
    17    17    18    1
    18    18    19    1
    19    19    20    2
    20    20    21    1
    21    21    22    2
    22    22    23    1
    23    22    24    1
    24    24    25    2
    25    25    26    1
    26    26    27    2
    27    17    28    1
    28    28    29    1
    29    28    30    1
    30    30    31    1
    31    30    15    1
    32    27    18    1
    33    27    21    1
@<TRIPOS>SUBSTRUCTURE
     1 RES1        1 GROUP             0 ****  ****    0  
@<TRIPOS>MOLECULE
ligand_87
    31    33     1     0     0
SMALL
NO_CHARGES
****
Generated from the CSD

@<TRIPOS>ATOM
     1 C1      14.7335   8.7445   9.1127   C.3       1 RES1   0.0000
     2 C2      14.5483   9.1227   7.6371   C.3       1 RES1   0.0000
     3 C3      13.7985  10.4508   7.6055   C.3       1 RES1   0.0000
     4 C4      13.7695   8.0127   6.9954   C.3       1 RES1   0.0000
     5 C5      15.9241   9.2071   6.9130   C.3       1 RES1   0.0000
     6 O6      16.6105   7.9115   6.8912   O.3       1 RES1   0.0000
     7 C7      15.9281   9.7290   5.4496   C.2       1 RES1   0.0000
     8 O8      16.0980   8.9628   4.4948   O.2       1 RES1   0.0000
     9 N9      15.8340  11.0395   5.3596   N.am      1 RES1   0.0000
    10 S10     15.9323  11.8600   3.9547   S.o2      1 RES1   0.0000
    11 O11     17.1170  11.4286   3.1844   O.2       1 RES1   0.0000
    12 O12     15.8932  13.2966   4.2569   O.2       1 RES1   0.0000
    13 O13     14.8238  11.5851   3.0521   O.3       1 RES1   0.0000
    14 C14     13.5242  12.1378   3.4551   C.3       1 RES1   0.0000
    15 C15     12.4200  11.7865   2.4228   C.3       1 RES1   0.0000
    16 O16     12.3204  10.3352   2.4076   O.3       1 RES1   0.0000
    17 C17     10.9492   9.9310   2.3282   C.3       1 RES1   0.0000
    18 N18     10.7897   8.7863   3.2685   N.pl3     1 RES1   0.0000
    19 C19     11.6522   8.3713   4.2335   C.2       1 RES1   0.0000
    20 N20     11.1498   7.2979   4.8833   N.2       1 RES1   0.0000
    21 C21      9.9501   7.0479   4.3272   C.2       1 RES1   0.0000
    22 C22      8.9499   6.1023   4.5608   C.2       1 RES1   0.0000
    23 N23      9.1005   5.1701   5.5239   N.pl3     1 RES1   0.0000
    24 N24      7.8618   6.1215   3.7623   N.2       1 RES1   0.0000
    25 C25      7.6683   7.0382   2.8194   C.2       1 RES1   0.0000
    26 N26      8.5911   7.9679   2.5665   N.2       1 RES1   0.0000
    27 C27      9.7241   7.9918   3.3125   C.2       1 RES1   0.0000
    28 C28     10.1053  11.1389   2.5881   C.3       1 RES1   0.0000
    29 O29      9.2755  11.4444   1.4358   O.3       1 RES1   0.0000
    30 C30     11.0610  12.3090   2.8042   C.3       1 RES1   0.0000
    31 O31     10.7957  13.4290   1.9777   O.3       1 RES1   0.0000
@<TRIPOS>BOND
     1     1     2    1
     2     2     3    1
     3     2     4    1
     4     2     5    1
     5     5     6    1
     6     5     7    1
     7     7     8    2
     8     7     9   am
     9     9    10    1
    10    10    11    2
    11    10    12    2
    12    10    13    1
    13    13    14    1
    14    15    14    1
    15    15    16    1
    16    16    17    1
    17    17    18    1
    18    18    19    1
    19    19    20    2
    20    20    21    1
    21    21    22    2
    22    22    23    1
    23    22    24    1
    24    24    25    2
    25    25    26    1
    26    26    27    2
    27    17    28    1
    28    28    29    1
    29    28    30    1
    30    30    31    1
    31    30    15    1
    32    27    18    1
    33    27    21    1
@<TRIPOS>SUBSTRUCTURE
     1 RES1        1 GROUP             0 ****  ****    0  
@<TRIPOS>MOLECULE
ligand_88
    31    33     1     0     0
SMALL
NO_CHARGES
****
Generated from the CSD

@<TRIPOS>ATOM
     1 C1      14.6307   8.7617   9.0544   C.3       1 RES1   0.0000
     2 C2      14.3750   9.2259   7.6143   C.3       1 RES1   0.0000
     3 C3      13.8291  10.6483   7.6922   C.3       1 RES1   0.0000
     4 C4      13.3880   8.2684   7.0148   C.3       1 RES1   0.0000
     5 C5      15.6796   9.1424   6.7685   C.3       1 RES1   0.0000
     6 O6      16.1652   7.7642   6.6480   O.3       1 RES1   0.0000
     7 C7      15.6312   9.7172   5.3258   C.2       1 RES1   0.0000
     8 O8      15.5959   8.9737   4.3391   O.2       1 RES1   0.0000
     9 N9      15.7299  11.0296   5.2803   N.am      1 RES1   0.0000
    10 S10     15.9080  11.8767   3.8992   S.o2      1 RES1   0.0000
    11 O11     15.7530  13.3236   4.1551   O.2       1 RES1   0.0000
    12 O12     14.9776  11.3322   2.9019   O.2       1 RES1   0.0000
    13 O13     17.2452  11.7748   3.3332   O.3       1 RES1   0.0000
    14 C14     17.5953  10.4684   2.7610   C.3       1 RES1   0.0000
    15 C15     19.0114  10.4942   2.1267   C.3       1 RES1   0.0000
    16 O16     19.9390  10.7894   3.2078   O.3       1 RES1   0.0000
    17 C17     21.1231   9.9948   3.0787   C.3       1 RES1   0.0000
    18 N18     21.4684   9.5232   4.4493   N.pl3     1 RES1   0.0000
    19 C19     20.6949   9.5629   5.5662   C.2       1 RES1   0.0000
    20 N20     21.3599   9.0351   6.6177   N.2       1 RES1   0.0000
    21 C21     22.5597   8.6460   6.1485   C.2       1 RES1   0.0000
    22 C22     23.6719   8.0265   6.7215   C.2       1 RES1   0.0000
    23 N23     23.6760   7.7019   8.0306   N.pl3     1 RES1   0.0000
    24 N24     24.7511   7.8141   5.9392   N.2       1 RES1   0.0000
    25 C25     24.7754   8.0991   4.6411   C.2       1 RES1   0.0000
    26 N26     23.7327   8.6821   4.0470   N.2       1 RES1   0.0000
    27 C27     22.6226   8.9508   4.7793   C.2       1 RES1   0.0000
    28 C28     20.8514   8.9408   2.0522   C.3       1 RES1   0.0000
    29 O29     21.7542   9.0778   0.9227   O.3       1 RES1   0.0000
    30 C30     19.4287   9.1686   1.5488   C.3       1 RES1   0.0000
    31 O31     19.3270   9.2753   0.1395   O.3       1 RES1   0.0000
@<TRIPOS>BOND
     1     1     2    1
     2     2     3    1
     3     2     4    1
     4     2     5    1
     5     5     6    1
     6     5     7    1
     7     7     8    2
     8     7     9   am
     9     9    10    1
    10    10    11    2
    11    10    12    2
    12    10    13    1
    13    13    14    1
    14    15    14    1
    15    15    16    1
    16    16    17    1
    17    17    18    1
    18    18    19    1
    19    19    20    2
    20    20    21    1
    21    21    22    2
    22    22    23    1
    23    22    24    1
    24    24    25    2
    25    25    26    1
    26    26    27    2
    27    17    28    1
    28    28    29    1
    29    28    30    1
    30    30    31    1
    31    30    15    1
    32    27    18    1
    33    27    21    1
@<TRIPOS>SUBSTRUCTURE
     1 RES1        1 GROUP             0 ****  ****    0  
@<TRIPOS>MOLECULE
ligand_89
    31    33     1     0     0
SMALL
NO_CHARGES
****
Generated from the CSD

@<TRIPOS>ATOM
     1 C1      14.8347   8.4398   8.8701   C.3       1 RES1   0.0000
     2 C2      14.7469   8.8413   7.3917   C.3       1 RES1   0.0000
     3 C3      13.8008  10.0350   7.3069   C.3       1 RES1   0.0000
     4 C4      14.2284   7.6484   6.6444   C.3       1 RES1   0.0000
     5 C5      16.1595   9.1696   6.8250   C.3       1 RES1   0.0000
     6 O6      17.0447   8.0009   6.8534   O.3       1 RES1   0.0000
     7 C7      16.2332   9.7393   5.3813   C.2       1 RES1   0.0000
     8 O8      16.6257   9.0459   4.4365   O.2       1 RES1   0.0000
     9 N9      15.9369  11.0202   5.3071   N.am      1 RES1   0.0000
    10 S10     15.9564  11.8750   3.9193   S.o2      1 RES1   0.0000
    11 O11     17.1242  11.4996   3.0957   O.2       1 RES1   0.0000
    12 O12     15.8837  13.3025   4.2569   O.2       1 RES1   0.0000
    13 O13     14.8238  11.5851   3.0521   O.3       1 RES1   0.0000
    14 C14     14.8183  10.2508   2.4386   C.3       1 RES1   0.0000
    15 C15     13.5972  10.0700   1.4982   C.3       1 RES1   0.0000
    16 O16     13.7410  11.0630   0.4448   O.3       1 RES1   0.0000
    17 C17     13.3756  10.5027  -0.8211   C.3       1 RES1   0.0000
    18 N18     14.3837  10.9866  -1.8057   N.pl3     1 RES1   0.0000
    19 C19     15.5769  11.5865  -1.5535   C.2       1 RES1   0.0000
    20 N20     16.2118  11.8758  -2.7110   N.2       1 RES1   0.0000
    21 C21     15.4116  11.4368  -3.7000   C.2       1 RES1   0.0000
    22 C22     15.5072  11.4242  -5.0928   C.2       1 RES1   0.0000
    23 N23     16.5872  11.9459  -5.7097   N.pl3     1 RES1   0.0000
    24 N24     14.4678  10.9243  -5.7940   N.2       1 RES1   0.0000
    25 C25     13.3984  10.3813  -5.2210   C.2       1 RES1   0.0000
    26 N26     13.2672  10.3610  -3.8934   N.2       1 RES1   0.0000
    27 C27     14.2618  10.8720  -3.1251   C.2       1 RES1   0.0000
    28 C28     13.2633   9.0211  -0.6449   C.3       1 RES1   0.0000
    29 O29     11.9121   8.5701  -0.9288   O.3       1 RES1   0.0000
    30 C30     13.5603   8.7255   0.8227   C.3       1 RES1   0.0000
    31 O31     12.5593   7.9591   1.4694   O.3       1 RES1   0.0000
@<TRIPOS>BOND
     1     1     2    1
     2     2     3    1
     3     2     4    1
     4     2     5    1
     5     5     6    1
     6     5     7    1
     7     7     8    2
     8     7     9   am
     9     9    10    1
    10    10    11    2
    11    10    12    2
    12    10    13    1
    13    13    14    1
    14    15    14    1
    15    15    16    1
    16    16    17    1
    17    17    18    1
    18    18    19    1
    19    19    20    2
    20    20    21    1
    21    21    22    2
    22    22    23    1
    23    22    24    1
    24    24    25    2
    25    25    26    1
    26    26    27    2
    27    17    28    1
    28    28    29    1
    29    28    30    1
    30    30    31    1
    31    30    15    1
    32    27    18    1
    33    27    21    1
@<TRIPOS>SUBSTRUCTURE
     1 RES1        1 GROUP             0 ****  ****    0  
@<TRIPOS>MOLECULE
ligand_90
    31    33     1     0     0
SMALL
NO_CHARGES
****
Generated from the CSD

@<TRIPOS>ATOM
     1 C1      14.5877   8.6417   9.0734   C.3       1 RES1   0.0000
     2 C2      14.4426   9.1030   7.6171   C.3       1 RES1   0.0000
     3 C3      13.7445  10.4592   7.6440   C.3       1 RES1   0.0000
     4 C4      13.6333   8.0591   6.9060   C.3       1 RES1   0.0000
     5 C5      15.8329   9.1714   6.9195   C.3       1 RES1   0.0000
     6 O6      16.4965   7.8641   6.8944   O.3       1 RES1   0.0000
     7 C7      15.8734   9.7107   5.4629   C.2       1 RES1   0.0000
     8 O8      15.4179  10.8235   5.1772   O.2       1 RES1   0.0000
     9 N9      16.3382   8.8380   4.5931   N.am      1 RES1   0.0000
    10 S10     16.3709   9.0935   2.9836   S.o2      1 RES1   0.0000
    11 O11     16.9822   7.9420   2.2884   O.2       1 RES1   0.0000
    12 O12     17.0375  10.3783   2.7349   O.2       1 RES1   0.0000
    13 O13     15.0444   9.1811   2.3905   O.3       1 RES1   0.0000
    14 C14     14.2851   7.9249   2.3432   C.3       1 RES1   0.0000
    15 C15     12.8817   8.1400   1.7168   C.3       1 RES1   0.0000
    16 O16     12.2837   6.8201   1.5889   O.3       1 RES1   0.0000
    17 C17     10.8961   6.8660   1.9388   C.3       1 RES1   0.0000
    18 N18     10.6246   5.6501   2.7560   N.pl3     1 RES1   0.0000
    19 C19     11.5264   4.8064   3.3236   C.2       1 RES1   0.0000
    20 N20     10.8904   3.8191   3.9926   N.2       1 RES1   0.0000
    21 C21      9.5732   4.0575   3.8542   C.2       1 RES1   0.0000
    22 C22      8.4181   3.4238   4.3160   C.2       1 RES1   0.0000
    23 N23      8.5039   2.3092   5.0708   N.pl3     1 RES1   0.0000
    24 N24      7.2249   3.9305   3.9403   N.2       1 RES1   0.0000
    25 C25      7.1011   5.0391   3.2174   C.2       1 RES1   0.0000
    26 N26      8.1761   5.6851   2.7623   N.2       1 RES1   0.0000
    27 C27      9.4094   5.2161   3.0780   C.2       1 RES1   0.0000
    28 C28     10.6371   8.1875   2.5909   C.3       1 RES1   0.0000
    29 O29      9.6728   8.9586   1.8259   O.3       1 RES1   0.0000
    30 C30     11.9593   8.9500   2.5876   C.3       1 RES1   0.0000
    31 O31     11.8755  10.2449   2.0186   O.3       1 RES1   0.0000
@<TRIPOS>BOND
     1     1     2    1
     2     2     3    1
     3     2     4    1
     4     2     5    1
     5     5     6    1
     6     5     7    1
     7     7     8    2
     8     7     9   am
     9     9    10    1
    10    10    11    2
    11    10    12    2
    12    10    13    1
    13    13    14    1
    14    15    14    1
    15    15    16    1
    16    16    17    1
    17    17    18    1
    18    18    19    1
    19    19    20    2
    20    20    21    1
    21    21    22    2
    22    22    23    1
    23    22    24    1
    24    24    25    2
    25    25    26    1
    26    26    27    2
    27    17    28    1
    28    28    29    1
    29    28    30    1
    30    30    31    1
    31    30    15    1
    32    27    18    1
    33    27    21    1
@<TRIPOS>SUBSTRUCTURE
     1 RES1        1 GROUP             0 ****  ****    0  
@<TRIPOS>MOLECULE
ligand_91
    31    33     1     0     0
SMALL
NO_CHARGES
****
Generated from the CSD

@<TRIPOS>ATOM
     1 C1      14.7011   8.6954   9.0889   C.3       1 RES1   0.0000
     2 C2      14.5338   9.1473   7.6320   C.3       1 RES1   0.0000
     3 C3      13.8476  10.5095   7.6614   C.3       1 RES1   0.0000
     4 C4      13.7033   8.1051   6.9433   C.3       1 RES1   0.0000
     5 C5      15.9119   9.1989   6.9093   C.3       1 RES1   0.0000
     6 O6      16.5637   7.8858   6.8814   O.3       1 RES1   0.0000
     7 C7      15.9309   9.7280   5.4486   C.2       1 RES1   0.0000
     8 O8      15.4785  10.8422   5.1631   O.2       1 RES1   0.0000
     9 N9      16.3742   8.8461   4.5768   N.am      1 RES1   0.0000
    10 S10     16.3797   9.0899   2.9652   S.o2      1 RES1   0.0000
    11 O11     15.0569   9.5634   2.5082   O.2       1 RES1   0.0000
    12 O12     16.8428   7.8573   2.3148   O.2       1 RES1   0.0000
    13 O13     17.2817  10.1543   2.5501   O.3       1 RES1   0.0000
    14 C14     18.7147   9.8516   2.6592   C.3       1 RES1   0.0000
    15 C15     19.5796  11.0535   2.1946   C.3       1 RES1   0.0000
    16 O16     20.9611  10.6984   2.4803   O.3       1 RES1   0.0000
    17 C17     21.8144  11.1165   1.4092   C.3       1 RES1   0.0000
    18 N18     22.7802  10.0056   1.1785   N.pl3     1 RES1   0.0000
    19 C19     22.7184   8.7330   1.6516   C.2       1 RES1   0.0000
    20 N20     23.7808   8.0183   1.2189   N.2       1 RES1   0.0000
    21 C21     24.5087   8.8512   0.4522   C.2       1 RES1   0.0000
    22 C22     25.6879   8.7132  -0.2823   C.2       1 RES1   0.0000
    23 N23     26.3478   7.5371  -0.3033   N.pl3     1 RES1   0.0000
    24 N24     26.1668   9.8017  -0.9208   N.2       1 RES1   0.0000
    25 C25     25.5327  10.9697  -0.9418   C.2       1 RES1   0.0000
    26 N26     24.3974  11.1465  -0.2635   N.2       1 RES1   0.0000
    27 C27     23.8717  10.1022   0.4249   C.2       1 RES1   0.0000
    28 C28     20.9401  11.4992   0.2569   C.3       1 RES1   0.0000
    29 O29     21.1221  12.8993  -0.0841   O.3       1 RES1   0.0000
    30 C30     19.4963  11.3091   0.7137   C.3       1 RES1   0.0000
    31 O31     18.6797  12.4526   0.5313   O.3       1 RES1   0.0000
@<TRIPOS>BOND
     1     1     2    1
     2     2     3    1
     3     2     4    1
     4     2     5    1
     5     5     6    1
     6     5     7    1
     7     7     8    2
     8     7     9   am
     9     9    10    1
    10    10    11    2
    11    10    12    2
    12    10    13    1
    13    13    14    1
    14    15    14    1
    15    15    16    1
    16    16    17    1
    17    17    18    1
    18    18    19    1
    19    19    20    2
    20    20    21    1
    21    21    22    2
    22    22    23    1
    23    22    24    1
    24    24    25    2
    25    25    26    1
    26    26    27    2
    27    17    28    1
    28    28    29    1
    29    28    30    1
    30    30    31    1
    31    30    15    1
    32    27    18    1
    33    27    21    1
@<TRIPOS>SUBSTRUCTURE
     1 RES1        1 GROUP             0 ****  ****    0  
@<TRIPOS>MOLECULE
ligand_92
    31    33     1     0     0
SMALL
NO_CHARGES
****
Generated from the CSD

@<TRIPOS>ATOM
     1 C1      14.8406   9.1395   9.0581   C.3       1 RES1   0.0000
     2 C2      14.7374   9.5887   7.5945   C.3       1 RES1   0.0000
     3 C3      14.2997  11.0501   7.6040   C.3       1 RES1   0.0000
     4 C4      13.7297   8.6959   6.9329   C.3       1 RES1   0.0000
     5 C5      16.0947   9.3865   6.8589   C.3       1 RES1   0.0000
     6 O6      16.5050   7.9789   6.8467   O.3       1 RES1   0.0000
     7 C7      16.1896   9.8828   5.3896   C.2       1 RES1   0.0000
     8 O8      15.9370  11.0550   5.0900   O.2       1 RES1   0.0000
     9 N9      16.4607   8.9241   4.5285   N.am      1 RES1   0.0000
    10 S10     16.4023   9.1168   2.9110   S.o2      1 RES1   0.0000
    11 O11     16.9762   7.9392   2.2277   O.2       1 RES1   0.0000
    12 O12     17.0510  10.3910   2.5756   O.2       1 RES1   0.0000
    13 O13     15.0444   9.1811   2.3905   O.3       1 RES1   0.0000
    14 C14     14.2945  10.4001   2.7202   C.3       1 RES1   0.0000
    15 C15     12.8902  10.3916   2.0597   C.3       1 RES1   0.0000
    16 O16     12.1919  11.5625   2.5672   O.3       1 RES1   0.0000
    17 C17     11.4431  12.1886   1.5197   C.3       1 RES1   0.0000
    18 N18     11.6393  13.6571   1.6778   N.pl3     1 RES1   0.0000
    19 C19     12.5572  14.2993   2.4476   C.2       1 RES1   0.0000
    20 N20     12.4225  15.6382   2.3216   N.2       1 RES1   0.0000
    21 C21     11.4168  15.8356   1.4493   C.2       1 RES1   0.0000
    22 C22     10.8173  16.9703   0.8995   C.2       1 RES1   0.0000
    23 N23     11.2409  18.2035   1.2443   N.pl3     1 RES1   0.0000
    24 N24      9.7753  16.7918   0.0603   N.2       1 RES1   0.0000
    25 C25      9.3454  15.5929  -0.3201   C.2       1 RES1   0.0000
    26 N26      9.8939  14.4799   0.1703   N.2       1 RES1   0.0000
    27 C27     10.9287  14.5838   1.0415   C.2       1 RES1   0.0000
    28 C28     11.8859  11.5855   0.2240   C.3       1 RES1   0.0000
    29 O29     10.7783  10.9190  -0.4384   O.3       1 RES1   0.0000
    30 C30     12.9364  10.5312   0.5619   C.3       1 RES1   0.0000
    31 O31     12.6661   9.2530   0.0134   O.3       1 RES1   0.0000
@<TRIPOS>BOND
     1     1     2    1
     2     2     3    1
     3     2     4    1
     4     2     5    1
     5     5     6    1
     6     5     7    1
     7     7     8    2
     8     7     9   am
     9     9    10    1
    10    10    11    2
    11    10    12    2
    12    10    13    1
    13    13    14    1
    14    15    14    1
    15    15    16    1
    16    16    17    1
    17    17    18    1
    18    18    19    1
    19    19    20    2
    20    20    21    1
    21    21    22    2
    22    22    23    1
    23    22    24    1
    24    24    25    2
    25    25    26    1
    26    26    27    2
    27    17    28    1
    28    28    29    1
    29    28    30    1
    30    30    31    1
    31    30    15    1
    32    27    18    1
    33    27    21    1
@<TRIPOS>SUBSTRUCTURE
     1 RES1        1 GROUP             0 ****  ****    0  
@<TRIPOS>MOLECULE
ligand_93
    31    33     1     0     0
SMALL
NO_CHARGES
****
Generated from the CSD

@<TRIPOS>ATOM
     1 C1      14.4987   8.5442   8.9986   C.3       1 RES1   0.0000
     2 C2      14.2968   8.9044   7.5207   C.3       1 RES1   0.0000
     3 C3      13.3577  10.1058   7.4765   C.3       1 RES1   0.0000
     4 C4      13.7096   7.6967   6.8523   C.3       1 RES1   0.0000
     5 C5      15.6625   9.2005   6.8340   C.3       1 RES1   0.0000
     6 O6      16.5597   8.0416   6.8802   O.3       1 RES1   0.0000
     7 C7      15.6286   9.6688   5.3530   C.2       1 RES1   0.0000
     8 O8      14.9792  10.6623   5.0082   O.2       1 RES1   0.0000
     9 N9      16.2635   8.8585   4.5318   N.am      1 RES1   0.0000
    10 S10     16.3576   9.0928   2.9214   S.o2      1 RES1   0.0000
    11 O11     15.0621   9.5640   2.3898   O.2       1 RES1   0.0000
    12 O12     16.8548   7.8561   2.3047   O.2       1 RES1   0.0000
    13 O13     17.2817  10.1543   2.5501   O.3       1 RES1   0.0000
    14 C14     16.8603  11.5161   2.9033   C.3       1 RES1   0.0000
    15 C15     17.8928  12.5676   2.4166   C.3       1 RES1   0.0000
    16 O16     17.3083  13.8717   2.6884   O.3       1 RES1   0.0000
    17 C17     18.3068  14.7721   3.1806   C.3       1 RES1   0.0000
    18 N18     17.6783  15.5328   4.2970   N.pl3     1 RES1   0.0000
    19 C19     16.5128  15.2608   4.9412   C.2       1 RES1   0.0000
    20 N20     16.2810  16.1818   5.9028   N.2       1 RES1   0.0000
    21 C21     17.3235  17.0323   5.8697   C.2       1 RES1   0.0000
    22 C22     17.6777  18.1631   6.6078   C.2       1 RES1   0.0000
    23 N23     16.8783  18.6134   7.5964   N.pl3     1 RES1   0.0000
    24 N24     18.8102  18.8130   6.2658   N.2       1 RES1   0.0000
    25 C25     19.6339  18.3863   5.3139   C.2       1 RES1   0.0000
    26 N26     19.3429  17.3048   4.5887   N.2       1 RES1   0.0000
    27 C27     18.2053  16.6168   4.8590   C.2       1 RES1   0.0000
    28 C28     19.5201  13.9633   3.5157   C.3       1 RES1   0.0000
    29 O29     20.6536  14.3767   2.7069   O.3       1 RES1   0.0000
    30 C30     19.1963  12.5132   3.1671   C.3       1 RES1   0.0000
    31 O31     20.1464  11.9007   2.3128   O.3       1 RES1   0.0000
@<TRIPOS>BOND
     1     1     2    1
     2     2     3    1
     3     2     4    1
     4     2     5    1
     5     5     6    1
     6     5     7    1
     7     7     8    2
     8     7     9   am
     9     9    10    1
    10    10    11    2
    11    10    12    2
    12    10    13    1
    13    13    14    1
    14    15    14    1
    15    15    16    1
    16    16    17    1
    17    17    18    1
    18    18    19    1
    19    19    20    2
    20    20    21    1
    21    21    22    2
    22    22    23    1
    23    22    24    1
    24    24    25    2
    25    25    26    1
    26    26    27    2
    27    17    28    1
    28    28    29    1
    29    28    30    1
    30    30    31    1
    31    30    15    1
    32    27    18    1
    33    27    21    1
@<TRIPOS>SUBSTRUCTURE
     1 RES1        1 GROUP             0 ****  ****    0  
@<TRIPOS>MOLECULE
ligand_94
    31    33     1     0     0
SMALL
NO_CHARGES
****
Generated from the CSD

@<TRIPOS>ATOM
     1 C1      14.8648   8.6357   8.9449   C.3       1 RES1   0.0000
     2 C2      14.7484   9.0115   7.4617   C.3       1 RES1   0.0000
     3 C3      13.8321  10.2283   7.3783   C.3       1 RES1   0.0000
     4 C4      14.1791   7.8191   6.7516   C.3       1 RES1   0.0000
     5 C5      16.1536   9.2911   6.8521   C.3       1 RES1   0.0000
     6 O6      17.0103   8.1016   6.8860   O.3       1 RES1   0.0000
     7 C7      16.2042   9.8253   5.3940   C.2       1 RES1   0.0000
     8 O8      16.5597   9.1021   4.4569   O.2       1 RES1   0.0000
     9 N9      15.9323  11.1101   5.2963   N.am      1 RES1   0.0000
    10 S10     15.6035  11.8614   3.8876   S.o2      1 RES1   0.0000
    11 O11     16.4955  11.3694   2.8174   O.2       1 RES1   0.0000
    12 O12     15.6664  13.3112   4.1135   O.2       1 RES1   0.0000
    13 O13     14.2716  11.5678   3.3791   O.3       1 RES1   0.0000
    14 C14     14.0885  10.2242   2.8151   C.3       1 RES1   0.0000
    15 C15     12.6081   9.7697   2.9159   C.3       1 RES1   0.0000
    16 O16     12.3096   9.6586   4.3354   O.3       1 RES1   0.0000
    17 C17     10.9987  10.1650   4.6097   C.3       1 RES1   0.0000
    18 N18     11.1055  10.9593   5.8657   N.pl3     1 RES1   0.0000
    19 C19     10.6854  10.6135   7.1112   C.2       1 RES1   0.0000
    20 N20     10.9646  11.5996   7.9923   N.2       1 RES1   0.0000
    21 C21     11.5814  12.5685   7.2911   C.2       1 RES1   0.0000
    22 C22     12.1231  13.8118   7.6224   C.2       1 RES1   0.0000
    23 N23     12.0733  14.2639   8.8922   N.pl3     1 RES1   0.0000
    24 N24     12.6456  14.5599   6.6278   N.2       1 RES1   0.0000
    25 C25     12.7329  14.1384   5.3702   C.2       1 RES1   0.0000
    26 N26     12.2386  12.9534   5.0078   N.2       1 RES1   0.0000
    27 C27     11.6731  12.1589   5.9511   C.2       1 RES1   0.0000
    28 C28     10.5304  10.8936   3.3897   C.3       1 RES1   0.0000
    29 O29      9.3338  10.2736   2.8477   O.3       1 RES1   0.0000
    30 C30     11.6384  10.7706   2.3473   C.3       1 RES1   0.0000
    31 O31     11.1998  10.2659   1.0980   O.3       1 RES1   0.0000
@<TRIPOS>BOND
     1     1     2    1
     2     2     3    1
     3     2     4    1
     4     2     5    1
     5     5     6    1
     6     5     7    1
     7     7     8    2
     8     7     9   am
     9     9    10    1
    10    10    11    2
    11    10    12    2
    12    10    13    1
    13    13    14    1
    14    15    14    1
    15    15    16    1
    16    16    17    1
    17    17    18    1
    18    18    19    1
    19    19    20    2
    20    20    21    1
    21    21    22    2
    22    22    23    1
    23    22    24    1
    24    24    25    2
    25    25    26    1
    26    26    27    2
    27    17    28    1
    28    28    29    1
    29    28    30    1
    30    30    31    1
    31    30    15    1
    32    27    18    1
    33    27    21    1
@<TRIPOS>SUBSTRUCTURE
     1 RES1        1 GROUP             0 ****  ****    0  
@<TRIPOS>MOLECULE
ligand_95
    31    33     1     0     0
SMALL
NO_CHARGES
****
Generated from the CSD

@<TRIPOS>ATOM
     1 C1      14.5914   8.8594   9.1217   C.3       1 RES1   0.0000
     2 C2      14.4365   9.2165   7.6374   C.3       1 RES1   0.0000
     3 C3      13.6818  10.5406   7.5714   C.3       1 RES1   0.0000
     4 C4      13.6765   8.0943   6.9944   C.3       1 RES1   0.0000
     5 C5      15.8273   9.2973   6.9420   C.3       1 RES1   0.0000
     6 O6      16.5228   8.0066   6.9597   O.3       1 RES1   0.0000
     7 C7      15.8598   9.7917   5.4694   C.2       1 RES1   0.0000
     8 O8      16.0177   9.0035   4.5306   O.2       1 RES1   0.0000
     9 N9      15.8027  11.1023   5.3545   N.am      1 RES1   0.0000
    10 S10     16.2717  11.9157   4.0222   S.o2      1 RES1   0.0000
    11 O11     16.0311  13.3640   4.1877   O.2       1 RES1   0.0000
    12 O12     15.6044  11.3171   2.8588   O.2       1 RES1   0.0000
    13 O13     17.7045  11.8368   3.7776   O.3       1 RES1   0.0000
    14 C14     18.5519  12.5770   4.7214   C.3       1 RES1   0.0000
    15 C15     19.9499  11.9170   4.8577   C.3       1 RES1   0.0000
    16 O16     19.7280  10.6059   5.4476   O.3       1 RES1   0.0000
    17 C17     20.5716   9.6307   4.8254   C.3       1 RES1   0.0000
    18 N18     19.7358   8.4136   4.6247   N.pl3     1 RES1   0.0000
    19 C19     19.7515   7.2612   5.3451   C.2       1 RES1   0.0000
    20 N20     18.8412   6.3893   4.8574   N.2       1 RES1   0.0000
    21 C21     18.2374   7.0109   3.8278   C.2       1 RES1   0.0000
    22 C22     17.2176   6.6562   2.9428   C.2       1 RES1   0.0000
    23 N23     16.6298   5.4451   3.0256   N.pl3     1 RES1   0.0000
    24 N24     16.8810   7.5387   1.9786   N.2       1 RES1   0.0000
    25 C25     17.4214   8.7491   1.8803   C.2       1 RES1   0.0000
    26 N26     18.3919   9.1368   2.7097   N.2       1 RES1   0.0000
    27 C27     18.8007   8.2894   3.6872   C.2       1 RES1   0.0000
    28 C28     21.1573  10.2554   3.5984   C.3       1 RES1   0.0000
    29 O29     22.6055  10.3143   3.6923   O.3       1 RES1   0.0000
    30 C30     20.6304  11.6864   3.5352   C.3       1 RES1   0.0000
    31 O31     21.6445  12.6680   3.4091   O.3       1 RES1   0.0000
@<TRIPOS>BOND
     1     1     2    1
     2     2     3    1
     3     2     4    1
     4     2     5    1
     5     5     6    1
     6     5     7    1
     7     7     8    2
     8     7     9   am
     9     9    10    1
    10    10    11    2
    11    10    12    2
    12    10    13    1
    13    13    14    1
    14    15    14    1
    15    15    16    1
    16    16    17    1
    17    17    18    1
    18    18    19    1
    19    19    20    2
    20    20    21    1
    21    21    22    2
    22    22    23    1
    23    22    24    1
    24    24    25    2
    25    25    26    1
    26    26    27    2
    27    17    28    1
    28    28    29    1
    29    28    30    1
    30    30    31    1
    31    30    15    1
    32    27    18    1
    33    27    21    1
@<TRIPOS>SUBSTRUCTURE
     1 RES1        1 GROUP             0 ****  ****    0  
@<TRIPOS>MOLECULE
ligand_96
    31    33     1     0     0
SMALL
NO_CHARGES
****
Generated from the CSD

@<TRIPOS>ATOM
     1 C1      14.7026   8.6951   9.0894   C.3       1 RES1   0.0000
     2 C2      14.5347   9.1466   7.6324   C.3       1 RES1   0.0000
     3 C3      13.8473  10.5082   7.6616   C.3       1 RES1   0.0000
     4 C4      13.7049   8.1036   6.9440   C.3       1 RES1   0.0000
     5 C5      15.9127   9.1992   6.9094   C.3       1 RES1   0.0000
     6 O6      16.5655   7.8866   6.8817   O.3       1 RES1   0.0000
     7 C7      15.9310   9.7281   5.4486   C.2       1 RES1   0.0000
     8 O8      15.4782  10.8420   5.1631   O.2       1 RES1   0.0000
     9 N9      16.3742   8.8461   4.5769   N.am      1 RES1   0.0000
    10 S10     16.3797   9.0899   2.9653   S.o2      1 RES1   0.0000
    11 O11     15.0569   9.5634   2.5082   O.2       1 RES1   0.0000
    12 O12     16.8428   7.8573   2.3148   O.2       1 RES1   0.0000
    13 O13     17.2817  10.1543   2.5501   O.3       1 RES1   0.0000
    14 C14     18.7147   9.8516   2.6592   C.3       1 RES1   0.0000
    15 C15     19.5796  11.0535   2.1946   C.3       1 RES1   0.0000
    16 O16     19.4207  11.2513   0.7707   O.3       1 RES1   0.0000
    17 C17     18.9960  12.5613   0.5091   C.3       1 RES1   0.0000
    18 N18     18.0772  12.5388  -0.6636   N.pl3     1 RES1   0.0000
    19 C19     18.0097  13.4280  -1.6893   C.2       1 RES1   0.0000
    20 N20     17.0478  13.0628  -2.5657   N.2       1 RES1   0.0000
    21 C21     16.5173  11.9214  -2.0895   C.2       1 RES1   0.0000
    22 C22     15.5178  11.0550  -2.5361   C.2       1 RES1   0.0000
    23 N23     14.8520  11.3101  -3.6811   N.pl3     1 RES1   0.0000
    24 N24     15.2088   9.9929  -1.7627   N.2       1 RES1   0.0000
    25 C25     15.8581   9.6969  -0.6412   C.2       1 RES1   0.0000
    26 N26     16.8274  10.4893  -0.1801   N.2       1 RES1   0.0000
    27 C27     17.1725  11.5912  -0.8923   C.2       1 RES1   0.0000
    28 C28     18.3414  13.0495   1.7951   C.3       1 RES1   0.0000
    29 O29     18.3896  14.5008   1.8253   O.3       1 RES1   0.0000
    30 C30     19.2224  12.3904   2.8390   C.3       1 RES1   0.0000
    31 O31     20.4058  13.1457   3.0311   O.3       1 RES1   0.0000
@<TRIPOS>BOND
     1     1     2    1
     2     2     3    1
     3     2     4    1
     4     2     5    1
     5     5     6    1
     6     5     7    1
     7     7     8    2
     8     7     9   am
     9     9    10    1
    10    10    11    2
    11    10    12    2
    12    10    13    1
    13    13    14    1
    14    15    14    1
    15    15    16    1
    16    16    17    1
    17    17    18    1
    18    18    19    1
    19    19    20    2
    20    20    21    1
    21    21    22    2
    22    22    23    1
    23    22    24    1
    24    24    25    2
    25    25    26    1
    26    26    27    2
    27    17    28    1
    28    28    29    1
    29    28    30    1
    30    30    31    1
    31    30    15    1
    32    27    18    1
    33    27    21    1
@<TRIPOS>SUBSTRUCTURE
     1 RES1        1 GROUP             0 ****  ****    0  
@<TRIPOS>MOLECULE
ligand_97
    31    33     1     0     0
SMALL
NO_CHARGES
****
Generated from the CSD

@<TRIPOS>ATOM
     1 C1      14.3412   8.5609   8.9306   C.3       1 RES1   0.0000
     2 C2      14.1769   8.9235   7.4486   C.3       1 RES1   0.0000
     3 C3      13.2495  10.1330   7.3833   C.3       1 RES1   0.0000
     4 C4      13.5951   7.7211   6.7660   C.3       1 RES1   0.0000
     5 C5      15.5608   9.2080   6.7943   C.3       1 RES1   0.0000
     6 O6      16.4468   8.0416   6.8610   O.3       1 RES1   0.0000
     7 C7      15.5655   9.6769   5.3130   C.2       1 RES1   0.0000
     8 O8      14.9330  10.6760   4.9536   O.2       1 RES1   0.0000
     9 N9      16.2125   8.8613   4.5065   N.am      1 RES1   0.0000
    10 S10     16.3462   9.0951   2.8990   S.o2      1 RES1   0.0000
    11 O11     15.0652   9.5694   2.3359   O.2       1 RES1   0.0000
    12 O12     16.8552   7.8571   2.2946   O.2       1 RES1   0.0000
    13 O13     17.2817  10.1543   2.5501   O.3       1 RES1   0.0000
    14 C14     16.8603  11.5161   2.9033   C.3       1 RES1   0.0000
    15 C15     17.8928  12.5676   2.4166   C.3       1 RES1   0.0000
    16 O16     19.1239  12.4288   3.1630   O.3       1 RES1   0.0000
    17 C17     20.2002  12.2301   2.2873   C.3       1 RES1   0.0000
    18 N18     21.1759  11.3079   2.9334   N.pl3     1 RES1   0.0000
    19 C19     22.5330  11.3795   2.9131   C.2       1 RES1   0.0000
    20 N20     23.0684  10.3605   3.6214   N.2       1 RES1   0.0000
    21 C21     22.0316   9.6510   4.1041   C.2       1 RES1   0.0000
    22 C22     21.9232   8.5155   4.9090   C.2       1 RES1   0.0000
    23 N23     23.0286   7.8895   5.3623   N.pl3     1 RES1   0.0000
    24 N24     20.6871   8.0410   5.1709   N.2       1 RES1   0.0000
    25 C25     19.5753   8.6436   4.7612   C.2       1 RES1   0.0000
    26 N26     19.6286   9.7371   3.9987   N.2       1 RES1   0.0000
    27 C27     20.8396  10.2545   3.6723   C.2       1 RES1   0.0000
    28 C28     19.5934  11.6823   1.0019   C.3       1 RES1   0.0000
    29 O29     20.4887  11.9769  -0.1033   O.3       1 RES1   0.0000
    30 C30     18.2865  12.4501   0.9464   C.3       1 RES1   0.0000
    31 O31     18.5003  13.7467   0.4165   O.3       1 RES1   0.0000
@<TRIPOS>BOND
     1     1     2    1
     2     2     3    1
     3     2     4    1
     4     2     5    1
     5     5     6    1
     6     5     7    1
     7     7     8    2
     8     7     9   am
     9     9    10    1
    10    10    11    2
    11    10    12    2
    12    10    13    1
    13    13    14    1
    14    15    14    1
    15    15    16    1
    16    16    17    1
    17    17    18    1
    18    18    19    1
    19    19    20    2
    20    20    21    1
    21    21    22    2
    22    22    23    1
    23    22    24    1
    24    24    25    2
    25    25    26    1
    26    26    27    2
    27    17    28    1
    28    28    29    1
    29    28    30    1
    30    30    31    1
    31    30    15    1
    32    27    18    1
    33    27    21    1
@<TRIPOS>SUBSTRUCTURE
     1 RES1        1 GROUP             0 ****  ****    0  
@<TRIPOS>MOLECULE
ligand_98
    31    33     1     0     0
SMALL
NO_CHARGES
****
Generated from the CSD

@<TRIPOS>ATOM
     1 C1      15.0276   8.7841   9.1720   C.3       1 RES1   0.0000
     2 C2      14.7704   9.1933   7.7156   C.3       1 RES1   0.0000
     3 C3      14.0345  10.5292   7.7486   C.3       1 RES1   0.0000
     4 C4      13.9473   8.1040   7.0940   C.3       1 RES1   0.0000
     5 C5      16.1077   9.2784   6.9227   C.3       1 RES1   0.0000
     6 O6      16.8074   7.9902   6.8918   O.3       1 RES1   0.0000
     7 C7      16.0332   9.7713   5.4511   C.2       1 RES1   0.0000
     8 O8      15.5264  10.8613   5.1638   O.2       1 RES1   0.0000
     9 N9      16.4638   8.8843   4.5782   N.am      1 RES1   0.0000
    10 S10     16.3796   9.0884   2.9633   S.o2      1 RES1   0.0000
    11 O11     17.2256  10.2232   2.5396   O.2       1 RES1   0.0000
    12 O12     14.9650   9.2107   2.5879   O.2       1 RES1   0.0000
    13 O13     16.9223   7.9642   2.2147   O.3       1 RES1   0.0000
    14 C14     18.3711   7.7582   2.3387   C.3       1 RES1   0.0000
    15 C15     18.9601   7.1219   1.0516   C.3       1 RES1   0.0000
    16 O16     18.4579   5.7745   0.8959   O.3       1 RES1   0.0000
    17 C17     17.8344   5.6322  -0.3513   C.3       1 RES1   0.0000
    18 N18     16.6809   4.7007  -0.2036   N.pl3     1 RES1   0.0000
    19 C19     16.5760   3.4227  -0.6542   C.2       1 RES1   0.0000
    20 N20     15.3740   2.9032  -0.3193   N.2       1 RES1   0.0000
    21 C21     14.7247   3.8642   0.3634   C.2       1 RES1   0.0000
    22 C22     13.4750   3.9406   0.9809   C.2       1 RES1   0.0000
    23 N23     12.6308   2.8891   0.9505   N.pl3     1 RES1   0.0000
    24 N24     13.1244   5.1095   1.5575   N.2       1 RES1   0.0000
    25 C25     13.9379   6.1585   1.6273   C.2       1 RES1   0.0000
    26 N26     15.1456   6.1290   1.0611   N.2       1 RES1   0.0000
    27 C27     15.5541   4.9947   0.4388   C.2       1 RES1   0.0000
    28 C28     17.4385   7.0394  -0.7799   C.3       1 RES1   0.0000
    29 O29     17.3220   7.0745  -2.2273   O.3       1 RES1   0.0000
    30 C30     18.6058   7.8463  -0.2445   C.3       1 RES1   0.0000
    31 O31     19.7050   7.7713  -1.1355   O.3       1 RES1   0.0000
@<TRIPOS>BOND
     1     1     2    1
     2     2     3    1
     3     2     4    1
     4     2     5    1
     5     5     6    1
     6     5     7    1
     7     7     8    2
     8     7     9   am
     9     9    10    1
    10    10    11    2
    11    10    12    2
    12    10    13    1
    13    13    14    1
    14    15    14    1
    15    15    16    1
    16    16    17    1
    17    17    18    1
    18    18    19    1
    19    19    20    2
    20    20    21    1
    21    21    22    2
    22    22    23    1
    23    22    24    1
    24    24    25    2
    25    25    26    1
    26    26    27    2
    27    17    28    1
    28    28    29    1
    29    28    30    1
    30    30    31    1
    31    30    15    1
    32    27    18    1
    33    27    21    1
@<TRIPOS>SUBSTRUCTURE
     1 RES1        1 GROUP             0 ****  ****    0  
@<TRIPOS>MOLECULE
ligand_99
    31    33     1     0     0
SMALL
NO_CHARGES
****
Generated from the CSD

@<TRIPOS>ATOM
     1 C1      14.7048   8.6689   9.0890   C.3       1 RES1   0.0000
     2 C2      14.5366   9.1256   7.6336   C.3       1 RES1   0.0000
     3 C3      13.8479  10.4864   7.6677   C.3       1 RES1   0.0000
     4 C4      13.7081   8.0843   6.9413   C.3       1 RES1   0.0000
     5 C5      15.9147   9.1823   6.9112   C.3       1 RES1   0.0000
     6 O6      16.5690   7.8705   6.8789   O.3       1 RES1   0.0000
     7 C7      15.9328   9.7163   5.4522   C.2       1 RES1   0.0000
     8 O8      15.4797  10.8312   5.1707   O.2       1 RES1   0.0000
     9 N9      16.3760   8.8375   4.5773   N.am      1 RES1   0.0000
    10 S10     16.3818   9.0873   2.9666   S.o2      1 RES1   0.0000
    11 O11     17.2878  10.2012   2.6182   O.2       1 RES1   0.0000
    12 O12     14.9935   9.2711   2.5243   O.2       1 RES1   0.0000
    13 O13     16.9223   7.9642   2.2147   O.3       1 RES1   0.0000
    14 C14     16.0801   6.7617   2.1752   C.3       1 RES1   0.0000
    15 C15     16.9417   5.4759   2.0627   C.3       1 RES1   0.0000
    16 O16     17.5943   5.4335   0.7726   O.3       1 RES1   0.0000
    17 C17     18.9814   5.3155   0.9363   C.3       1 RES1   0.0000
    18 N18     19.6559   6.0780  -0.1517   N.pl3     1 RES1   0.0000
    19 C19     20.3227   5.5845  -1.2283   C.2       1 RES1   0.0000
    20 N20     20.7921   6.5945  -1.9941   N.2       1 RES1   0.0000
    21 C21     20.4002   7.7347  -1.3962   C.2       1 RES1   0.0000
    22 C22     20.5513   9.0898  -1.6963   C.2       1 RES1   0.0000
    23 N23     21.2282   9.4759  -2.7972   N.pl3     1 RES1   0.0000
    24 N24     20.0467   9.9906  -0.8270   N.2       1 RES1   0.0000
    25 C25     19.3545   9.6480   0.2548   C.2       1 RES1   0.0000
    26 N26     19.1751   8.3658   0.5771   N.2       1 RES1   0.0000
    27 C27     19.6794   7.4049  -0.2372   C.2       1 RES1   0.0000
    28 C28     19.2803   5.8422   2.3341   C.3       1 RES1   0.0000
    29 O29     20.5258   5.2579   2.8000   O.3       1 RES1   0.0000
    30 C30     18.0605   5.3587   3.0947   C.3       1 RES1   0.0000
    31 O31     18.2163   3.9986   3.4602   O.3       1 RES1   0.0000
@<TRIPOS>BOND
     1     1     2    1
     2     2     3    1
     3     2     4    1
     4     2     5    1
     5     5     6    1
     6     5     7    1
     7     7     8    2
     8     7     9   am
     9     9    10    1
    10    10    11    2
    11    10    12    2
    12    10    13    1
    13    13    14    1
    14    15    14    1
    15    15    16    1
    16    16    17    1
    17    17    18    1
    18    18    19    1
    19    19    20    2
    20    20    21    1
    21    21    22    2
    22    22    23    1
    23    22    24    1
    24    24    25    2
    25    25    26    1
    26    26    27    2
    27    17    28    1
    28    28    29    1
    29    28    30    1
    30    30    31    1
    31    30    15    1
    32    27    18    1
    33    27    21    1
@<TRIPOS>SUBSTRUCTURE
     1 RES1        1 GROUP             0 ****  ****    0  
