@<TRIPOS>MOLECULE
native
    15    15     1     0     0
SMALL
NO_CHARGES
****
Generated from the CSD

@<TRIPOS>ATOM
     1 C1      64.3870  40.0400  41.7410   C.3       1 RES1   0.0000
     2 C2      64.2710  41.4650  42.3670   C.2       1 RES1   0.0000
     3 O3      63.1580  41.9080  42.4120   O.2       1 RES1   0.0000
     4 C4      65.4370  42.1920  42.9420   C.3       1 RES1   0.0000
     5 N5      66.4040  42.3210  41.6980   N.am      1 RES1   0.0000
     6 C6      66.0210  42.7590  40.4410   C.2       1 RES1   0.0000
     7 O7      64.8420  43.1540  40.1450   O.2       1 RES1   0.0000
     8 O8      67.0640  42.7750  39.3730   O.3       1 RES1   0.0000
     9 C9      68.2960  43.5270  39.7830   C.3       1 RES1   0.0000
    10 C10     69.4740  42.9510  39.0340   C.2       1 RES1   0.0000
    11 C11     69.9220  43.5670  37.8660   C.2       1 RES1   0.0000
    12 C12     71.0110  43.0320  37.1780   C.2       1 RES1   0.0000
    13 C13     71.6440  41.8860  37.6600   C.2       1 RES1   0.0000
    14 C14     71.1950  41.2650  38.8230   C.2       1 RES1   0.0000
    15 C15     70.1070  41.8000  39.5120   C.2       1 RES1   0.0000
@<TRIPOS>BOND
     1     1     2    1
     2     2     3    2
     3     2     4    1
     4     4     5    1
     5     5     6   am
     6     6     7    2
     7     6     8    1
     8     8     9    1
     9     9    10    1
    10    10    11    2
    11    11    12    1
    12    12    13    2
    13    13    14    1
    14    14    15    2
    15    15    10    1
@<TRIPOS>SUBSTRUCTURE
     1 RES1        1 GROUP             0 ****  ****    0  
@<TRIPOS>MOLECULE
ligand_0
    15    15     1     0     0
SMALL
NO_CHARGES
****
Generated from the CSD

@<TRIPOS>ATOM
     1 C1      64.3870  40.0400  41.7410   C.3       1 RES1   0.0000
     2 C2      64.2710  41.4650  42.3670   C.2       1 RES1   0.0000
     3 O3      63.1580  41.9080  42.4120   O.2       1 RES1   0.0000
     4 C4      65.4370  42.1920  42.9420   C.3       1 RES1   0.0000
     5 N5      64.7874  43.5515  43.4205   N.am      1 RES1   0.0000
     6 C6      64.5157  44.6311  42.5963   C.2       1 RES1   0.0000
     7 O7      64.7593  44.6579  41.3419   O.2       1 RES1   0.0000
     8 O8      63.8893  45.8323  43.2235   O.3       1 RES1   0.0000
     9 C9      63.6337  46.9309  42.2340   C.3       1 RES1   0.0000
    10 C10     63.0029  48.0911  42.9665   C.2       1 RES1   0.0000
    11 C11     61.6153  48.1681  43.0802   C.2       1 RES1   0.0000
    12 C12     61.0371  49.2410  43.7584   C.2       1 RES1   0.0000
    13 C13     61.8478  50.2295  44.3172   C.2       1 RES1   0.0000
    14 C14     63.2338  50.1586  44.2000   C.2       1 RES1   0.0000
    15 C15     63.8126  49.0855  43.5231   C.2       1 RES1   0.0000
@<TRIPOS>BOND
     1     1     2    1
     2     2     3    2
     3     2     4    1
     4     4     5    1
     5     5     6   am
     6     6     7    2
     7     6     8    1
     8     8     9    1
     9     9    10    1
    10    10    11    2
    11    11    12    1
    12    12    13    2
    13    13    14    1
    14    14    15    2
    15    15    10    1
@<TRIPOS>SUBSTRUCTURE
     1 RES1        1 GROUP             0 ****  ****    0  
@<TRIPOS>MOLECULE
ligand_1
    15    15     1     0     0
SMALL
NO_CHARGES
****
Generated from the CSD

@<TRIPOS>ATOM
     1 C1      64.3885  40.0432  41.7339   C.3       1 RES1   0.0000
     2 C2      64.2725  41.4681  42.3601   C.2       1 RES1   0.0000
     3 O3      63.1603  41.9137  42.3993   O.2       1 RES1   0.0000
     4 C4      65.4370  42.1920  42.9420   C.3       1 RES1   0.0000
     5 N5      64.7874  43.5515  43.4205   N.am      1 RES1   0.0000
     6 C6      64.0919  43.7212  44.6063   C.2       1 RES1   0.0000
     7 O7      63.8905  42.7929  45.4615   O.2       1 RES1   0.0000
     8 O8      63.5552  45.0834  44.8977   O.3       1 RES1   0.0000
     9 C9      62.8310  45.1479  46.2103   C.3       1 RES1   0.0000
    10 C10     62.3315  46.5594  46.4071   C.2       1 RES1   0.0000
    11 C11     63.1364  47.4963  47.0541   C.2       1 RES1   0.0000
    12 C12     62.6714  48.7991  47.2328   C.2       1 RES1   0.0000
    13 C13     61.4064  49.1569  46.7656   C.2       1 RES1   0.0000
    14 C14     60.5977  48.2216  46.1244   C.2       1 RES1   0.0000
    15 C15     61.0625  46.9192  45.9443   C.2       1 RES1   0.0000
@<TRIPOS>BOND
     1     1     2    1
     2     2     3    2
     3     2     4    1
     4     4     5    1
     5     5     6   am
     6     6     7    2
     7     6     8    1
     8     8     9    1
     9     9    10    1
    10    10    11    2
    11    11    12    1
    12    12    13    2
    13    13    14    1
    14    14    15    2
    15    15    10    1
@<TRIPOS>SUBSTRUCTURE
     1 RES1        1 GROUP             0 ****  ****    0  
@<TRIPOS>MOLECULE
ligand_2
    15    15     1     0     0
SMALL
NO_CHARGES
****
Generated from the CSD

@<TRIPOS>ATOM
     1 C1      64.3870  40.0400  41.7410   C.3       1 RES1   0.0000
     2 C2      64.2710  41.4650  42.3670   C.2       1 RES1   0.0000
     3 O3      63.1580  41.9080  42.4120   O.2       1 RES1   0.0000
     4 C4      65.4370  42.1920  42.9420   C.3       1 RES1   0.0000
     5 N5      64.7874  43.5515  43.4205   N.am      1 RES1   0.0000
     6 C6      64.5157  44.6311  42.5963   C.2       1 RES1   0.0000
     7 O7      64.7593  44.6579  41.3419   O.2       1 RES1   0.0000
     8 O8      63.8893  45.8323  43.2235   O.3       1 RES1   0.0000
     9 C9      63.6337  46.9309  42.2340   C.3       1 RES1   0.0000
    10 C10     63.0029  48.0911  42.9665   C.2       1 RES1   0.0000
    11 C11     62.6631  49.2498  42.2691   C.2       1 RES1   0.0000
    12 C12     62.0799  50.3186  42.9496   C.2       1 RES1   0.0000
    13 C13     61.8411  50.2235  44.3208   C.2       1 RES1   0.0000
    14 C14     62.1850  49.0699  45.0213   C.2       1 RES1   0.0000
    15 C15     62.7671  48.0005  44.3414   C.2       1 RES1   0.0000
@<TRIPOS>BOND
     1     1     2    1
     2     2     3    2
     3     2     4    1
     4     4     5    1
     5     5     6   am
     6     6     7    2
     7     6     8    1
     8     8     9    1
     9     9    10    1
    10    10    11    2
    11    11    12    1
    12    12    13    2
    13    13    14    1
    14    14    15    2
    15    15    10    1
@<TRIPOS>SUBSTRUCTURE
     1 RES1        1 GROUP             0 ****  ****    0  
@<TRIPOS>MOLECULE
ligand_3
    15    15     1     0     0
SMALL
NO_CHARGES
****
Generated from the CSD

@<TRIPOS>ATOM
     1 C1      64.3885  40.0432  41.7339   C.3       1 RES1   0.0000
     2 C2      64.2725  41.4681  42.3601   C.2       1 RES1   0.0000
     3 O3      63.1603  41.9137  42.3993   O.2       1 RES1   0.0000
     4 C4      65.4370  42.1920  42.9420   C.3       1 RES1   0.0000
     5 N5      64.7874  43.5515  43.4205   N.am      1 RES1   0.0000
     6 C6      64.0919  43.7212  44.6063   C.2       1 RES1   0.0000
     7 O7      63.8905  42.7929  45.4615   O.2       1 RES1   0.0000
     8 O8      63.5552  45.0834  44.8977   O.3       1 RES1   0.0000
     9 C9      62.8310  45.1479  46.2103   C.3       1 RES1   0.0000
    10 C10     62.3315  46.5594  46.4071   C.2       1 RES1   0.0000
    11 C11     61.6197  46.8891  47.5599   C.2       1 RES1   0.0000
    12 C12     61.1611  48.1943  47.7379   C.2       1 RES1   0.0000
    13 C13     61.4153  49.1602  46.7639   C.2       1 RES1   0.0000
    14 C14     62.1207  48.8325  45.6085   C.2       1 RES1   0.0000
    15 C15     62.5805  47.5280  45.4305   C.2       1 RES1   0.0000
@<TRIPOS>BOND
     1     1     2    1
     2     2     3    2
     3     2     4    1
     4     4     5    1
     5     5     6   am
     6     6     7    2
     7     6     8    1
     8     8     9    1
     9     9    10    1
    10    10    11    2
    11    11    12    1
    12    12    13    2
    13    13    14    1
    14    14    15    2
    15    15    10    1
@<TRIPOS>SUBSTRUCTURE
     1 RES1        1 GROUP             0 ****  ****    0  
@<TRIPOS>MOLECULE
ligand_4
    15    15     1     0     0
SMALL
NO_CHARGES
****
Generated from the CSD

@<TRIPOS>ATOM
     1 C1      64.3870  40.0400  41.7410   C.3       1 RES1   0.0000
     2 C2      64.2710  41.4650  42.3670   C.2       1 RES1   0.0000
     3 O3      63.1580  41.9080  42.4120   O.2       1 RES1   0.0000
     4 C4      65.4370  42.1920  42.9420   C.3       1 RES1   0.0000
     5 N5      64.7874  43.5515  43.4205   N.am      1 RES1   0.0000
     6 C6      65.4805  44.5926  44.0158   C.2       1 RES1   0.0000
     7 O7      66.7367  44.5789  44.2512   O.2       1 RES1   0.0000
     8 O8      64.7006  45.8080  44.3942   O.3       1 RES1   0.0000
     9 C9      65.5569  46.8694  45.0200   C.3       1 RES1   0.0000
    10 C10     64.6764  48.0474  45.3628   C.2       1 RES1   0.0000
    11 C11     64.4818  49.0635  44.4279   C.2       1 RES1   0.0000
    12 C12     63.6670  50.1492  44.7486   C.2       1 RES1   0.0000
    13 C13     63.0535  50.2134  45.9999   C.2       1 RES1   0.0000
    14 C14     63.2509  49.2031  46.9381   C.2       1 RES1   0.0000
    15 C15     64.0644  48.1167  46.6177   C.2       1 RES1   0.0000
@<TRIPOS>BOND
     1     1     2    1
     2     2     3    2
     3     2     4    1
     4     4     5    1
     5     5     6   am
     6     6     7    2
     7     6     8    1
     8     8     9    1
     9     9    10    1
    10    10    11    2
    11    11    12    1
    12    12    13    2
    13    13    14    1
    14    14    15    2
    15    15    10    1
@<TRIPOS>SUBSTRUCTURE
     1 RES1        1 GROUP             0 ****  ****    0  
@<TRIPOS>MOLECULE
ligand_5
    15    15     1     0     0
SMALL
NO_CHARGES
****
Generated from the CSD

@<TRIPOS>ATOM
     1 C1      64.3870  40.0400  41.7410   C.3       1 RES1   0.0000
     2 C2      64.2710  41.4650  42.3670   C.2       1 RES1   0.0000
     3 O3      63.1580  41.9080  42.4120   O.2       1 RES1   0.0000
     4 C4      65.4370  42.1920  42.9420   C.3       1 RES1   0.0000
     5 N5      64.7874  43.5515  43.4205   N.am      1 RES1   0.0000
     6 C6      65.4805  44.5926  44.0158   C.2       1 RES1   0.0000
     7 O7      66.7367  44.5789  44.2512   O.2       1 RES1   0.0000
     8 O8      64.7006  45.8080  44.3942   O.3       1 RES1   0.0000
     9 C9      65.5569  46.8694  45.0200   C.3       1 RES1   0.0000
    10 C10     64.6764  48.0474  45.3628   C.2       1 RES1   0.0000
    11 C11     65.2319  49.1780  45.9609   C.2       1 RES1   0.0000
    12 C12     64.4150  50.2641  46.2750   C.2       1 RES1   0.0000
    13 C13     63.0501  50.2135  45.9909   C.2       1 RES1   0.0000
    14 C14     62.4913  49.0833  45.3991   C.2       1 RES1   0.0000
    15 C15     63.3076  47.9975  45.0838   C.2       1 RES1   0.0000
@<TRIPOS>BOND
     1     1     2    1
     2     2     3    2
     3     2     4    1
     4     4     5    1
     5     5     6   am
     6     6     7    2
     7     6     8    1
     8     8     9    1
     9     9    10    1
    10    10    11    2
    11    11    12    1
    12    12    13    2
    13    13    14    1
    14    14    15    2
    15    15    10    1
@<TRIPOS>SUBSTRUCTURE
     1 RES1        1 GROUP             0 ****  ****    0  
@<TRIPOS>MOLECULE
ligand_6
    15    15     1     0     0
SMALL
NO_CHARGES
****
Generated from the CSD

@<TRIPOS>ATOM
     1 C1      64.4042  40.0345  41.7688   C.3       1 RES1   0.0000
     2 C2      64.2868  41.4624  42.3878   C.2       1 RES1   0.0000
     3 O3      63.1718  41.8992  42.4426   O.2       1 RES1   0.0000
     4 C4      65.4549  42.1994  42.9457   C.3       1 RES1   0.0000
     5 N5      64.8027  43.5579  43.4236   N.am      1 RES1   0.0000
     6 C6      64.5157  44.6311  42.5963   C.2       1 RES1   0.0000
     7 O7      64.7453  44.6520  41.3391   O.2       1 RES1   0.0000
     8 O8      63.8893  45.8323  43.2235   O.3       1 RES1   0.0000
     9 C9      63.6337  46.9309  42.2340   C.3       1 RES1   0.0000
    10 C10     64.8929  47.7543  42.1044   C.2       1 RES1   0.0000
    11 C11     65.1148  48.8240  42.9709   C.2       1 RES1   0.0000
    12 C12     66.2797  49.5812  42.8481   C.2       1 RES1   0.0000
    13 C13     67.2139  49.2659  41.8610   C.2       1 RES1   0.0000
    14 C14     66.9922  48.2019  40.9901   C.2       1 RES1   0.0000
    15 C15     65.8283  47.4438  41.1131   C.2       1 RES1   0.0000
@<TRIPOS>BOND
     1     1     2    1
     2     2     3    2
     3     2     4    1
     4     4     5    1
     5     5     6   am
     6     6     7    2
     7     6     8    1
     8     8     9    1
     9     9    10    1
    10    10    11    2
    11    11    12    1
    12    12    13    2
    13    13    14    1
    14    14    15    2
    15    15    10    1
@<TRIPOS>SUBSTRUCTURE
     1 RES1        1 GROUP             0 ****  ****    0  
@<TRIPOS>MOLECULE
ligand_7
    15    15     1     0     0
SMALL
NO_CHARGES
****
Generated from the CSD

@<TRIPOS>ATOM
     1 C1      64.3695  40.0460  41.7120   C.3       1 RES1   0.0000
     2 C2      64.2548  41.4680  42.3452   C.2       1 RES1   0.0000
     3 O3      63.1440  41.9174  42.3801   O.2       1 RES1   0.0000
     4 C4      65.4184  42.1845  42.9378   C.3       1 RES1   0.0000
     5 N5      64.7714  43.5450  43.4170   N.am      1 RES1   0.0000
     6 C6      64.5157  44.6311  42.5963   C.2       1 RES1   0.0000
     7 O7      64.7738  44.6639  41.3449   O.2       1 RES1   0.0000
     8 O8      63.8893  45.8323  43.2235   O.3       1 RES1   0.0000
     9 C9      63.6337  46.9309  42.2340   C.3       1 RES1   0.0000
    10 C10     62.2971  46.6769  41.5786   C.2       1 RES1   0.0000
    11 C11     62.2341  45.9499  40.3904   C.2       1 RES1   0.0000
    12 C12     60.9973  45.7169  39.7891   C.2       1 RES1   0.0000
    13 C13     59.8331  46.2120  40.3773   C.2       1 RES1   0.0000
    14 C14     59.8935  46.9437  41.5608   C.2       1 RES1   0.0000
    15 C15     61.1296  47.1760  42.1632   C.2       1 RES1   0.0000
@<TRIPOS>BOND
     1     1     2    1
     2     2     3    2
     3     2     4    1
     4     4     5    1
     5     5     6   am
     6     6     7    2
     7     6     8    1
     8     8     9    1
     9     9    10    1
    10    10    11    2
    11    11    12    1
    12    12    13    2
    13    13    14    1
    14    14    15    2
    15    15    10    1
@<TRIPOS>SUBSTRUCTURE
     1 RES1        1 GROUP             0 ****  ****    0  
@<TRIPOS>MOLECULE
ligand_8
    15    15     1     0     0
SMALL
NO_CHARGES
****
Generated from the CSD

@<TRIPOS>ATOM
     1 C1      64.3623  40.0293  41.7498   C.3       1 RES1   0.0000
     2 C2      64.2502  41.4570  42.3704   C.2       1 RES1   0.0000
     3 O3      63.1373  41.8993  42.4224   O.2       1 RES1   0.0000
     4 C4      65.4202  42.1874  42.9328   C.3       1 RES1   0.0000
     5 N5      64.7729  43.5475  43.4127   N.am      1 RES1   0.0000
     6 C6      64.0919  43.7212  44.6063   C.2       1 RES1   0.0000
     7 O7      63.9038  42.7966  45.4685   O.2       1 RES1   0.0000
     8 O8      63.5552  45.0834  44.8977   O.3       1 RES1   0.0000
     9 C9      62.8310  45.1479  46.2103   C.3       1 RES1   0.0000
    10 C10     61.4005  44.7201  45.9838   C.2       1 RES1   0.0000
    11 C11     60.4451  45.6640  45.6091   C.2       1 RES1   0.0000
    12 C12     59.1252  45.2641  45.4001   C.2       1 RES1   0.0000
    13 C13     58.7687  43.9258  45.5675   C.2       1 RES1   0.0000
    14 C14     59.7195  42.9818  45.9476   C.2       1 RES1   0.0000
    15 C15     61.0395  43.3807  46.1557   C.2       1 RES1   0.0000
@<TRIPOS>BOND
     1     1     2    1
     2     2     3    2
     3     2     4    1
     4     4     5    1
     5     5     6   am
     6     6     7    2
     7     6     8    1
     8     8     9    1
     9     9    10    1
    10    10    11    2
    11    11    12    1
    12    12    13    2
    13    13    14    1
    14    14    15    2
    15    15    10    1
@<TRIPOS>SUBSTRUCTURE
     1 RES1        1 GROUP             0 ****  ****    0  
@<TRIPOS>MOLECULE
ligand_9
    15    15     1     0     0
SMALL
NO_CHARGES
****
Generated from the CSD

@<TRIPOS>ATOM
     1 C1      64.4154  40.0565  41.7205   C.3       1 RES1   0.0000
     2 C2      64.2952  41.4785  42.3524   C.2       1 RES1   0.0000
     3 O3      63.1836  41.9266  42.3805   O.2       1 RES1   0.0000
     4 C4      65.4543  42.1967  42.9518   C.3       1 RES1   0.0000
     5 N5      64.8022  43.5556  43.4288   N.am      1 RES1   0.0000
     6 C6      64.0919  43.7212  44.6063   C.2       1 RES1   0.0000
     7 O7      63.8769  42.7891  45.4540   O.2       1 RES1   0.0000
     8 O8      63.5552  45.0834  44.8977   O.3       1 RES1   0.0000
     9 C9      62.8310  45.1479  46.2103   C.3       1 RES1   0.0000
    10 C10     63.8455  45.4034  47.2993   C.2       1 RES1   0.0000
    11 C11     64.4265  44.3292  47.9722   C.2       1 RES1   0.0000
    12 C12     65.3639  44.5699  48.9766   C.2       1 RES1   0.0000
    13 C13     65.7135  45.8805  49.3028   C.2       1 RES1   0.0000
    14 C14     65.1304  46.9557  48.6366   C.2       1 RES1   0.0000
    15 C15     64.1940  46.7157  47.6315   C.2       1 RES1   0.0000
@<TRIPOS>BOND
     1     1     2    1
     2     2     3    2
     3     2     4    1
     4     4     5    1
     5     5     6   am
     6     6     7    2
     7     6     8    1
     8     8     9    1
     9     9    10    1
    10    10    11    2
    11    11    12    1
    12    12    13    2
    13    13    14    1
    14    14    15    2
    15    15    10    1
@<TRIPOS>SUBSTRUCTURE
     1 RES1        1 GROUP             0 ****  ****    0  
@<TRIPOS>MOLECULE
ligand_10
    15    15     1     0     0
SMALL
NO_CHARGES
****
Generated from the CSD

@<TRIPOS>ATOM
     1 C1      64.3740  40.0444  41.7196   C.3       1 RES1   0.0000
     2 C2      64.2590  41.4672  42.3509   C.2       1 RES1   0.0000
     3 O3      63.1476  41.9149  42.3884   O.2       1 RES1   0.0000
     4 C4      65.4233  42.1864  42.9390   C.3       1 RES1   0.0000
     5 N5      64.7756  43.5467  43.4179   N.am      1 RES1   0.0000
     6 C6      64.5157  44.6311  42.5963   C.2       1 RES1   0.0000
     7 O7      64.7700  44.6623  41.3441   O.2       1 RES1   0.0000
     8 O8      63.8893  45.8323  43.2235   O.3       1 RES1   0.0000
     9 C9      63.6337  46.9309  42.2340   C.3       1 RES1   0.0000
    10 C10     64.9059  47.7283  42.0722   C.2       1 RES1   0.0000
    11 C11     64.9410  48.8071  41.1894   C.2       1 RES1   0.0000
    12 C12     66.1179  49.5414  41.0438   C.2       1 RES1   0.0000
    13 C13     67.2511  49.1930  41.7794   C.2       1 RES1   0.0000
    14 C14     67.2209  48.1123  42.6573   C.2       1 RES1   0.0000
    15 C15     66.0442  47.3785  42.8042   C.2       1 RES1   0.0000
@<TRIPOS>BOND
     1     1     2    1
     2     2     3    2
     3     2     4    1
     4     4     5    1
     5     5     6   am
     6     6     7    2
     7     6     8    1
     8     8     9    1
     9     9    10    1
    10    10    11    2
    11    11    12    1
    12    12    13    2
    13    13    14    1
    14    14    15    2
    15    15    10    1
@<TRIPOS>SUBSTRUCTURE
     1 RES1        1 GROUP             0 ****  ****    0  
@<TRIPOS>MOLECULE
ligand_11
    15    15     1     0     0
SMALL
NO_CHARGES
****
Generated from the CSD

@<TRIPOS>ATOM
     1 C1      64.3985  40.0363  41.7596   C.3       1 RES1   0.0000
     2 C2      64.2816  41.4632  42.3810   C.2       1 RES1   0.0000
     3 O3      63.1672  41.9021  42.4325   O.2       1 RES1   0.0000
     4 C4      65.4489  42.1969  42.9445   C.3       1 RES1   0.0000
     5 N5      64.7976  43.5558  43.4226   N.am      1 RES1   0.0000
     6 C6      64.5157  44.6311  42.5963   C.2       1 RES1   0.0000
     7 O7      64.7499  44.6540  41.3400   O.2       1 RES1   0.0000
     8 O8      63.8893  45.8323  43.2235   O.3       1 RES1   0.0000
     9 C9      63.6337  46.9309  42.2340   C.3       1 RES1   0.0000
    10 C10     62.3181  46.6530  41.5467   C.2       1 RES1   0.0000
    11 C11     61.8512  47.5247  40.5636   C.2       1 RES1   0.0000
    12 C12     60.6360  47.2635  39.9307   C.2       1 RES1   0.0000
    13 C13     59.8955  46.1353  40.2842   C.2       1 RES1   0.0000
    14 C14     60.3563  45.2661  41.2701   C.2       1 RES1   0.0000
    15 C15     61.5717  45.5260  41.9024   C.2       1 RES1   0.0000
@<TRIPOS>BOND
     1     1     2    1
     2     2     3    2
     3     2     4    1
     4     4     5    1
     5     5     6   am
     6     6     7    2
     7     6     8    1
     8     8     9    1
     9     9    10    1
    10    10    11    2
    11    11    12    1
    12    12    13    2
    13    13    14    1
    14    14    15    2
    15    15    10    1
@<TRIPOS>SUBSTRUCTURE
     1 RES1        1 GROUP             0 ****  ****    0  
@<TRIPOS>MOLECULE
ligand_12
    15    15     1     0     0
SMALL
NO_CHARGES
****
Generated from the CSD

@<TRIPOS>ATOM
     1 C1      64.4088  40.0536  41.7228   C.3       1 RES1   0.0000
     2 C2      64.2896  41.4763  42.3533   C.2       1 RES1   0.0000
     3 O3      63.1780  41.9242  42.3833   O.2       1 RES1   0.0000
     4 C4      65.4499  42.1955  42.9493   C.3       1 RES1   0.0000
     5 N5      64.7984  43.5546  43.4266   N.am      1 RES1   0.0000
     6 C6      64.0919  43.7212  44.6063   C.2       1 RES1   0.0000
     7 O7      63.8804  42.7901  45.4560   O.2       1 RES1   0.0000
     8 O8      63.5552  45.0834  44.8977   O.3       1 RES1   0.0000
     9 C9      62.8310  45.1479  46.2103   C.3       1 RES1   0.0000
    10 C10     61.4122  44.6789  45.9922   C.2       1 RES1   0.0000
    11 C11     60.5253  44.6282  47.0671   C.2       1 RES1   0.0000
    12 C12     59.2155  44.1952  46.8608   C.2       1 RES1   0.0000
    13 C13     58.8010  43.8153  45.5840   C.2       1 RES1   0.0000
    14 C14     59.6862  43.8591  44.5097   C.2       1 RES1   0.0000
    15 C15     60.9956  44.2929  44.7150   C.2       1 RES1   0.0000
@<TRIPOS>BOND
     1     1     2    1
     2     2     3    2
     3     2     4    1
     4     4     5    1
     5     5     6   am
     6     6     7    2
     7     6     8    1
     8     8     9    1
     9     9    10    1
    10    10    11    2
    11    11    12    1
    12    12    13    2
    13    13    14    1
    14    14    15    2
    15    15    10    1
@<TRIPOS>SUBSTRUCTURE
     1 RES1        1 GROUP             0 ****  ****    0  
@<TRIPOS>MOLECULE
ligand_13
    15    15     1     0     0
SMALL
NO_CHARGES
****
Generated from the CSD

@<TRIPOS>ATOM
     1 C1      64.3709  40.0341  41.7438   C.3       1 RES1   0.0000
     2 C2      64.2575  41.4609  42.3663   C.2       1 RES1   0.0000
     3 O3      63.1449  41.9046  42.4134   O.2       1 RES1   0.0000
     4 C4      65.4256  42.1889  42.9357   C.3       1 RES1   0.0000
     5 N5      64.7776  43.5488  43.4152   N.am      1 RES1   0.0000
     6 C6      64.0919  43.7212  44.6063   C.2       1 RES1   0.0000
     7 O7      63.8995  42.7954  45.4663   O.2       1 RES1   0.0000
     8 O8      63.5552  45.0834  44.8977   O.3       1 RES1   0.0000
     9 C9      62.8310  45.1479  46.2103   C.3       1 RES1   0.0000
    10 C10     63.8505  45.3589  47.3042   C.2       1 RES1   0.0000
    11 C11     63.4355  45.4415  48.6328   C.2       1 RES1   0.0000
    12 C12     64.3807  45.6355  49.6400   C.2       1 RES1   0.0000
    13 C13     65.7326  45.7465  49.3137   C.2       1 RES1   0.0000
    14 C14     66.1495  45.6704  47.9870   C.2       1 RES1   0.0000
    15 C15     65.2051  45.4754  46.9796   C.2       1 RES1   0.0000
@<TRIPOS>BOND
     1     1     2    1
     2     2     3    2
     3     2     4    1
     4     4     5    1
     5     5     6   am
     6     6     7    2
     7     6     8    1
     8     8     9    1
     9     9    10    1
    10    10    11    2
    11    11    12    1
    12    12    13    2
    13    13    14    1
    14    14    15    2
    15    15    10    1
@<TRIPOS>SUBSTRUCTURE
     1 RES1        1 GROUP             0 ****  ****    0  
@<TRIPOS>MOLECULE
ligand_14
    15    15     1     0     0
SMALL
NO_CHARGES
****
Generated from the CSD

@<TRIPOS>ATOM
     1 C1      64.3870  40.0400  41.7410   C.3       1 RES1   0.0000
     2 C2      64.2710  41.4650  42.3670   C.2       1 RES1   0.0000
     3 O3      63.1580  41.9080  42.4120   O.2       1 RES1   0.0000
     4 C4      65.4370  42.1920  42.9420   C.3       1 RES1   0.0000
     5 N5      64.7874  43.5515  43.4205   N.am      1 RES1   0.0000
     6 C6      65.0263  44.7880  42.8438   C.2       1 RES1   0.0000
     7 O7      65.8058  44.9795  41.8491   O.2       1 RES1   0.0000
     8 O8      64.3144  45.9647  43.4245   O.3       1 RES1   0.0000
     9 C9      64.6435  47.2446  42.7138   C.3       1 RES1   0.0000
    10 C10     63.8764  48.3647  43.3753   C.2       1 RES1   0.0000
    11 C11     63.1267  49.2462  42.5973   C.2       1 RES1   0.0000
    12 C12     62.4191  50.2787  43.2127   C.2       1 RES1   0.0000
    13 C13     62.4657  50.4244  44.5994   C.2       1 RES1   0.0000
    14 C14     63.2186  49.5493  45.3785   C.2       1 RES1   0.0000
    15 C15     63.9254  48.5160  44.7641   C.2       1 RES1   0.0000
@<TRIPOS>BOND
     1     1     2    1
     2     2     3    2
     3     2     4    1
     4     4     5    1
     5     5     6   am
     6     6     7    2
     7     6     8    1
     8     8     9    1
     9     9    10    1
    10    10    11    2
    11    11    12    1
    12    12    13    2
    13    13    14    1
    14    14    15    2
    15    15    10    1
@<TRIPOS>SUBSTRUCTURE
     1 RES1        1 GROUP             0 ****  ****    0  
@<TRIPOS>MOLECULE
ligand_15
    15    15     1     0     0
SMALL
NO_CHARGES
****
Generated from the CSD

@<TRIPOS>ATOM
     1 C1      64.3870  40.0400  41.7410   C.3       1 RES1   0.0000
     2 C2      64.2710  41.4650  42.3670   C.2       1 RES1   0.0000
     3 O3      63.1580  41.9080  42.4120   O.2       1 RES1   0.0000
     4 C4      65.4370  42.1920  42.9420   C.3       1 RES1   0.0000
     5 N5      64.7874  43.5515  43.4205   N.am      1 RES1   0.0000
     6 C6      65.0263  44.7880  42.8438   C.2       1 RES1   0.0000
     7 O7      65.8058  44.9795  41.8491   O.2       1 RES1   0.0000
     8 O8      64.3144  45.9647  43.4245   O.3       1 RES1   0.0000
     9 C9      64.6435  47.2446  42.7138   C.3       1 RES1   0.0000
    10 C10     63.8764  48.3647  43.3753   C.2       1 RES1   0.0000
    11 C11     64.5415  49.5282  43.7604   C.2       1 RES1   0.0000
    12 C12     63.8288  50.5605  44.3702   C.2       1 RES1   0.0000
    13 C13     62.4583  50.4237  44.5920   C.2       1 RES1   0.0000
    14 C14     61.7924  49.2603  44.2140   C.2       1 RES1   0.0000
    15 C15     62.5041  48.2282  43.6033   C.2       1 RES1   0.0000
@<TRIPOS>BOND
     1     1     2    1
     2     2     3    2
     3     2     4    1
     4     4     5    1
     5     5     6   am
     6     6     7    2
     7     6     8    1
     8     8     9    1
     9     9    10    1
    10    10    11    2
    11    11    12    1
    12    12    13    2
    13    13    14    1
    14    14    15    2
    15    15    10    1
@<TRIPOS>SUBSTRUCTURE
     1 RES1        1 GROUP             0 ****  ****    0  
@<TRIPOS>MOLECULE
ligand_16
    15    15     1     0     0
SMALL
NO_CHARGES
****
Generated from the CSD

@<TRIPOS>ATOM
     1 C1      64.3870  40.0400  41.7410   C.3       1 RES1   0.0000
     2 C2      64.2710  41.4650  42.3670   C.2       1 RES1   0.0000
     3 O3      63.1580  41.9080  42.4120   O.2       1 RES1   0.0000
     4 C4      65.4370  42.1920  42.9420   C.3       1 RES1   0.0000
     5 N5      64.7874  43.5515  43.4205   N.am      1 RES1   0.0000
     6 C6      64.6257  43.9279  44.7436   C.2       1 RES1   0.0000
     7 O7      64.9847  43.2166  45.7431   O.2       1 RES1   0.0000
     8 O8      63.9986  45.2569  45.0070   O.3       1 RES1   0.0000
     9 C9      63.8847  45.5593  46.4722   C.3       1 RES1   0.0000
    10 C10     63.2418  46.9169  46.6274   C.2       1 RES1   0.0000
    11 C11     63.8301  47.8727  47.4547   C.2       1 RES1   0.0000
    12 C12     63.2333  49.1256  47.5943   C.2       1 RES1   0.0000
    13 C13     62.0535  49.4149  46.9081   C.2       1 RES1   0.0000
    14 C14     61.4602  48.4601  46.0858   C.2       1 RES1   0.0000
    15 C15     62.0570  47.2077  45.9449   C.2       1 RES1   0.0000
@<TRIPOS>BOND
     1     1     2    1
     2     2     3    2
     3     2     4    1
     4     4     5    1
     5     5     6   am
     6     6     7    2
     7     6     8    1
     8     8     9    1
     9     9    10    1
    10    10    11    2
    11    11    12    1
    12    12    13    2
    13    13    14    1
    14    14    15    2
    15    15    10    1
@<TRIPOS>SUBSTRUCTURE
     1 RES1        1 GROUP             0 ****  ****    0  
@<TRIPOS>MOLECULE
ligand_17
    15    15     1     0     0
SMALL
NO_CHARGES
****
Generated from the CSD

@<TRIPOS>ATOM
     1 C1      64.3870  40.0400  41.7410   C.3       1 RES1   0.0000
     2 C2      64.2710  41.4650  42.3670   C.2       1 RES1   0.0000
     3 O3      63.1580  41.9080  42.4120   O.2       1 RES1   0.0000
     4 C4      65.4370  42.1920  42.9420   C.3       1 RES1   0.0000
     5 N5      64.7874  43.5515  43.4205   N.am      1 RES1   0.0000
     6 C6      64.6257  43.9279  44.7436   C.2       1 RES1   0.0000
     7 O7      64.9847  43.2166  45.7431   O.2       1 RES1   0.0000
     8 O8      63.9986  45.2569  45.0070   O.3       1 RES1   0.0000
     9 C9      63.8847  45.5593  46.4722   C.3       1 RES1   0.0000
    10 C10     63.2418  46.9169  46.6274   C.2       1 RES1   0.0000
    11 C11     62.1571  47.0765  47.4890   C.2       1 RES1   0.0000
    12 C12     61.5671  48.3325  47.6298   C.2       1 RES1   0.0000
    13 C13     62.0630  49.4192  46.9092   C.2       1 RES1   0.0000
    14 C14     63.1423  49.2616  46.0432   C.2       1 RES1   0.0000
    15 C15     63.7335  48.0064  45.9028   C.2       1 RES1   0.0000
@<TRIPOS>BOND
     1     1     2    1
     2     2     3    2
     3     2     4    1
     4     4     5    1
     5     5     6   am
     6     6     7    2
     7     6     8    1
     8     8     9    1
     9     9    10    1
    10    10    11    2
    11    11    12    1
    12    12    13    2
    13    13    14    1
    14    14    15    2
    15    15    10    1
@<TRIPOS>SUBSTRUCTURE
     1 RES1        1 GROUP             0 ****  ****    0  
@<TRIPOS>MOLECULE
ligand_18
    15    15     1     0     0
SMALL
NO_CHARGES
****
Generated from the CSD

@<TRIPOS>ATOM
     1 C1      64.3777  40.0201  41.7859   C.3       1 RES1   0.0000
     2 C2      64.2637  41.4491  42.4030   C.2       1 RES1   0.0000
     3 O3      63.1497  41.8886  42.4573   O.2       1 RES1   0.0000
     4 C4      65.4335  42.1842  42.9597   C.3       1 RES1   0.0000
     5 N5      64.7844  43.5449  43.4357   N.am      1 RES1   0.0000
     6 C6      65.4805  44.5926  44.0158   C.2       1 RES1   0.0000
     7 O7      66.7393  44.5849  44.2372   O.2       1 RES1   0.0000
     8 O8      64.7006  45.8080  44.3942   O.3       1 RES1   0.0000
     9 C9      65.5569  46.8694  45.0200   C.3       1 RES1   0.0000
    10 C10     65.6679  46.5785  46.4977   C.2       1 RES1   0.0000
    11 C11     64.7090  47.0793  47.3774   C.2       1 RES1   0.0000
    12 C12     64.8151  46.8072  48.7413   C.2       1 RES1   0.0000
    13 C13     65.8777  46.0385  49.2171   C.2       1 RES1   0.0000
    14 C14     66.8404  45.5420  48.3416   C.2       1 RES1   0.0000
    15 C15     66.7343  45.8126  46.9777   C.2       1 RES1   0.0000
@<TRIPOS>BOND
     1     1     2    1
     2     2     3    2
     3     2     4    1
     4     4     5    1
     5     5     6   am
     6     6     7    2
     7     6     8    1
     8     8     9    1
     9     9    10    1
    10    10    11    2
    11    11    12    1
    12    12    13    2
    13    13    14    1
    14    14    15    2
    15    15    10    1
@<TRIPOS>SUBSTRUCTURE
     1 RES1        1 GROUP             0 ****  ****    0  
@<TRIPOS>MOLECULE
ligand_19
    15    15     1     0     0
SMALL
NO_CHARGES
****
Generated from the CSD

@<TRIPOS>ATOM
     1 C1      64.3973  40.0610  41.6946   C.3       1 RES1   0.0000
     2 C2      64.2791  41.4818  42.3298   C.2       1 RES1   0.0000
     3 O3      63.1672  41.9285  42.3652   O.2       1 RES1   0.0000
     4 C4      65.4409  42.2002  42.9237   C.3       1 RES1   0.0000
     5 N5      64.7906  43.5585  43.4047   N.am      1 RES1   0.0000
     6 C6      65.4805  44.5926  44.0158   C.2       1 RES1   0.0000
     7 O7      66.7338  44.5725  44.2656   O.2       1 RES1   0.0000
     8 O8      64.7006  45.8080  44.3942   O.3       1 RES1   0.0000
     9 C9      65.5569  46.8694  45.0200   C.3       1 RES1   0.0000
    10 C10     66.1629  47.7018  43.9153   C.2       1 RES1   0.0000
    11 C11     67.4145  47.3660  43.4005   C.2       1 RES1   0.0000
    12 C12     67.9700  48.1371  42.3795   C.2       1 RES1   0.0000
    13 C13     67.2729  49.2379  41.8808   C.2       1 RES1   0.0000
    14 C14     66.0253  49.5794  42.3972   C.2       1 RES1   0.0000
    15 C15     65.4688  48.8082  43.4172   C.2       1 RES1   0.0000
@<TRIPOS>BOND
     1     1     2    1
     2     2     3    2
     3     2     4    1
     4     4     5    1
     5     5     6   am
     6     6     7    2
     7     6     8    1
     8     8     9    1
     9     9    10    1
    10    10    11    2
    11    11    12    1
    12    12    13    2
    13    13    14    1
    14    14    15    2
    15    15    10    1
@<TRIPOS>SUBSTRUCTURE
     1 RES1        1 GROUP             0 ****  ****    0  
@<TRIPOS>MOLECULE
ligand_20
    15    15     1     0     0
SMALL
NO_CHARGES
****
Generated from the CSD

@<TRIPOS>ATOM
     1 C1      64.3945  40.0555  41.7066   C.3       1 RES1   0.0000
     2 C2      64.2769  41.4774  42.3395   C.2       1 RES1   0.0000
     3 O3      63.1648  41.9231  42.3774   O.2       1 RES1   0.0000
     4 C4      65.4399  42.1981  42.9284   C.3       1 RES1   0.0000
     5 N5      64.7897  43.5567  43.4088   N.am      1 RES1   0.0000
     6 C6      65.4805  44.5926  44.0158   C.2       1 RES1   0.0000
     7 O7      66.7346  44.5742  44.2619   O.2       1 RES1   0.0000
     8 O8      64.7006  45.8080  44.3942   O.3       1 RES1   0.0000
     9 C9      65.5569  46.8694  45.0200   C.3       1 RES1   0.0000
    10 C10     65.7033  46.5547  46.4897   C.2       1 RES1   0.0000
    11 C11     66.4710  47.3862  47.3042   C.2       1 RES1   0.0000
    12 C12     66.6027  47.0921  48.6613   C.2       1 RES1   0.0000
    13 C13     65.9682  45.9701  49.1951   C.2       1 RES1   0.0000
    14 C14     65.2057  45.1343  48.3828   C.2       1 RES1   0.0000
    15 C15     65.0727  45.4284  47.0262   C.2       1 RES1   0.0000
@<TRIPOS>BOND
     1     1     2    1
     2     2     3    2
     3     2     4    1
     4     4     5    1
     5     5     6   am
     6     6     7    2
     7     6     8    1
     8     8     9    1
     9     9    10    1
    10    10    11    2
    11    11    12    1
    12    12    13    2
    13    13    14    1
    14    14    15    2
    15    15    10    1
@<TRIPOS>SUBSTRUCTURE
     1 RES1        1 GROUP             0 ****  ****    0  
@<TRIPOS>MOLECULE
ligand_21
    15    15     1     0     0
SMALL
NO_CHARGES
****
Generated from the CSD

@<TRIPOS>ATOM
     1 C1      64.3807  40.0266  41.7710   C.3       1 RES1   0.0000
     2 C2      64.2661  41.4543  42.3911   C.2       1 RES1   0.0000
     3 O3      63.1524  41.8950  42.4423   O.2       1 RES1   0.0000
     4 C4      65.4346  42.1868  42.9538   C.3       1 RES1   0.0000
     5 N5      64.7854  43.5471  43.4307   N.am      1 RES1   0.0000
     6 C6      65.4805  44.5926  44.0158   C.2       1 RES1   0.0000
     7 O7      66.7385  44.5829  44.2418   O.2       1 RES1   0.0000
     8 O8      64.7006  45.8080  44.3942   O.3       1 RES1   0.0000
     9 C9      65.5569  46.8694  45.0200   C.3       1 RES1   0.0000
    10 C10     66.1982  47.6738  43.9145   C.2       1 RES1   0.0000
    11 C11     67.0602  48.7233  44.2305   C.2       1 RES1   0.0000
    12 C12     67.6511  49.4629  43.2061   C.2       1 RES1   0.0000
    13 C13     67.3766  49.1504  41.8744   C.2       1 RES1   0.0000
    14 C14     66.5112  48.1066  41.5558   C.2       1 RES1   0.0000
    15 C15     65.9210  47.3660  42.5794   C.2       1 RES1   0.0000
@<TRIPOS>BOND
     1     1     2    1
     2     2     3    2
     3     2     4    1
     4     4     5    1
     5     5     6   am
     6     6     7    2
     7     6     8    1
     8     8     9    1
     9     9    10    1
    10    10    11    2
    11    11    12    1
    12    12    13    2
    13    13    14    1
    14    14    15    2
    15    15    10    1
@<TRIPOS>SUBSTRUCTURE
     1 RES1        1 GROUP             0 ****  ****    0  
@<TRIPOS>MOLECULE
ligand_22
    15    15     1     0     0
SMALL
NO_CHARGES
****
Generated from the CSD

@<TRIPOS>ATOM
     1 C1      64.4028  40.0349  41.7666   C.3       1 RES1   0.0000
     2 C2      64.2856  41.4626  42.3862   C.2       1 RES1   0.0000
     3 O3      63.1708  41.8999  42.4402   O.2       1 RES1   0.0000
     4 C4      65.4535  42.1988  42.9455   C.3       1 RES1   0.0000
     5 N5      64.8015  43.5574  43.4234   N.am      1 RES1   0.0000
     6 C6      64.5157  44.6311  42.5963   C.2       1 RES1   0.0000
     7 O7      64.7464  44.6525  41.3393   O.2       1 RES1   0.0000
     8 O8      63.8893  45.8323  43.2235   O.3       1 RES1   0.0000
     9 C9      63.6337  46.9309  42.2340   C.3       1 RES1   0.0000
    10 C10     63.6899  48.2506  42.9661   C.2       1 RES1   0.0000
    11 C11     62.6580  49.1753  42.8097   C.2       1 RES1   0.0000
    12 C12     62.7137  50.3924  43.4886   C.2       1 RES1   0.0000
    13 C13     63.7989  50.6781  44.3174   C.2       1 RES1   0.0000
    14 C14     64.8341  49.7591  44.4708   C.2       1 RES1   0.0000
    15 C15     64.7785  48.5415  43.7933   C.2       1 RES1   0.0000
@<TRIPOS>BOND
     1     1     2    1
     2     2     3    2
     3     2     4    1
     4     4     5    1
     5     5     6   am
     6     6     7    2
     7     6     8    1
     8     8     9    1
     9     9    10    1
    10    10    11    2
    11    11    12    1
    12    12    13    2
    13    13    14    1
    14    14    15    2
    15    15    10    1
@<TRIPOS>SUBSTRUCTURE
     1 RES1        1 GROUP             0 ****  ****    0  
@<TRIPOS>MOLECULE
ligand_23
    15    15     1     0     0
SMALL
NO_CHARGES
****
Generated from the CSD

@<TRIPOS>ATOM
     1 C1      64.4028  40.0349  41.7666   C.3       1 RES1   0.0000
     2 C2      64.2856  41.4626  42.3862   C.2       1 RES1   0.0000
     3 O3      63.1708  41.8999  42.4402   O.2       1 RES1   0.0000
     4 C4      65.4535  42.1988  42.9455   C.3       1 RES1   0.0000
     5 N5      64.8015  43.5574  43.4234   N.am      1 RES1   0.0000
     6 C6      64.5157  44.6311  42.5963   C.2       1 RES1   0.0000
     7 O7      64.7464  44.6525  41.3393   O.2       1 RES1   0.0000
     8 O8      63.8893  45.8323  43.2235   O.3       1 RES1   0.0000
     9 C9      63.6337  46.9309  42.2340   C.3       1 RES1   0.0000
    10 C10     63.6899  48.2506  42.9661   C.2       1 RES1   0.0000
    11 C11     64.4754  49.2885  42.4660   C.2       1 RES1   0.0000
    12 C12     64.5236  50.5059  43.1450   C.2       1 RES1   0.0000
    13 C13     63.7885  50.6781  44.3182   C.2       1 RES1   0.0000
    14 C14     63.0078  49.6413  44.8234   C.2       1 RES1   0.0000
    15 C15     62.9583  48.4242  44.1445   C.2       1 RES1   0.0000
@<TRIPOS>BOND
     1     1     2    1
     2     2     3    2
     3     2     4    1
     4     4     5    1
     5     5     6   am
     6     6     7    2
     7     6     8    1
     8     8     9    1
     9     9    10    1
    10    10    11    2
    11    11    12    1
    12    12    13    2
    13    13    14    1
    14    14    15    2
    15    15    10    1
@<TRIPOS>SUBSTRUCTURE
     1 RES1        1 GROUP             0 ****  ****    0  
@<TRIPOS>MOLECULE
ligand_24
    15    15     1     0     0
SMALL
NO_CHARGES
****
Generated from the CSD

@<TRIPOS>ATOM
     1 C1      64.4126  40.0554  41.7211   C.3       1 RES1   0.0000
     2 C2      64.2928  41.4777  42.3524   C.2       1 RES1   0.0000
     3 O3      63.1813  41.9258  42.3811   O.2       1 RES1   0.0000
     4 C4      65.4524  42.1962  42.9507   C.3       1 RES1   0.0000
     5 N5      64.8006  43.5552  43.4278   N.am      1 RES1   0.0000
     6 C6      64.0919  43.7212  44.6063   C.2       1 RES1   0.0000
     7 O7      63.8784  42.7895  45.4549   O.2       1 RES1   0.0000
     8 O8      63.5552  45.0834  44.8977   O.3       1 RES1   0.0000
     9 C9      62.8310  45.1479  46.2103   C.3       1 RES1   0.0000
    10 C10     62.9488  46.5542  46.7480   C.2       1 RES1   0.0000
    11 C11     63.3677  46.7619  48.0617   C.2       1 RES1   0.0000
    12 C12     63.4760  48.0625  48.5537   C.2       1 RES1   0.0000
    13 C13     63.1646  49.1458  47.7317   C.2       1 RES1   0.0000
    14 C14     62.7401  48.9413  46.4210   C.2       1 RES1   0.0000
    15 C15     62.6327  47.6413  45.9280   C.2       1 RES1   0.0000
@<TRIPOS>BOND
     1     1     2    1
     2     2     3    2
     3     2     4    1
     4     4     5    1
     5     5     6   am
     6     6     7    2
     7     6     8    1
     8     8     9    1
     9     9    10    1
    10    10    11    2
    11    11    12    1
    12    12    13    2
    13    13    14    1
    14    14    15    2
    15    15    10    1
@<TRIPOS>SUBSTRUCTURE
     1 RES1        1 GROUP             0 ****  ****    0  
@<TRIPOS>MOLECULE
ligand_25
    15    15     1     0     0
SMALL
NO_CHARGES
****
Generated from the CSD

@<TRIPOS>ATOM
     1 C1      64.4126  40.0554  41.7211   C.3       1 RES1   0.0000
     2 C2      64.2928  41.4777  42.3524   C.2       1 RES1   0.0000
     3 O3      63.1813  41.9258  42.3811   O.2       1 RES1   0.0000
     4 C4      65.4524  42.1962  42.9507   C.3       1 RES1   0.0000
     5 N5      64.8006  43.5552  43.4278   N.am      1 RES1   0.0000
     6 C6      64.0919  43.7212  44.6063   C.2       1 RES1   0.0000
     7 O7      63.8784  42.7895  45.4549   O.2       1 RES1   0.0000
     8 O8      63.5552  45.0834  44.8977   O.3       1 RES1   0.0000
     9 C9      62.8310  45.1479  46.2103   C.3       1 RES1   0.0000
    10 C10     62.9488  46.5542  46.7480   C.2       1 RES1   0.0000
    11 C11     61.8077  47.2305  47.1779   C.2       1 RES1   0.0000
    12 C12     61.9215  48.5289  47.6746   C.2       1 RES1   0.0000
    13 C13     63.1726  49.1429  47.7376   C.2       1 RES1   0.0000
    14 C14     64.3133  48.4721  47.3033   C.2       1 RES1   0.0000
    15 C15     64.2005  47.1736  46.8076   C.2       1 RES1   0.0000
@<TRIPOS>BOND
     1     1     2    1
     2     2     3    2
     3     2     4    1
     4     4     5    1
     5     5     6   am
     6     6     7    2
     7     6     8    1
     8     8     9    1
     9     9    10    1
    10    10    11    2
    11    11    12    1
    12    12    13    2
    13    13    14    1
    14    14    15    2
    15    15    10    1
@<TRIPOS>SUBSTRUCTURE
     1 RES1        1 GROUP             0 ****  ****    0  
@<TRIPOS>MOLECULE
ligand_26
    15    15     1     0     0
SMALL
NO_CHARGES
****
Generated from the CSD

@<TRIPOS>ATOM
     1 C1      64.3790  40.0464  41.7182   C.3       1 RES1   0.0000
     2 C2      64.2635  41.4693  42.3491   C.2       1 RES1   0.0000
     3 O3      63.1517  41.9157  42.3886   O.2       1 RES1   0.0000
     4 C4      65.4281  42.1903  42.9344   C.3       1 RES1   0.0000
     5 N5      64.7797  43.5500  43.4141   N.am      1 RES1   0.0000
     6 C6      65.0263  44.7880  42.8438   C.2       1 RES1   0.0000
     7 O7      65.8129  44.9809  41.8549   O.2       1 RES1   0.0000
     8 O8      64.3144  45.9647  43.4245   O.3       1 RES1   0.0000
     9 C9      64.6435  47.2446  42.7138   C.3       1 RES1   0.0000
    10 C10     65.9400  47.7783  43.2747   C.2       1 RES1   0.0000
    11 C11     66.9672  48.1548  42.4101   C.2       1 RES1   0.0000
    12 C12     68.1627  48.6480  42.9327   C.2       1 RES1   0.0000
    13 C13     68.3246  48.7609  44.3137   C.2       1 RES1   0.0000
    14 C14     67.3027  48.3799  45.1800   C.2       1 RES1   0.0000
    15 C15     66.1068  47.8877  44.6583   C.2       1 RES1   0.0000
@<TRIPOS>BOND
     1     1     2    1
     2     2     3    2
     3     2     4    1
     4     4     5    1
     5     5     6   am
     6     6     7    2
     7     6     8    1
     8     8     9    1
     9     9    10    1
    10    10    11    2
    11    11    12    1
    12    12    13    2
    13    13    14    1
    14    14    15    2
    15    15    10    1
@<TRIPOS>SUBSTRUCTURE
     1 RES1        1 GROUP             0 ****  ****    0  
@<TRIPOS>MOLECULE
ligand_27
    15    15     1     0     0
SMALL
NO_CHARGES
****
Generated from the CSD

@<TRIPOS>ATOM
     1 C1      64.3951  40.0337  41.7638   C.3       1 RES1   0.0000
     2 C2      64.2786  41.4608  42.3849   C.2       1 RES1   0.0000
     3 O3      63.1645  41.9004  42.4354   O.2       1 RES1   0.0000
     4 C4      65.4460  42.1937  42.9495   C.3       1 RES1   0.0000
     5 N5      64.7951  43.5530  43.4268   N.am      1 RES1   0.0000
     6 C6      65.0263  44.7880  42.8438   C.2       1 RES1   0.0000
     7 O7      65.7988  44.9780  41.8433   O.2       1 RES1   0.0000
     8 O8      64.3144  45.9647  43.4245   O.3       1 RES1   0.0000
     9 C9      64.6435  47.2446  42.7138   C.3       1 RES1   0.0000
    10 C10     63.7669  47.3451  41.4883   C.2       1 RES1   0.0000
    11 C11     64.3377  47.6306  40.2485   C.2       1 RES1   0.0000
    12 C12     63.5242  47.7215  39.1191   C.2       1 RES1   0.0000
    13 C13     62.1475  47.5279  39.2354   C.2       1 RES1   0.0000
    14 C14     61.5738  47.2486  40.4734   C.2       1 RES1   0.0000
    15 C15     62.3866  47.1564  41.6028   C.2       1 RES1   0.0000
@<TRIPOS>BOND
     1     1     2    1
     2     2     3    2
     3     2     4    1
     4     4     5    1
     5     5     6   am
     6     6     7    2
     7     6     8    1
     8     8     9    1
     9     9    10    1
    10    10    11    2
    11    11    12    1
    12    12    13    2
    13    13    14    1
    14    14    15    2
    15    15    10    1
@<TRIPOS>SUBSTRUCTURE
     1 RES1        1 GROUP             0 ****  ****    0  
@<TRIPOS>MOLECULE
ligand_28
    15    15     1     0     0
SMALL
NO_CHARGES
****
Generated from the CSD

@<TRIPOS>ATOM
     1 C1      64.4034  40.0507  41.7259   C.3       1 RES1   0.0000
     2 C2      64.2849  41.4737  42.3560   C.2       1 RES1   0.0000
     3 O3      63.1722  41.9182  42.3943   O.2       1 RES1   0.0000
     4 C4      65.4477  42.1970  42.9420   C.3       1 RES1   0.0000
     5 N5      64.7965  43.5558  43.4204   N.am      1 RES1   0.0000
     6 C6      64.6257  43.9279  44.7436   C.2       1 RES1   0.0000
     7 O7      64.9764  43.2127  45.7432   O.2       1 RES1   0.0000
     8 O8      63.9986  45.2569  45.0070   O.3       1 RES1   0.0000
     9 C9      63.8847  45.5593  46.4722   C.3       1 RES1   0.0000
    10 C10     62.6378  44.8896  46.9988   C.2       1 RES1   0.0000
    11 C11     62.7061  44.0999  48.1460   C.2       1 RES1   0.0000
    12 C12     61.5517  43.4841  48.6292   C.2       1 RES1   0.0000
    13 C13     60.3383  43.6600  47.9637   C.2       1 RES1   0.0000
    14 C14     60.2681  44.4433  46.8142   C.2       1 RES1   0.0000
    15 C15     61.4217  45.0602  46.3311   C.2       1 RES1   0.0000
@<TRIPOS>BOND
     1     1     2    1
     2     2     3    2
     3     2     4    1
     4     4     5    1
     5     5     6   am
     6     6     7    2
     7     6     8    1
     8     8     9    1
     9     9    10    1
    10    10    11    2
    11    11    12    1
    12    12    13    2
    13    13    14    1
    14    14    15    2
    15    15    10    1
@<TRIPOS>SUBSTRUCTURE
     1 RES1        1 GROUP             0 ****  ****    0  
@<TRIPOS>MOLECULE
ligand_29
    15    15     1     0     0
SMALL
NO_CHARGES
****
Generated from the CSD

@<TRIPOS>ATOM
     1 C1      64.3707  40.0293  41.7563   C.3       1 RES1   0.0000
     2 C2      64.2572  41.4563  42.3782   C.2       1 RES1   0.0000
     3 O3      63.1439  41.8978  42.4298   O.2       1 RES1   0.0000
     4 C4      65.4263  42.1869  42.9421   C.3       1 RES1   0.0000
     5 N5      64.7782  43.5472  43.4206   N.am      1 RES1   0.0000
     6 C6      64.6257  43.9279  44.7436   C.2       1 RES1   0.0000
     7 O7      64.9931  43.2206  45.7429   O.2       1 RES1   0.0000
     8 O8      63.9986  45.2569  45.0070   O.3       1 RES1   0.0000
     9 C9      63.8847  45.5593  46.4722   C.3       1 RES1   0.0000
    10 C10     65.2075  46.1126  46.9461   C.2       1 RES1   0.0000
    11 C11     65.8155  45.5797  48.0823   C.2       1 RES1   0.0000
    12 C12     67.0377  46.0933  48.5157   C.2       1 RES1   0.0000
    13 C13     67.6434  47.1352  47.8130   C.2       1 RES1   0.0000
    14 C14     67.0356  47.6736  46.6814   C.2       1 RES1   0.0000
    15 C15     65.8142  47.1599  46.2468   C.2       1 RES1   0.0000
@<TRIPOS>BOND
     1     1     2    1
     2     2     3    2
     3     2     4    1
     4     4     5    1
     5     5     6   am
     6     6     7    2
     7     6     8    1
     8     8     9    1
     9     9    10    1
    10    10    11    2
    11    11    12    1
    12    12    13    2
    13    13    14    1
    14    14    15    2
    15    15    10    1
@<TRIPOS>SUBSTRUCTURE
     1 RES1        1 GROUP             0 ****  ****    0  
@<TRIPOS>MOLECULE
ligand_30
    15    15     1     0     0
SMALL
NO_CHARGES
****
Generated from the CSD

@<TRIPOS>ATOM
     1 C1      64.3529  40.0695  41.6395   C.3       1 RES1   0.0000
     2 C2      64.2387  41.4850  42.2869   C.2       1 RES1   0.0000
     3 O3      63.1312  41.9432  42.3078   O.2       1 RES1   0.0000
     4 C4      65.3977  42.1850  42.9079   C.3       1 RES1   0.0000
     5 N5      64.7535  43.5453  43.3915   N.am      1 RES1   0.0000
     6 C6      65.0263  44.7880  42.8438   C.2       1 RES1   0.0000
     7 O7      65.8369  44.9853  41.8754   O.2       1 RES1   0.0000
     8 O8      64.3144  45.9647  43.4245   O.3       1 RES1   0.0000
     9 C9      64.6435  47.2446  42.7138   C.3       1 RES1   0.0000
    10 C10     63.6218  47.4567  41.6222   C.2       1 RES1   0.0000
    11 C11     62.9666  48.6828  41.5138   C.2       1 RES1   0.0000
    12 C12     62.0244  48.8746  40.5034   C.2       1 RES1   0.0000
    13 C13     61.7423  47.8412  39.6096   C.2       1 RES1   0.0000
    14 C14     62.3907  46.6134  39.7190   C.2       1 RES1   0.0000
    15 C15     63.3337  46.4214  40.7283   C.2       1 RES1   0.0000
@<TRIPOS>BOND
     1     1     2    1
     2     2     3    2
     3     2     4    1
     4     4     5    1
     5     5     6   am
     6     6     7    2
     7     6     8    1
     8     8     9    1
     9     9    10    1
    10    10    11    2
    11    11    12    1
    12    12    13    2
    13    13    14    1
    14    14    15    2
    15    15    10    1
@<TRIPOS>SUBSTRUCTURE
     1 RES1        1 GROUP             0 ****  ****    0  
@<TRIPOS>MOLECULE
ligand_31
    15    15     1     0     0
SMALL
NO_CHARGES
****
Generated from the CSD

@<TRIPOS>ATOM
     1 C1      64.4610  40.0880  41.6750   C.3       1 RES1   0.0000
     2 C2      64.3334  41.5040  42.3189   C.2       1 RES1   0.0000
     3 O3      63.2223  41.9537  42.3345   O.2       1 RES1   0.0000
     4 C4      65.4846  42.2143  42.9427   C.3       1 RES1   0.0000
     5 N5      64.8281  43.5707  43.4208   N.am      1 RES1   0.0000
     6 C6      64.6257  43.9279  44.7436   C.2       1 RES1   0.0000
     7 O7      64.9475  43.1991  45.7431   O.2       1 RES1   0.0000
     8 O8      63.9986  45.2569  45.0070   O.3       1 RES1   0.0000
     9 C9      63.8847  45.5593  46.4722   C.3       1 RES1   0.0000
    10 C10     65.1203  46.3162  46.8973   C.2       1 RES1   0.0000
    11 C11     64.9932  47.5026  47.6190   C.2       1 RES1   0.0000
    12 C12     66.1373  48.1979  48.0103   C.2       1 RES1   0.0000
    13 C13     67.3993  47.7048  47.6778   C.2       1 RES1   0.0000
    14 C14     67.5293  46.5234  46.9518   C.2       1 RES1   0.0000
    15 C15     66.3859  45.8271  46.5612   C.2       1 RES1   0.0000
@<TRIPOS>BOND
     1     1     2    1
     2     2     3    2
     3     2     4    1
     4     4     5    1
     5     5     6   am
     6     6     7    2
     7     6     8    1
     8     8     9    1
     9     9    10    1
    10    10    11    2
    11    11    12    1
    12    12    13    2
    13    13    14    1
    14    14    15    2
    15    15    10    1
@<TRIPOS>SUBSTRUCTURE
     1 RES1        1 GROUP             0 ****  ****    0  
@<TRIPOS>MOLECULE
ligand_32
    15    15     1     0     0
SMALL
NO_CHARGES
****
Generated from the CSD

@<TRIPOS>ATOM
     1 C1      64.4258  40.0119  41.8455   C.3       1 RES1   0.0000
     2 C2      64.3071  41.4463  42.4492   C.2       1 RES1   0.0000
     3 O3      63.1894  41.8739  42.5197   O.2       1 RES1   0.0000
     4 C4      65.4786  42.2004  42.9759   C.3       1 RES1   0.0000
     5 N5      64.8232  43.5589  43.4494   N.am      1 RES1   0.0000
     6 C6      65.0263  44.7880  42.8438   C.2       1 RES1   0.0000
     7 O7      65.7730  44.9725  41.8229   O.2       1 RES1   0.0000
     8 O8      64.3144  45.9647  43.4245   O.3       1 RES1   0.0000
     9 C9      64.6435  47.2446  42.7138   C.3       1 RES1   0.0000
    10 C10     65.8096  47.8930  43.4210   C.2       1 RES1   0.0000
    11 C11     65.7369  49.2353  43.7919   C.2       1 RES1   0.0000
    12 C12     66.8160  49.8297  44.4457   C.2       1 RES1   0.0000
    13 C13     67.9598  49.0809  44.7237   C.2       1 RES1   0.0000
    14 C14     68.0378  47.7417  44.3491   C.2       1 RES1   0.0000
    15 C15     66.9588  47.1464  43.6963   C.2       1 RES1   0.0000
@<TRIPOS>BOND
     1     1     2    1
     2     2     3    2
     3     2     4    1
     4     4     5    1
     5     5     6   am
     6     6     7    2
     7     6     8    1
     8     8     9    1
     9     9    10    1
    10    10    11    2
    11    11    12    1
    12    12    13    2
    13    13    14    1
    14    14    15    2
    15    15    10    1
@<TRIPOS>SUBSTRUCTURE
     1 RES1        1 GROUP             0 ****  ****    0  
@<TRIPOS>MOLECULE
ligand_33
    15    15     1     0     0
SMALL
NO_CHARGES
****
Generated from the CSD

@<TRIPOS>ATOM
     1 C1      64.3131  39.9909  41.8126   C.3       1 RES1   0.0000
     2 C2      64.2083  41.4250  42.4195   C.2       1 RES1   0.0000
     3 O3      63.0944  41.8615  42.4951   O.2       1 RES1   0.0000
     4 C4      65.3879  42.1686  42.9433   C.3       1 RES1   0.0000
     5 N5      64.7453  43.5314  43.4219   N.am      1 RES1   0.0000
     6 C6      64.6257  43.9279  44.7436   C.2       1 RES1   0.0000
     7 O7      65.0231  43.2350  45.7415   O.2       1 RES1   0.0000
     8 O8      63.9986  45.2569  45.0070   O.3       1 RES1   0.0000
     9 C9      63.8847  45.5593  46.4722   C.3       1 RES1   0.0000
    10 C10     62.5330  45.0852  46.9503   C.2       1 RES1   0.0000
    11 C11     61.7169  45.9438  47.6859   C.2       1 RES1   0.0000
    12 C12     60.4687  45.5020  48.1245   C.2       1 RES1   0.0000
    13 C13     60.0449  44.2065  47.8269   C.2       1 RES1   0.0000
    14 C14     60.8604  43.3446  47.0976   C.2       1 RES1   0.0000
    15 C15     62.1079  43.7861  46.6577   C.2       1 RES1   0.0000
@<TRIPOS>BOND
     1     1     2    1
     2     2     3    2
     3     2     4    1
     4     4     5    1
     5     5     6   am
     6     6     7    2
     7     6     8    1
     8     8     9    1
     9     9    10    1
    10    10    11    2
    11    11    12    1
    12    12    13    2
    13    13    14    1
    14    14    15    2
    15    15    10    1
@<TRIPOS>SUBSTRUCTURE
     1 RES1        1 GROUP             0 ****  ****    0  
@<TRIPOS>MOLECULE
ligand_34
    15    15     1     0     0
SMALL
NO_CHARGES
****
Generated from the CSD

@<TRIPOS>ATOM
     1 C1      64.3870  40.0400  41.7410   C.3       1 RES1   0.0000
     2 C2      64.2710  41.4650  42.3670   C.2       1 RES1   0.0000
     3 O3      63.1580  41.9080  42.4120   O.2       1 RES1   0.0000
     4 C4      65.4370  42.1920  42.9420   C.3       1 RES1   0.0000
     5 N5      66.5320  42.0238  41.8142   N.am      1 RES1   0.0000
     6 C6      66.6109  42.7964  40.6673   C.2       1 RES1   0.0000
     7 O7      65.8026  43.7443  40.3813   O.2       1 RES1   0.0000
     8 O8      67.7219  42.4995  39.7154   O.3       1 RES1   0.0000
     9 C9      67.7114  43.4042  38.5184   C.3       1 RES1   0.0000
    10 C10     68.8676  43.0221  37.6253   C.2       1 RES1   0.0000
    11 C11     70.1103  43.6299  37.8009   C.2       1 RES1   0.0000
    12 C12     71.1756  43.2732  36.9743   C.2       1 RES1   0.0000
    13 C13     70.9928  42.3136  35.9783   C.2       1 RES1   0.0000
    14 C14     69.7513  41.7091  35.7966   C.2       1 RES1   0.0000
    15 C15     68.6860  42.0645  36.6234   C.2       1 RES1   0.0000
@<TRIPOS>BOND
     1     1     2    1
     2     2     3    2
     3     2     4    1
     4     4     5    1
     5     5     6   am
     6     6     7    2
     7     6     8    1
     8     8     9    1
     9     9    10    1
    10    10    11    2
    11    11    12    1
    12    12    13    2
    13    13    14    1
    14    14    15    2
    15    15    10    1
@<TRIPOS>SUBSTRUCTURE
     1 RES1        1 GROUP             0 ****  ****    0  
@<TRIPOS>MOLECULE
ligand_35
    15    15     1     0     0
SMALL
NO_CHARGES
****
Generated from the CSD

@<TRIPOS>ATOM
     1 C1      64.3870  40.0400  41.7410   C.3       1 RES1   0.0000
     2 C2      64.2710  41.4650  42.3670   C.2       1 RES1   0.0000
     3 O3      63.1580  41.9080  42.4120   O.2       1 RES1   0.0000
     4 C4      65.4370  42.1920  42.9420   C.3       1 RES1   0.0000
     5 N5      66.2171  41.0414  43.6949   N.am      1 RES1   0.0000
     6 C6      65.8933  40.5583  44.9521   C.2       1 RES1   0.0000
     7 O7      64.9187  40.9877  45.6589   O.2       1 RES1   0.0000
     8 O8      66.7393  39.4585  45.5030   O.3       1 RES1   0.0000
     9 C9      66.2887  39.0119  46.8627   C.3       1 RES1   0.0000
    10 C10     67.2049  37.9042  47.3255   C.2       1 RES1   0.0000
    11 C11     66.8953  36.5777  47.0274   C.2       1 RES1   0.0000
    12 C12     67.7450  35.5580  47.4561   C.2       1 RES1   0.0000
    13 C13     68.8964  35.8695  48.1796   C.2       1 RES1   0.0000
    14 C14     69.2051  37.1931  48.4841   C.2       1 RES1   0.0000
    15 C15     68.3566  38.2132  48.0549   C.2       1 RES1   0.0000
@<TRIPOS>BOND
     1     1     2    1
     2     2     3    2
     3     2     4    1
     4     4     5    1
     5     5     6   am
     6     6     7    2
     7     6     8    1
     8     8     9    1
     9     9    10    1
    10    10    11    2
    11    11    12    1
    12    12    13    2
    13    13    14    1
    14    14    15    2
    15    15    10    1
@<TRIPOS>SUBSTRUCTURE
     1 RES1        1 GROUP             0 ****  ****    0  
@<TRIPOS>MOLECULE
ligand_36
    15    15     1     0     0
SMALL
NO_CHARGES
****
Generated from the CSD

@<TRIPOS>ATOM
     1 C1      64.3364  40.0895  41.6887   C.3       1 RES1   0.0000
     2 C2      64.2539  41.5069  42.3369   C.2       1 RES1   0.0000
     3 O3      63.1539  41.9817  42.3752   O.2       1 RES1   0.0000
     4 C4      65.4331  42.1898  42.9385   C.3       1 RES1   0.0000
     5 N5      66.5320  42.0238  41.8142   N.am      1 RES1   0.0000
     6 C6      67.3174  40.8967  41.6366   C.2       1 RES1   0.0000
     7 O7      67.2505  39.8506  42.3680   O.2       1 RES1   0.0000
     8 O8      68.2953  40.9129  40.5088   O.3       1 RES1   0.0000
     9 C9      69.0805  39.6382  40.4095   C.3       1 RES1   0.0000
    10 C10     70.0339  39.7583  39.2446   C.2       1 RES1   0.0000
    11 C11     69.6304  39.3524  37.9730   C.2       1 RES1   0.0000
    12 C12     70.5140  39.4661  36.8999   C.2       1 RES1   0.0000
    13 C13     71.7937  39.9829  37.1037   C.2       1 RES1   0.0000
    14 C14     72.2018  40.3834  38.3737   C.2       1 RES1   0.0000
    15 C15     71.3184  40.2711  39.4469   C.2       1 RES1   0.0000
@<TRIPOS>BOND
     1     1     2    1
     2     2     3    2
     3     2     4    1
     4     4     5    1
     5     5     6   am
     6     6     7    2
     7     6     8    1
     8     8     9    1
     9     9    10    1
    10    10    11    2
    11    11    12    1
    12    12    13    2
    13    13    14    1
    14    14    15    2
    15    15    10    1
@<TRIPOS>SUBSTRUCTURE
     1 RES1        1 GROUP             0 ****  ****    0  
@<TRIPOS>MOLECULE
ligand_37
    15    15     1     0     0
SMALL
NO_CHARGES
****
Generated from the CSD

@<TRIPOS>ATOM
     1 C1      64.3224  40.0402  41.7950   C.3       1 RES1   0.0000
     2 C2      64.2428  41.4718  42.4115   C.2       1 RES1   0.0000
     3 O3      63.1369  41.9278  42.4888   O.2       1 RES1   0.0000
     4 C4      65.4350  42.1904  42.9416   C.3       1 RES1   0.0000
     5 N5      66.2171  41.0414  43.6949   N.am      1 RES1   0.0000
     6 C6      67.0744  40.1389  43.0875   C.2       1 RES1   0.0000
     7 O7      67.3394  40.1279  41.8372   O.2       1 RES1   0.0000
     8 O8      67.7329  39.1235  43.9616   O.3       1 RES1   0.0000
     9 C9      68.6437  38.2091  43.1962   C.3       1 RES1   0.0000
    10 C10     69.2547  37.2272  44.1672   C.2       1 RES1   0.0000
    11 C11     70.4571  37.5362  44.8021   C.2       1 RES1   0.0000
    12 C12     71.0173  36.6266  45.6990   C.2       1 RES1   0.0000
    13 C13     70.3741  35.4154  45.9547   C.2       1 RES1   0.0000
    14 C14     69.1761  35.1013  45.3175   C.2       1 RES1   0.0000
    15 C15     68.6149  36.0107  44.4216   C.2       1 RES1   0.0000
@<TRIPOS>BOND
     1     1     2    1
     2     2     3    2
     3     2     4    1
     4     4     5    1
     5     5     6   am
     6     6     7    2
     7     6     8    1
     8     8     9    1
     9     9    10    1
    10    10    11    2
    11    11    12    1
    12    12    13    2
    13    13    14    1
    14    14    15    2
    15    15    10    1
@<TRIPOS>SUBSTRUCTURE
     1 RES1        1 GROUP             0 ****  ****    0  
@<TRIPOS>MOLECULE
ligand_38
    15    15     1     0     0
SMALL
NO_CHARGES
****
Generated from the CSD

@<TRIPOS>ATOM
     1 C1      64.3945  40.0375  41.7532   C.3       1 RES1   0.0000
     2 C2      64.2779  41.4638  42.3761   C.2       1 RES1   0.0000
     3 O3      63.1640  41.9041  42.4254   O.2       1 RES1   0.0000
     4 C4      65.4448  42.1952  42.9437   C.3       1 RES1   0.0000
     5 N5      64.7940  43.5543  43.4219   N.am      1 RES1   0.0000
     6 C6      64.5157  44.6311  42.5963   C.2       1 RES1   0.0000
     7 O7      64.7531  44.6553  41.3406   O.2       1 RES1   0.0000
     8 O8      63.8893  45.8323  43.2235   O.3       1 RES1   0.0000
     9 C9      63.6337  46.9309  42.2340   C.3       1 RES1   0.0000
    10 C10     62.1401  47.1026  42.0918   C.2       1 RES1   0.0000
    11 C11     61.5628  47.1309  40.8228   C.2       1 RES1   0.0000
    12 C12     60.1827  47.2887  40.6962   C.2       1 RES1   0.0000
    13 C13     59.3894  47.4180  41.8365   C.2       1 RES1   0.0000
    14 C14     59.9639  47.3961  43.1051   C.2       1 RES1   0.0000
    15 C15     61.3435  47.2373  43.2325   C.2       1 RES1   0.0000
@<TRIPOS>BOND
     1     1     2    1
     2     2     3    2
     3     2     4    1
     4     4     5    1
     5     5     6   am
     6     6     7    2
     7     6     8    1
     8     8     9    1
     9     9    10    1
    10    10    11    2
    11    11    12    1
    12    12    13    2
    13    13    14    1
    14    14    15    2
    15    15    10    1
@<TRIPOS>SUBSTRUCTURE
     1 RES1        1 GROUP             0 ****  ****    0  
@<TRIPOS>MOLECULE
ligand_39
    15    15     1     0     0
SMALL
NO_CHARGES
****
Generated from the CSD

@<TRIPOS>ATOM
     1 C1      64.4002  40.0495  41.7267   C.3       1 RES1   0.0000
     2 C2      64.2823  41.4732  42.3554   C.2       1 RES1   0.0000
     3 O3      63.1706  41.9204  42.3886   O.2       1 RES1   0.0000
     4 C4      65.4443  42.1940  42.9461   C.3       1 RES1   0.0000
     5 N5      64.7936  43.5532  43.4239   N.am      1 RES1   0.0000
     6 C6      64.0919  43.7212  44.6063   C.2       1 RES1   0.0000
     7 O7      63.8848  42.7913  45.4584   O.2       1 RES1   0.0000
     8 O8      63.5552  45.0834  44.8977   O.3       1 RES1   0.0000
     9 C9      62.8310  45.1479  46.2103   C.3       1 RES1   0.0000
    10 C10     61.3688  45.4039  45.9327   C.2       1 RES1   0.0000
    11 C11     60.3982  44.6001  46.5294   C.2       1 RES1   0.0000
    12 C12     59.0489  44.8408  46.2709   C.2       1 RES1   0.0000
    13 C13     58.6783  45.8810  45.4182   C.2       1 RES1   0.0000
    14 C14     59.6458  46.6817  44.8159   C.2       1 RES1   0.0000
    15 C15     60.9949  46.4423  45.0748   C.2       1 RES1   0.0000
@<TRIPOS>BOND
     1     1     2    1
     2     2     3    2
     3     2     4    1
     4     4     5    1
     5     5     6   am
     6     6     7    2
     7     6     8    1
     8     8     9    1
     9     9    10    1
    10    10    11    2
    11    11    12    1
    12    12    13    2
    13    13    14    1
    14    14    15    2
    15    15    10    1
@<TRIPOS>SUBSTRUCTURE
     1 RES1        1 GROUP             0 ****  ****    0  
@<TRIPOS>MOLECULE
ligand_40
    15    15     1     0     0
SMALL
NO_CHARGES
****
Generated from the CSD

@<TRIPOS>ATOM
     1 C1      64.3870  40.0400  41.7410   C.3       1 RES1   0.0000
     2 C2      64.2710  41.4650  42.3670   C.2       1 RES1   0.0000
     3 O3      63.1580  41.9080  42.4120   O.2       1 RES1   0.0000
     4 C4      65.4370  42.1920  42.9420   C.3       1 RES1   0.0000
     5 N5      66.5320  42.0238  41.8142   N.am      1 RES1   0.0000
     6 C6      66.6109  42.7964  40.6673   C.2       1 RES1   0.0000
     7 O7      65.8026  43.7443  40.3813   O.2       1 RES1   0.0000
     8 O8      67.7219  42.4995  39.7154   O.3       1 RES1   0.0000
     9 C9      67.7114  43.4042  38.5184   C.3       1 RES1   0.0000
    10 C10     68.8676  43.0221  37.6253   C.2       1 RES1   0.0000
    11 C11     69.0839  43.7158  36.4352   C.2       1 RES1   0.0000
    12 C12     70.1536  43.3600  35.6140   C.2       1 RES1   0.0000
    13 C13     70.9988  42.3142  35.9859   C.2       1 RES1   0.0000
    14 C14     70.7818  41.6155  37.1710   C.2       1 RES1   0.0000
    15 C15     69.7131  41.9714  37.9931   C.2       1 RES1   0.0000
@<TRIPOS>BOND
     1     1     2    1
     2     2     3    2
     3     2     4    1
     4     4     5    1
     5     5     6   am
     6     6     7    2
     7     6     8    1
     8     8     9    1
     9     9    10    1
    10    10    11    2
    11    11    12    1
    12    12    13    2
    13    13    14    1
    14    14    15    2
    15    15    10    1
@<TRIPOS>SUBSTRUCTURE
     1 RES1        1 GROUP             0 ****  ****    0  
@<TRIPOS>MOLECULE
ligand_41
    15    15     1     0     0
SMALL
NO_CHARGES
****
Generated from the CSD

@<TRIPOS>ATOM
     1 C1      64.3870  40.0400  41.7410   C.3       1 RES1   0.0000
     2 C2      64.2710  41.4650  42.3670   C.2       1 RES1   0.0000
     3 O3      63.1580  41.9080  42.4120   O.2       1 RES1   0.0000
     4 C4      65.4370  42.1920  42.9420   C.3       1 RES1   0.0000
     5 N5      66.2171  41.0414  43.6949   N.am      1 RES1   0.0000
     6 C6      65.8933  40.5583  44.9521   C.2       1 RES1   0.0000
     7 O7      64.9187  40.9877  45.6589   O.2       1 RES1   0.0000
     8 O8      66.7393  39.4585  45.5030   O.3       1 RES1   0.0000
     9 C9      66.2887  39.0119  46.8627   C.3       1 RES1   0.0000
    10 C10     67.2049  37.9042  47.3255   C.2       1 RES1   0.0000
    11 C11     67.0008  37.3094  48.5700   C.2       1 RES1   0.0000
    12 C12     67.8490  36.2860  48.9929   C.2       1 RES1   0.0000
    13 C13     68.8949  35.8648  48.1714   C.2       1 RES1   0.0000
    14 C14     69.1050  36.4612  46.9304   C.2       1 RES1   0.0000
    15 C15     68.2567  37.4836  46.5065   C.2       1 RES1   0.0000
@<TRIPOS>BOND
     1     1     2    1
     2     2     3    2
     3     2     4    1
     4     4     5    1
     5     5     6   am
     6     6     7    2
     7     6     8    1
     8     8     9    1
     9     9    10    1
    10    10    11    2
    11    11    12    1
    12    12    13    2
    13    13    14    1
    14    14    15    2
    15    15    10    1
@<TRIPOS>SUBSTRUCTURE
     1 RES1        1 GROUP             0 ****  ****    0  
@<TRIPOS>MOLECULE
ligand_42
    15    15     1     0     0
SMALL
NO_CHARGES
****
Generated from the CSD

@<TRIPOS>ATOM
     1 C1      64.3364  40.0895  41.6887   C.3       1 RES1   0.0000
     2 C2      64.2539  41.5069  42.3369   C.2       1 RES1   0.0000
     3 O3      63.1539  41.9817  42.3752   O.2       1 RES1   0.0000
     4 C4      65.4331  42.1898  42.9385   C.3       1 RES1   0.0000
     5 N5      66.5320  42.0238  41.8142   N.am      1 RES1   0.0000
     6 C6      67.3174  40.8967  41.6366   C.2       1 RES1   0.0000
     7 O7      67.2505  39.8506  42.3680   O.2       1 RES1   0.0000
     8 O8      68.2953  40.9129  40.5088   O.3       1 RES1   0.0000
     9 C9      69.0805  39.6382  40.4095   C.3       1 RES1   0.0000
    10 C10     70.0339  39.7583  39.2446   C.2       1 RES1   0.0000
    11 C11     70.8858  38.6992  38.9332   C.2       1 RES1   0.0000
    12 C12     71.7641  38.8143  37.8558   C.2       1 RES1   0.0000
    13 C13     71.7864  39.9855  37.0979   C.2       1 RES1   0.0000
    14 C14     70.9410  41.0473  37.4103   C.2       1 RES1   0.0000
    15 C15     70.0618  40.9325  38.4867   C.2       1 RES1   0.0000
@<TRIPOS>BOND
     1     1     2    1
     2     2     3    2
     3     2     4    1
     4     4     5    1
     5     5     6   am
     6     6     7    2
     7     6     8    1
     8     8     9    1
     9     9    10    1
    10    10    11    2
    11    11    12    1
    12    12    13    2
    13    13    14    1
    14    14    15    2
    15    15    10    1
@<TRIPOS>SUBSTRUCTURE
     1 RES1        1 GROUP             0 ****  ****    0  
@<TRIPOS>MOLECULE
ligand_43
    15    15     1     0     0
SMALL
NO_CHARGES
****
Generated from the CSD

@<TRIPOS>ATOM
     1 C1      64.3224  40.0402  41.7950   C.3       1 RES1   0.0000
     2 C2      64.2428  41.4718  42.4115   C.2       1 RES1   0.0000
     3 O3      63.1369  41.9278  42.4888   O.2       1 RES1   0.0000
     4 C4      65.4350  42.1904  42.9416   C.3       1 RES1   0.0000
     5 N5      66.2171  41.0414  43.6949   N.am      1 RES1   0.0000
     6 C6      67.0744  40.1389  43.0875   C.2       1 RES1   0.0000
     7 O7      67.3394  40.1279  41.8372   O.2       1 RES1   0.0000
     8 O8      67.7329  39.1235  43.9616   O.3       1 RES1   0.0000
     9 C9      68.6437  38.2091  43.1962   C.3       1 RES1   0.0000
    10 C10     69.2547  37.2272  44.1672   C.2       1 RES1   0.0000
    11 C11     70.1473  36.2600  43.7066   C.2       1 RES1   0.0000
    12 C12     70.7099  35.3558  44.6073   C.2       1 RES1   0.0000
    13 C13     70.3769  35.4227  45.9604   C.2       1 RES1   0.0000
    14 C14     69.4809  36.3837  46.4225   C.2       1 RES1   0.0000
    15 C15     68.9189  37.2888  45.5228   C.2       1 RES1   0.0000
@<TRIPOS>BOND
     1     1     2    1
     2     2     3    2
     3     2     4    1
     4     4     5    1
     5     5     6   am
     6     6     7    2
     7     6     8    1
     8     8     9    1
     9     9    10    1
    10    10    11    2
    11    11    12    1
    12    12    13    2
    13    13    14    1
    14    14    15    2
    15    15    10    1
@<TRIPOS>SUBSTRUCTURE
     1 RES1        1 GROUP             0 ****  ****    0  
@<TRIPOS>MOLECULE
ligand_44
    15    15     1     0     0
SMALL
NO_CHARGES
****
Generated from the CSD

@<TRIPOS>ATOM
     1 C1      64.3784  40.0216  41.7824   C.3       1 RES1   0.0000
     2 C2      64.2642  41.4503  42.4002   C.2       1 RES1   0.0000
     3 O3      63.1503  41.8901  42.4537   O.2       1 RES1   0.0000
     4 C4      65.4337  42.1848  42.9583   C.3       1 RES1   0.0000
     5 N5      64.7846  43.5454  43.4345   N.am      1 RES1   0.0000
     6 C6      65.4805  44.5926  44.0158   C.2       1 RES1   0.0000
     7 O7      66.7391  44.5844  44.2383   O.2       1 RES1   0.0000
     8 O8      64.7006  45.8080  44.3942   O.3       1 RES1   0.0000
     9 C9      65.5569  46.8694  45.0200   C.3       1 RES1   0.0000
    10 C10     64.6970  47.6772  45.9627   C.2       1 RES1   0.0000
    11 C11     64.7023  49.0694  45.8860   C.2       1 RES1   0.0000
    12 C12     63.9058  49.8114  46.7581   C.2       1 RES1   0.0000
    13 C13     63.1109  49.1586  47.7007   C.2       1 RES1   0.0000
    14 C14     63.1081  47.7683  47.7837   C.2       1 RES1   0.0000
    15 C15     63.9034  47.0259  46.9113   C.2       1 RES1   0.0000
@<TRIPOS>BOND
     1     1     2    1
     2     2     3    2
     3     2     4    1
     4     4     5    1
     5     5     6   am
     6     6     7    2
     7     6     8    1
     8     8     9    1
     9     9    10    1
    10    10    11    2
    11    11    12    1
    12    12    13    2
    13    13    14    1
    14    14    15    2
    15    15    10    1
@<TRIPOS>SUBSTRUCTURE
     1 RES1        1 GROUP             0 ****  ****    0  
@<TRIPOS>MOLECULE
ligand_45
    15    15     1     0     0
SMALL
NO_CHARGES
****
Generated from the CSD

@<TRIPOS>ATOM
     1 C1      64.3784  40.0216  41.7824   C.3       1 RES1   0.0000
     2 C2      64.2642  41.4503  42.4002   C.2       1 RES1   0.0000
     3 O3      63.1503  41.8901  42.4537   O.2       1 RES1   0.0000
     4 C4      65.4337  42.1848  42.9583   C.3       1 RES1   0.0000
     5 N5      64.7846  43.5454  43.4345   N.am      1 RES1   0.0000
     6 C6      65.4805  44.5926  44.0158   C.2       1 RES1   0.0000
     7 O7      66.7391  44.5844  44.2383   O.2       1 RES1   0.0000
     8 O8      64.7006  45.8080  44.3942   O.3       1 RES1   0.0000
     9 C9      65.5569  46.8694  45.0200   C.3       1 RES1   0.0000
    10 C10     64.6970  47.6772  45.9627   C.2       1 RES1   0.0000
    11 C11     65.1287  47.9107  47.2679   C.2       1 RES1   0.0000
    12 C12     64.3316  48.6581  48.1348   C.2       1 RES1   0.0000
    13 C13     63.1095  49.1659  47.6932   C.2       1 RES1   0.0000
    14 C14     62.6728  48.9291  46.3921   C.2       1 RES1   0.0000
    15 C15     63.4698  48.1829  45.5244   C.2       1 RES1   0.0000
@<TRIPOS>BOND
     1     1     2    1
     2     2     3    2
     3     2     4    1
     4     4     5    1
     5     5     6   am
     6     6     7    2
     7     6     8    1
     8     8     9    1
     9     9    10    1
    10    10    11    2
    11    11    12    1
    12    12    13    2
    13    13    14    1
    14    14    15    2
    15    15    10    1
@<TRIPOS>SUBSTRUCTURE
     1 RES1        1 GROUP             0 ****  ****    0  
@<TRIPOS>MOLECULE
ligand_46
    15    15     1     0     0
SMALL
NO_CHARGES
****
Generated from the CSD

@<TRIPOS>ATOM
     1 C1      64.3961  40.0586  41.6998   C.3       1 RES1   0.0000
     2 C2      64.2781  41.4799  42.3340   C.2       1 RES1   0.0000
     3 O3      63.1661  41.9262  42.3705   O.2       1 RES1   0.0000
     4 C4      65.4405  42.1993  42.9257   C.3       1 RES1   0.0000
     5 N5      64.7902  43.5577  43.4065   N.am      1 RES1   0.0000
     6 C6      65.4805  44.5926  44.0158   C.2       1 RES1   0.0000
     7 O7      66.7342  44.5733  44.2640   O.2       1 RES1   0.0000
     8 O8      64.7006  45.8080  44.3942   O.3       1 RES1   0.0000
     9 C9      65.5569  46.8694  45.0200   C.3       1 RES1   0.0000
    10 C10     64.9342  48.2138  44.7279   C.2       1 RES1   0.0000
    11 C11     65.7173  49.2421  44.2045   C.2       1 RES1   0.0000
    12 C12     65.1377  50.4819  43.9354   C.2       1 RES1   0.0000
    13 C13     63.7817  50.6867  44.1914   C.2       1 RES1   0.0000
    14 C14     62.9984  49.6634  44.7198   C.2       1 RES1   0.0000
    15 C15     63.5769  48.4233  44.9881   C.2       1 RES1   0.0000
@<TRIPOS>BOND
     1     1     2    1
     2     2     3    2
     3     2     4    1
     4     4     5    1
     5     5     6   am
     6     6     7    2
     7     6     8    1
     8     8     9    1
     9     9    10    1
    10    10    11    2
    11    11    12    1
    12    12    13    2
    13    13    14    1
    14    14    15    2
    15    15    10    1
@<TRIPOS>SUBSTRUCTURE
     1 RES1        1 GROUP             0 ****  ****    0  
@<TRIPOS>MOLECULE
ligand_47
    15    15     1     0     0
SMALL
NO_CHARGES
****
Generated from the CSD

@<TRIPOS>ATOM
     1 C1      64.3961  40.0586  41.6998   C.3       1 RES1   0.0000
     2 C2      64.2781  41.4799  42.3340   C.2       1 RES1   0.0000
     3 O3      63.1661  41.9262  42.3705   O.2       1 RES1   0.0000
     4 C4      65.4405  42.1993  42.9257   C.3       1 RES1   0.0000
     5 N5      64.7902  43.5577  43.4065   N.am      1 RES1   0.0000
     6 C6      65.4805  44.5926  44.0158   C.2       1 RES1   0.0000
     7 O7      66.7342  44.5733  44.2640   O.2       1 RES1   0.0000
     8 O8      64.7006  45.8080  44.3942   O.3       1 RES1   0.0000
     9 C9      65.5569  46.8694  45.0200   C.3       1 RES1   0.0000
    10 C10     64.9342  48.2138  44.7279   C.2       1 RES1   0.0000
    11 C11     64.7255  49.1219  45.7653   C.2       1 RES1   0.0000
    12 C12     64.1510  50.3629  45.4906   C.2       1 RES1   0.0000
    13 C13     63.7882  50.6879  44.1833   C.2       1 RES1   0.0000
    14 C14     63.9899  49.7806  43.1460   C.2       1 RES1   0.0000
    15 C15     64.5653  48.5402  43.4197   C.2       1 RES1   0.0000
@<TRIPOS>BOND
     1     1     2    1
     2     2     3    2
     3     2     4    1
     4     4     5    1
     5     5     6   am
     6     6     7    2
     7     6     8    1
     8     8     9    1
     9     9    10    1
    10    10    11    2
    11    11    12    1
    12    12    13    2
    13    13    14    1
    14    14    15    2
    15    15    10    1
@<TRIPOS>SUBSTRUCTURE
     1 RES1        1 GROUP             0 ****  ****    0  
@<TRIPOS>MOLECULE
ligand_48
    15    15     1     0     0
SMALL
NO_CHARGES
****
Generated from the CSD

@<TRIPOS>ATOM
     1 C1      64.3748  40.0499  41.7060   C.3       1 RES1   0.0000
     2 C2      64.2596  41.4717  42.3394   C.2       1 RES1   0.0000
     3 O3      63.1484  41.9199  42.3760   O.2       1 RES1   0.0000
     4 C4      65.4233  42.1895  42.9304   C.3       1 RES1   0.0000
     5 N5      64.7756  43.5493  43.4106   N.am      1 RES1   0.0000
     6 C6      65.0263  44.7880  42.8438   C.2       1 RES1   0.0000
     7 O7      65.8167  44.9816  41.8581   O.2       1 RES1   0.0000
     8 O8      64.3144  45.9647  43.4245   O.3       1 RES1   0.0000
     9 C9      64.6435  47.2446  42.7138   C.3       1 RES1   0.0000
    10 C10     63.4599  48.1741  42.8391   C.2       1 RES1   0.0000
    11 C11     62.4546  48.1514  41.8731   C.2       1 RES1   0.0000
    12 C12     61.3628  49.0110  41.9934   C.2       1 RES1   0.0000
    13 C13     61.2828  49.8873  43.0760   C.2       1 RES1   0.0000
    14 C14     62.2884  49.9166  44.0392   C.2       1 RES1   0.0000
    15 C15     63.3797  49.0566  43.9202   C.2       1 RES1   0.0000
@<TRIPOS>BOND
     1     1     2    1
     2     2     3    2
     3     2     4    1
     4     4     5    1
     5     5     6   am
     6     6     7    2
     7     6     8    1
     8     8     9    1
     9     9    10    1
    10    10    11    2
    11    11    12    1
    12    12    13    2
    13    13    14    1
    14    14    15    2
    15    15    10    1
@<TRIPOS>SUBSTRUCTURE
     1 RES1        1 GROUP             0 ****  ****    0  
@<TRIPOS>MOLECULE
ligand_49
    15    15     1     0     0
SMALL
NO_CHARGES
****
Generated from the CSD

@<TRIPOS>ATOM
     1 C1      64.3620  40.0236  41.7645   C.3       1 RES1   0.0000
     2 C2      64.2499  41.4516  42.3842   C.2       1 RES1   0.0000
     3 O3      63.1364  41.8924  42.4394   O.2       1 RES1   0.0000
     4 C4      65.4206  42.1842  42.9422   C.3       1 RES1   0.0000
     5 N5      64.7733  43.5448  43.4208   N.am      1 RES1   0.0000
     6 C6      64.6257  43.9279  44.7436   C.2       1 RES1   0.0000
     7 O7      64.9975  43.2227  45.7427   O.2       1 RES1   0.0000
     8 O8      63.9986  45.2569  45.0070   O.3       1 RES1   0.0000
     9 C9      63.8847  45.5593  46.4722   C.3       1 RES1   0.0000
    10 C10     62.6981  46.4705  46.6772   C.2       1 RES1   0.0000
    11 C11     62.8687  47.8536  46.6280   C.2       1 RES1   0.0000
    12 C12     61.7696  48.6913  46.8170   C.2       1 RES1   0.0000
    13 C13     60.5090  48.1428  47.0546   C.2       1 RES1   0.0000
    14 C14     60.3366  46.7619  47.1104   C.2       1 RES1   0.0000
    15 C15     61.4348  45.9237  46.9204   C.2       1 RES1   0.0000
@<TRIPOS>BOND
     1     1     2    1
     2     2     3    2
     3     2     4    1
     4     4     5    1
     5     5     6   am
     6     6     7    2
     7     6     8    1
     8     8     9    1
     9     9    10    1
    10    10    11    2
    11    11    12    1
    12    12    13    2
    13    13    14    1
    14    14    15    2
    15    15    10    1
@<TRIPOS>SUBSTRUCTURE
     1 RES1        1 GROUP             0 ****  ****    0  
@<TRIPOS>MOLECULE
ligand_50
    15    15     1     0     0
SMALL
NO_CHARGES
****
Generated from the CSD

@<TRIPOS>ATOM
     1 C1      64.3870  40.0400  41.7410   C.3       1 RES1   0.0000
     2 C2      64.2710  41.4650  42.3670   C.2       1 RES1   0.0000
     3 O3      63.1580  41.9080  42.4120   O.2       1 RES1   0.0000
     4 C4      65.4370  42.1920  42.9420   C.3       1 RES1   0.0000
     5 N5      64.7874  43.5515  43.4205   N.am      1 RES1   0.0000
     6 C6      64.5157  44.6311  42.5963   C.2       1 RES1   0.0000
     7 O7      63.9899  45.7260  42.9945   O.2       1 RES1   0.0000
     8 O8      64.8731  44.4991  41.1528   O.3       1 RES1   0.0000
     9 C9      64.5422  45.7312  40.3630   C.3       1 RES1   0.0000
    10 C10     64.9407  45.4940  38.9259   C.2       1 RES1   0.0000
    11 C11     66.2246  45.8294  38.4975   C.2       1 RES1   0.0000
    12 C12     66.5886  45.6077  37.1694   C.2       1 RES1   0.0000
    13 C13     65.6685  45.0541  36.2786   C.2       1 RES1   0.0000
    14 C14     64.3835  44.7238  36.7021   C.2       1 RES1   0.0000
    15 C15     64.0193  44.9441  38.0301   C.2       1 RES1   0.0000
@<TRIPOS>BOND
     1     1     2    1
     2     2     3    2
     3     2     4    1
     4     4     5    1
     5     5     6   am
     6     6     7    2
     7     6     8    1
     8     8     9    1
     9     9    10    1
    10    10    11    2
    11    11    12    1
    12    12    13    2
    13    13    14    1
    14    14    15    2
    15    15    10    1
@<TRIPOS>SUBSTRUCTURE
     1 RES1        1 GROUP             0 ****  ****    0  
@<TRIPOS>MOLECULE
ligand_51
    15    15     1     0     0
SMALL
NO_CHARGES
****
Generated from the CSD

@<TRIPOS>ATOM
     1 C1      64.3885  40.0432  41.7339   C.3       1 RES1   0.0000
     2 C2      64.2725  41.4681  42.3601   C.2       1 RES1   0.0000
     3 O3      63.1603  41.9137  42.3993   O.2       1 RES1   0.0000
     4 C4      65.4370  42.1920  42.9420   C.3       1 RES1   0.0000
     5 N5      64.7874  43.5515  43.4205   N.am      1 RES1   0.0000
     6 C6      64.0919  43.7212  44.6063   C.2       1 RES1   0.0000
     7 O7      63.5706  44.8257  44.9830   O.2       1 RES1   0.0000
     8 O8      63.9398  42.5269  45.4891   O.3       1 RES1   0.0000
     9 C9      63.1625  42.8287  46.7366   C.3       1 RES1   0.0000
    10 C10     63.0673  41.5623  47.5536   C.2       1 RES1   0.0000
    11 C11     61.9968  40.6901  47.3594   C.2       1 RES1   0.0000
    12 C12     61.9134  39.5211  48.1157   C.2       1 RES1   0.0000
    13 C13     62.8982  39.2317  49.0606   C.2       1 RES1   0.0000
    14 C14     63.9654  40.1039  49.2611   C.2       1 RES1   0.0000
    15 C15     64.0500  41.2723  48.5045   C.2       1 RES1   0.0000
@<TRIPOS>BOND
     1     1     2    1
     2     2     3    2
     3     2     4    1
     4     4     5    1
     5     5     6   am
     6     6     7    2
     7     6     8    1
     8     8     9    1
     9     9    10    1
    10    10    11    2
    11    11    12    1
    12    12    13    2
    13    13    14    1
    14    14    15    2
    15    15    10    1
@<TRIPOS>SUBSTRUCTURE
     1 RES1        1 GROUP             0 ****  ****    0  
@<TRIPOS>MOLECULE
ligand_52
    15    15     1     0     0
SMALL
NO_CHARGES
****
Generated from the CSD

@<TRIPOS>ATOM
     1 C1      64.3944  40.0150  41.7803   C.3       1 RES1   0.0000
     2 C2      64.2751  41.4540  42.3727   C.2       1 RES1   0.0000
     3 O3      63.1626  41.8997  42.3971   O.2       1 RES1   0.0000
     4 C4      65.4370  42.1920  42.9420   C.3       1 RES1   0.0000
     5 N5      66.5320  42.0238  41.8142   N.am      1 RES1   0.0000
     6 C6      67.8240  42.5178  41.8868   C.2       1 RES1   0.0000
     7 O7      68.2890  43.1732  42.8807   O.2       1 RES1   0.0000
     8 O8      68.7256  42.2533  40.7266   O.3       1 RES1   0.0000
     9 C9      70.0984  42.8264  40.9223   C.3       1 RES1   0.0000
    10 C10     70.9248  42.5049  39.6999   C.2       1 RES1   0.0000
    11 C11     71.6630  41.3228  39.6527   C.2       1 RES1   0.0000
    12 C12     72.4241  41.0296  38.5212   C.2       1 RES1   0.0000
    13 C13     72.4437  41.9183  37.4460   C.2       1 RES1   0.0000
    14 C14     71.7123  43.1027  37.4928   C.2       1 RES1   0.0000
    15 C15     70.9502  43.3960  38.6232   C.2       1 RES1   0.0000
@<TRIPOS>BOND
     1     1     2    1
     2     2     3    2
     3     2     4    1
     4     4     5    1
     5     5     6   am
     6     6     7    2
     7     6     8    1
     8     8     9    1
     9     9    10    1
    10    10    11    2
    11    11    12    1
    12    12    13    2
    13    13    14    1
    14    14    15    2
    15    15    10    1
@<TRIPOS>SUBSTRUCTURE
     1 RES1        1 GROUP             0 ****  ****    0  
@<TRIPOS>MOLECULE
ligand_53
    15    15     1     0     0
SMALL
NO_CHARGES
****
Generated from the CSD

@<TRIPOS>ATOM
     1 C1      64.4295  40.0663  41.6605   C.3       1 RES1   0.0000
     2 C2      64.2841  41.4605  42.3467   C.2       1 RES1   0.0000
     3 O3      63.1609  41.8731  42.4194   O.2       1 RES1   0.0000
     4 C4      65.4370  42.1920  42.9420   C.3       1 RES1   0.0000
     5 N5      66.2171  41.0414  43.6949   N.am      1 RES1   0.0000
     6 C6      67.3847  41.2201  44.4183   C.2       1 RES1   0.0000
     7 O7      67.9755  42.3440  44.5647   O.2       1 RES1   0.0000
     8 O8      67.9774  40.0161  45.0724   O.3       1 RES1   0.0000
     9 C9      69.2312  40.3331  45.8333   C.3       1 RES1   0.0000
    10 C10     69.7459  39.0553  46.4520   C.2       1 RES1   0.0000
    11 C11     69.3256  38.6842  47.7287   C.2       1 RES1   0.0000
    12 C12     69.8029  37.5026  48.2957   C.2       1 RES1   0.0000
    13 C13     70.6967  36.7010  47.5852   C.2       1 RES1   0.0000
    14 C14     71.1230  37.0722  46.3123   C.2       1 RES1   0.0000
    15 C15     70.6453  38.2528  45.7442   C.2       1 RES1   0.0000
@<TRIPOS>BOND
     1     1     2    1
     2     2     3    2
     3     2     4    1
     4     4     5    1
     5     5     6   am
     6     6     7    2
     7     6     8    1
     8     8     9    1
     9     9    10    1
    10    10    11    2
    11    11    12    1
    12    12    13    2
    13    13    14    1
    14    14    15    2
    15    15    10    1
@<TRIPOS>SUBSTRUCTURE
     1 RES1        1 GROUP             0 ****  ****    0  
@<TRIPOS>MOLECULE
ligand_54
    15    15     1     0     0
SMALL
NO_CHARGES
****
Generated from the CSD

@<TRIPOS>ATOM
     1 C1      64.3870  40.0400  41.7410   C.3       1 RES1   0.0000
     2 C2      64.2710  41.4650  42.3670   C.2       1 RES1   0.0000
     3 O3      63.1580  41.9080  42.4120   O.2       1 RES1   0.0000
     4 C4      65.4370  42.1920  42.9420   C.3       1 RES1   0.0000
     5 N5      64.7874  43.5515  43.4205   N.am      1 RES1   0.0000
     6 C6      64.5157  44.6311  42.5963   C.2       1 RES1   0.0000
     7 O7      63.9899  45.7260  42.9945   O.2       1 RES1   0.0000
     8 O8      64.8731  44.4991  41.1528   O.3       1 RES1   0.0000
     9 C9      64.5422  45.7312  40.3630   C.3       1 RES1   0.0000
    10 C10     64.9407  45.4940  38.9259   C.2       1 RES1   0.0000
    11 C11     64.7374  46.4939  37.9754   C.2       1 RES1   0.0000
    12 C12     65.1079  46.2708  36.6494   C.2       1 RES1   0.0000
    13 C13     65.6774  45.0515  36.2815   C.2       1 RES1   0.0000
    14 C14     65.8761  44.0486  37.2274   C.2       1 RES1   0.0000
    15 C15     65.5070  44.2714  38.5536   C.2       1 RES1   0.0000
@<TRIPOS>BOND
     1     1     2    1
     2     2     3    2
     3     2     4    1
     4     4     5    1
     5     5     6   am
     6     6     7    2
     7     6     8    1
     8     8     9    1
     9     9    10    1
    10    10    11    2
    11    11    12    1
    12    12    13    2
    13    13    14    1
    14    14    15    2
    15    15    10    1
@<TRIPOS>SUBSTRUCTURE
     1 RES1        1 GROUP             0 ****  ****    0  
@<TRIPOS>MOLECULE
ligand_55
    15    15     1     0     0
SMALL
NO_CHARGES
****
Generated from the CSD

@<TRIPOS>ATOM
     1 C1      64.3885  40.0432  41.7339   C.3       1 RES1   0.0000
     2 C2      64.2725  41.4681  42.3601   C.2       1 RES1   0.0000
     3 O3      63.1603  41.9137  42.3993   O.2       1 RES1   0.0000
     4 C4      65.4370  42.1920  42.9420   C.3       1 RES1   0.0000
     5 N5      64.7874  43.5515  43.4205   N.am      1 RES1   0.0000
     6 C6      64.0919  43.7212  44.6063   C.2       1 RES1   0.0000
     7 O7      63.5706  44.8257  44.9830   O.2       1 RES1   0.0000
     8 O8      63.9398  42.5269  45.4891   O.3       1 RES1   0.0000
     9 C9      63.1625  42.8287  46.7366   C.3       1 RES1   0.0000
    10 C10     63.0673  41.5623  47.5536   C.2       1 RES1   0.0000
    11 C11     62.3885  41.5718  48.7716   C.2       1 RES1   0.0000
    12 C12     62.3023  40.3995  49.5225   C.2       1 RES1   0.0000
    13 C13     62.8949  39.2270  49.0529   C.2       1 RES1   0.0000
    14 C14     63.5788  39.2159  47.8396   C.2       1 RES1   0.0000
    15 C15     63.6643  40.3873  47.0878   C.2       1 RES1   0.0000
@<TRIPOS>BOND
     1     1     2    1
     2     2     3    2
     3     2     4    1
     4     4     5    1
     5     5     6   am
     6     6     7    2
     7     6     8    1
     8     8     9    1
     9     9    10    1
    10    10    11    2
    11    11    12    1
    12    12    13    2
    13    13    14    1
    14    14    15    2
    15    15    10    1
@<TRIPOS>SUBSTRUCTURE
     1 RES1        1 GROUP             0 ****  ****    0  
@<TRIPOS>MOLECULE
ligand_56
    15    15     1     0     0
SMALL
NO_CHARGES
****
Generated from the CSD

@<TRIPOS>ATOM
     1 C1      64.3944  40.0150  41.7803   C.3       1 RES1   0.0000
     2 C2      64.2751  41.4540  42.3727   C.2       1 RES1   0.0000
     3 O3      63.1626  41.8997  42.3971   O.2       1 RES1   0.0000
     4 C4      65.4370  42.1920  42.9420   C.3       1 RES1   0.0000
     5 N5      66.5320  42.0238  41.8142   N.am      1 RES1   0.0000
     6 C6      67.8240  42.5178  41.8868   C.2       1 RES1   0.0000
     7 O7      68.2890  43.1732  42.8807   O.2       1 RES1   0.0000
     8 O8      68.7256  42.2533  40.7266   O.3       1 RES1   0.0000
     9 C9      70.0984  42.8264  40.9223   C.3       1 RES1   0.0000
    10 C10     70.9248  42.5049  39.6999   C.2       1 RES1   0.0000
    11 C11     72.2514  42.9285  39.6281   C.2       1 RES1   0.0000
    12 C12     73.0111  42.6285  38.4976   C.2       1 RES1   0.0000
    13 C13     72.4413  41.9090  37.4468   C.2       1 RES1   0.0000
    14 C14     71.1147  41.4898  37.5130   C.2       1 RES1   0.0000
    15 C15     70.3549  41.7884  38.6435   C.2       1 RES1   0.0000
@<TRIPOS>BOND
     1     1     2    1
     2     2     3    2
     3     2     4    1
     4     4     5    1
     5     5     6   am
     6     6     7    2
     7     6     8    1
     8     8     9    1
     9     9    10    1
    10    10    11    2
    11    11    12    1
    12    12    13    2
    13    13    14    1
    14    14    15    2
    15    15    10    1
@<TRIPOS>SUBSTRUCTURE
     1 RES1        1 GROUP             0 ****  ****    0  
@<TRIPOS>MOLECULE
ligand_57
    15    15     1     0     0
SMALL
NO_CHARGES
****
Generated from the CSD

@<TRIPOS>ATOM
     1 C1      64.4295  40.0663  41.6605   C.3       1 RES1   0.0000
     2 C2      64.2841  41.4605  42.3467   C.2       1 RES1   0.0000
     3 O3      63.1609  41.8731  42.4194   O.2       1 RES1   0.0000
     4 C4      65.4370  42.1920  42.9420   C.3       1 RES1   0.0000
     5 N5      66.2171  41.0414  43.6949   N.am      1 RES1   0.0000
     6 C6      67.3847  41.2201  44.4183   C.2       1 RES1   0.0000
     7 O7      67.9755  42.3440  44.5647   O.2       1 RES1   0.0000
     8 O8      67.9774  40.0161  45.0724   O.3       1 RES1   0.0000
     9 C9      69.2312  40.3331  45.8333   C.3       1 RES1   0.0000
    10 C10     69.7459  39.0553  46.4520   C.2       1 RES1   0.0000
    11 C11     70.9104  39.0757  47.2187   C.2       1 RES1   0.0000
    12 C12     71.3816  37.8932  47.7890   C.2       1 RES1   0.0000
    13 C13     70.6880  36.6994  47.5891   C.2       1 RES1   0.0000
    14 C14     69.5279  36.6748  46.8187   C.2       1 RES1   0.0000
    15 C15     69.0556  37.8569  46.2492   C.2       1 RES1   0.0000
@<TRIPOS>BOND
     1     1     2    1
     2     2     3    2
     3     2     4    1
     4     4     5    1
     5     5     6   am
     6     6     7    2
     7     6     8    1
     8     8     9    1
     9     9    10    1
    10    10    11    2
    11    11    12    1
    12    12    13    2
    13    13    14    1
    14    14    15    2
    15    15    10    1
@<TRIPOS>SUBSTRUCTURE
     1 RES1        1 GROUP             0 ****  ****    0  
@<TRIPOS>MOLECULE
ligand_58
    15    15     1     0     0
SMALL
NO_CHARGES
****
Generated from the CSD

@<TRIPOS>ATOM
     1 C1      64.3743  40.0474  41.7040   C.3       1 RES1   0.0000
     2 C2      64.2590  41.4680  42.3401   C.2       1 RES1   0.0000
     3 O3      63.1477  41.9156  42.3787   O.2       1 RES1   0.0000
     4 C4      65.4231  42.1853  42.9311   C.3       1 RES1   0.0000
     5 N5      64.7752  43.5439  43.4144   N.am      1 RES1   0.0000
     6 C6      64.5157  44.6311  42.5963   C.2       1 RES1   0.0000
     7 O7      65.0062  44.7843  41.4260   O.2       1 RES1   0.0000
     8 O8      63.5945  45.6813  43.1229   O.3       1 RES1   0.0000
     9 C9      63.3681  46.7931  42.1410   C.3       1 RES1   0.0000
    10 C10     61.9993  47.3781  42.3950   C.2       1 RES1   0.0000
    11 C11     61.5403  48.4357  41.6106   C.2       1 RES1   0.0000
    12 C12     60.2750  48.9723  41.8481   C.2       1 RES1   0.0000
    13 C13     59.4777  48.4504  42.8671   C.2       1 RES1   0.0000
    14 C14     59.9358  47.3981  43.6562   C.2       1 RES1   0.0000
    15 C15     61.2003  46.8604  43.4185   C.2       1 RES1   0.0000
@<TRIPOS>BOND
     1     1     2    1
     2     2     3    2
     3     2     4    1
     4     4     5    1
     5     5     6   am
     6     6     7    2
     7     6     8    1
     8     8     9    1
     9     9    10    1
    10    10    11    2
    11    11    12    1
    12    12    13    2
    13    13    14    1
    14    14    15    2
    15    15    10    1
@<TRIPOS>SUBSTRUCTURE
     1 RES1        1 GROUP             0 ****  ****    0  
@<TRIPOS>MOLECULE
ligand_59
    15    15     1     0     0
SMALL
NO_CHARGES
****
Generated from the CSD

@<TRIPOS>ATOM
     1 C1      64.4032  40.0372  41.7539   C.3       1 RES1   0.0000
     2 C2      64.2861  41.4631  42.3776   C.2       1 RES1   0.0000
     3 O3      63.1713  41.9000  42.4338   O.2       1 RES1   0.0000
     4 C4      65.4544  42.1980  42.9379   C.3       1 RES1   0.0000
     5 N5      64.8025  43.5551  43.4201   N.am      1 RES1   0.0000
     6 C6      64.5157  44.6311  42.5963   C.2       1 RES1   0.0000
     7 O7      64.4834  44.5715  41.3199   O.2       1 RES1   0.0000
     8 O8      64.2176  45.9379  43.2537   O.3       1 RES1   0.0000
     9 C9      63.9303  47.0279  42.2634   C.3       1 RES1   0.0000
    10 C10     64.3316  48.3466  42.8803   C.2       1 RES1   0.0000
    11 C11     64.1655  49.5288  42.1599   C.2       1 RES1   0.0000
    12 C12     64.5367  50.7445  42.7341   C.2       1 RES1   0.0000
    13 C13     65.0717  50.7713  44.0223   C.2       1 RES1   0.0000
    14 C14     65.2444  49.5915  44.7420   C.2       1 RES1   0.0000
    15 C15     64.8725  48.3758  44.1690   C.2       1 RES1   0.0000
@<TRIPOS>BOND
     1     1     2    1
     2     2     3    2
     3     2     4    1
     4     4     5    1
     5     5     6   am
     6     6     7    2
     7     6     8    1
     8     8     9    1
     9     9    10    1
    10    10    11    2
    11    11    12    1
    12    12    13    2
    13    13    14    1
    14    14    15    2
    15    15    10    1
@<TRIPOS>SUBSTRUCTURE
     1 RES1        1 GROUP             0 ****  ****    0  
@<TRIPOS>MOLECULE
ligand_60
    15    15     1     0     0
SMALL
NO_CHARGES
****
Generated from the CSD

@<TRIPOS>ATOM
     1 C1      64.4082  40.0477  41.7305   C.3       1 RES1   0.0000
     2 C2      64.2902  41.4717  42.3582   C.2       1 RES1   0.0000
     3 O3      63.1794  41.9215  42.3853   O.2       1 RES1   0.0000
     4 C4      65.4507  42.1900  42.9550   C.3       1 RES1   0.0000
     5 N5      64.8007  43.5511  43.4285   N.am      1 RES1   0.0000
     6 C6      64.0919  43.7212  44.6063   C.2       1 RES1   0.0000
     7 O7      63.6400  42.7613  45.3191   O.2       1 RES1   0.0000
     8 O8      63.8543  45.1209  45.0678   O.3       1 RES1   0.0000
     9 C9      63.1019  45.1793  46.3647   C.3       1 RES1   0.0000
    10 C10     63.5004  46.4441  47.0873   C.2       1 RES1   0.0000
    11 C11     62.9395  46.7398  48.3292   C.2       1 RES1   0.0000
    12 C12     63.3113  47.9086  48.9933   C.2       1 RES1   0.0000
    13 C13     64.2391  48.7739  48.4129   C.2       1 RES1   0.0000
    14 C14     64.7965  48.4843  47.1698   C.2       1 RES1   0.0000
    15 C15     64.4261  47.3153  46.5058   C.2       1 RES1   0.0000
@<TRIPOS>BOND
     1     1     2    1
     2     2     3    2
     3     2     4    1
     4     4     5    1
     5     5     6   am
     6     6     7    2
     7     6     8    1
     8     8     9    1
     9     9    10    1
    10    10    11    2
    11    11    12    1
    12    12    13    2
    13    13    14    1
    14    14    15    2
    15    15    10    1
@<TRIPOS>SUBSTRUCTURE
     1 RES1        1 GROUP             0 ****  ****    0  
@<TRIPOS>MOLECULE
ligand_61
    15    15     1     0     0
SMALL
NO_CHARGES
****
Generated from the CSD

@<TRIPOS>ATOM
     1 C1      64.3629  40.0235  41.7570   C.3       1 RES1   0.0000
     2 C2      64.2516  41.4526  42.3744   C.2       1 RES1   0.0000
     3 O3      63.1393  41.8970  42.4224   O.2       1 RES1   0.0000
     4 C4      65.4214  42.1820  42.9387   C.3       1 RES1   0.0000
     5 N5      64.7751  43.5441  43.4145   N.am      1 RES1   0.0000
     6 C6      64.0919  43.7212  44.6063   C.2       1 RES1   0.0000
     7 O7      64.1291  42.9009  45.5858   O.2       1 RES1   0.0000
     8 O8      63.2691  44.9588  44.7478   O.3       1 RES1   0.0000
     9 C9      62.5713  45.0375  46.0738   C.3       1 RES1   0.0000
    10 C10     61.3037  45.8385  45.8954   C.2       1 RES1   0.0000
    11 C11     60.4646  46.0616  46.9866   C.2       1 RES1   0.0000
    12 C12     59.2952  46.8029  46.8173   C.2       1 RES1   0.0000
    13 C13     58.9715  47.3150  45.5606   C.2       1 RES1   0.0000
    14 C14     59.8045  47.0886  44.4676   C.2       1 RES1   0.0000
    15 C15     60.9744  46.3486  44.6363   C.2       1 RES1   0.0000
@<TRIPOS>BOND
     1     1     2    1
     2     2     3    2
     3     2     4    1
     4     4     5    1
     5     5     6   am
     6     6     7    2
     7     6     8    1
     8     8     9    1
     9     9    10    1
    10    10    11    2
    11    11    12    1
    12    12    13    2
    13    13    14    1
    14    14    15    2
    15    15    10    1
@<TRIPOS>SUBSTRUCTURE
     1 RES1        1 GROUP             0 ****  ****    0  
@<TRIPOS>MOLECULE
ligand_62
    15    15     1     0     0
SMALL
NO_CHARGES
****
Generated from the CSD

@<TRIPOS>ATOM
     1 C1      64.3601  40.0488  41.7068   C.3       1 RES1   0.0000
     2 C2      64.2548  41.4683  42.3470   C.2       1 RES1   0.0000
     3 O3      63.1456  41.9205  42.3936   O.2       1 RES1   0.0000
     4 C4      65.4255  42.1792  42.9326   C.3       1 RES1   0.0000
     5 N5      66.5221  42.0128  41.8060   N.am      1 RES1   0.0000
     6 C6      66.6109  42.7964  40.6673   C.2       1 RES1   0.0000
     7 O7      65.8117  43.7542  40.3888   O.2       1 RES1   0.0000
     8 O8      67.7219  42.4995  39.7154   O.3       1 RES1   0.0000
     9 C9      67.7114  43.4042  38.5184   C.3       1 RES1   0.0000
    10 C10     66.7778  42.8155  37.4876   C.2       1 RES1   0.0000
    11 C11     67.2596  41.8882  36.5644   C.2       1 RES1   0.0000
    12 C12     66.3935  41.3464  35.6147   C.2       1 RES1   0.0000
    13 C13     65.0537  41.7347  35.5928   C.2       1 RES1   0.0000
    14 C14     64.5710  42.6653  36.5098   C.2       1 RES1   0.0000
    15 C15     65.4361  43.2065  37.4602   C.2       1 RES1   0.0000
@<TRIPOS>BOND
     1     1     2    1
     2     2     3    2
     3     2     4    1
     4     4     5    1
     5     5     6   am
     6     6     7    2
     7     6     8    1
     8     8     9    1
     9     9    10    1
    10    10    11    2
    11    11    12    1
    12    12    13    2
    13    13    14    1
    14    14    15    2
    15    15    10    1
@<TRIPOS>SUBSTRUCTURE
     1 RES1        1 GROUP             0 ****  ****    0  
@<TRIPOS>MOLECULE
ligand_63
    15    15     1     0     0
SMALL
NO_CHARGES
****
Generated from the CSD

@<TRIPOS>ATOM
     1 C1      64.4152  40.0315  41.7765   C.3       1 RES1   0.0000
     2 C2      64.2880  41.4619  42.3877   C.2       1 RES1   0.0000
     3 O3      63.1711  41.8953  42.4313   O.2       1 RES1   0.0000
     4 C4      65.4489  42.2056  42.9517   C.3       1 RES1   0.0000
     5 N5      66.5423  42.0353  41.8226   N.am      1 RES1   0.0000
     6 C6      66.6109  42.7964  40.6673   C.2       1 RES1   0.0000
     7 O7      65.7932  43.7338  40.3736   O.2       1 RES1   0.0000
     8 O8      67.7219  42.4995  39.7154   O.3       1 RES1   0.0000
     9 C9      67.7114  43.4042  38.5184   C.3       1 RES1   0.0000
    10 C10     68.4607  44.6667  38.8720   C.2       1 RES1   0.0000
    11 C11     67.7683  45.7653  39.3800   C.2       1 RES1   0.0000
    12 C12     68.4647  46.9290  39.7061   C.2       1 RES1   0.0000
    13 C13     69.8463  46.9880  39.5219   C.2       1 RES1   0.0000
    14 C14     70.5398  45.8945  39.0089   C.2       1 RES1   0.0000
    15 C15     69.8444  44.7303  38.6837   C.2       1 RES1   0.0000
@<TRIPOS>BOND
     1     1     2    1
     2     2     3    2
     3     2     4    1
     4     4     5    1
     5     5     6   am
     6     6     7    2
     7     6     8    1
     8     8     9    1
     9     9    10    1
    10    10    11    2
    11    11    12    1
    12    12    13    2
    13    13    14    1
    14    14    15    2
    15    15    10    1
@<TRIPOS>SUBSTRUCTURE
     1 RES1        1 GROUP             0 ****  ****    0  
@<TRIPOS>MOLECULE
ligand_64
    15    15     1     0     0
SMALL
NO_CHARGES
****
Generated from the CSD

@<TRIPOS>ATOM
     1 C1      64.4221  40.0575  41.7220   C.3       1 RES1   0.0000
     2 C2      64.2925  41.4770  42.3578   C.2       1 RES1   0.0000
     3 O3      63.1769  41.9140  42.3950   O.2       1 RES1   0.0000
     4 C4      65.4490  42.2053  42.9502   C.3       1 RES1   0.0000
     5 N5      66.2272  41.0528  43.7021   N.am      1 RES1   0.0000
     6 C6      65.8933  40.5583  44.9521   C.2       1 RES1   0.0000
     7 O7      64.9095  40.9772  45.6523   O.2       1 RES1   0.0000
     8 O8      66.7393  39.4585  45.5030   O.3       1 RES1   0.0000
     9 C9      66.2887  39.0119  46.8627   C.3       1 RES1   0.0000
    10 C10     66.9281  39.9117  47.8932   C.2       1 RES1   0.0000
    11 C11     68.1889  39.5994  48.4004   C.2       1 RES1   0.0000
    12 C12     68.7761  40.4339  49.3513   C.2       1 RES1   0.0000
    13 C13     68.1005  41.5731  49.7896   C.2       1 RES1   0.0000
    14 C14     66.8385  41.8844  49.2893   C.2       1 RES1   0.0000
    15 C15     66.2513  41.0511  48.3378   C.2       1 RES1   0.0000
@<TRIPOS>BOND
     1     1     2    1
     2     2     3    2
     3     2     4    1
     4     4     5    1
     5     5     6   am
     6     6     7    2
     7     6     8    1
     8     8     9    1
     9     9    10    1
    10    10    11    2
    11    11    12    1
    12    12    13    2
    13    13    14    1
    14    14    15    2
    15    15    10    1
@<TRIPOS>SUBSTRUCTURE
     1 RES1        1 GROUP             0 ****  ****    0  
@<TRIPOS>MOLECULE
ligand_65
    15    15     1     0     0
SMALL
NO_CHARGES
****
Generated from the CSD

@<TRIPOS>ATOM
     1 C1      64.3506  40.0222  41.7613   C.3       1 RES1   0.0000
     2 C2      64.2486  41.4528  42.3769   C.2       1 RES1   0.0000
     3 O3      63.1385  41.9020  42.4299   O.2       1 RES1   0.0000
     4 C4      65.4244  42.1782  42.9337   C.3       1 RES1   0.0000
     5 N5      66.2063  41.0296  43.6877   N.am      1 RES1   0.0000
     6 C6      65.8933  40.5583  44.9521   C.2       1 RES1   0.0000
     7 O7      64.9285  40.9985  45.6655   O.2       1 RES1   0.0000
     8 O8      66.7393  39.4585  45.5030   O.3       1 RES1   0.0000
     9 C9      66.2887  39.0119  46.8627   C.3       1 RES1   0.0000
    10 C10     65.2024  37.9778  46.6860   C.2       1 RES1   0.0000
    11 C11     63.8654  38.3732  46.6619   C.2       1 RES1   0.0000
    12 C12     62.8655  37.4147  46.4976   C.2       1 RES1   0.0000
    13 C13     63.2070  36.0692  46.3595   C.2       1 RES1   0.0000
    14 C14     64.5412  35.6705  46.3893   C.2       1 RES1   0.0000
    15 C15     65.5415  36.6283  46.5525   C.2       1 RES1   0.0000
@<TRIPOS>BOND
     1     1     2    1
     2     2     3    2
     3     2     4    1
     4     4     5    1
     5     5     6   am
     6     6     7    2
     7     6     8    1
     8     8     9    1
     9     9    10    1
    10    10    11    2
    11    11    12    1
    12    12    13    2
    13    13    14    1
    14    14    15    2
    15    15    10    1
@<TRIPOS>SUBSTRUCTURE
     1 RES1        1 GROUP             0 ****  ****    0  
@<TRIPOS>MOLECULE
ligand_66
    15    15     1     0     0
SMALL
NO_CHARGES
****
Generated from the CSD

@<TRIPOS>ATOM
     1 C1      64.3269  40.1200  41.6819   C.3       1 RES1   0.0000
     2 C2      64.2597  41.5324  42.3427   C.2       1 RES1   0.0000
     3 O3      63.1648  42.0186  42.3856   O.2       1 RES1   0.0000
     4 C4      65.4462  42.1973  42.9500   C.3       1 RES1   0.0000
     5 N5      66.5430  42.0298  41.8238   N.am      1 RES1   0.0000
     6 C6      67.3174  40.8967  41.6366   C.2       1 RES1   0.0000
     7 O7      67.2405  39.8452  42.3592   O.2       1 RES1   0.0000
     8 O8      68.2953  40.9129  40.5088   O.3       1 RES1   0.0000
     9 C9      69.0805  39.6382  40.4095   C.3       1 RES1   0.0000
    10 C10     70.2673  39.7391  41.3378   C.2       1 RES1   0.0000
    11 C11     71.4567  40.3082  40.8840   C.2       1 RES1   0.0000
    12 C12     72.5500  40.4002  41.7452   C.2       1 RES1   0.0000
    13 C13     72.4486  39.9229  43.0522   C.2       1 RES1   0.0000
    14 C14     71.2640  39.3485  43.5065   C.2       1 RES1   0.0000
    15 C15     70.1701  39.2572  42.6463   C.2       1 RES1   0.0000
@<TRIPOS>BOND
     1     1     2    1
     2     2     3    2
     3     2     4    1
     4     4     5    1
     5     5     6   am
     6     6     7    2
     7     6     8    1
     8     8     9    1
     9     9    10    1
    10    10    11    2
    11    11    12    1
    12    12    13    2
    13    13    14    1
    14    14    15    2
    15    15    10    1
@<TRIPOS>SUBSTRUCTURE
     1 RES1        1 GROUP             0 ****  ****    0  
@<TRIPOS>MOLECULE
ligand_67
    15    15     1     0     0
SMALL
NO_CHARGES
****
Generated from the CSD

@<TRIPOS>ATOM
     1 C1      64.3427  40.0618  41.6949   C.3       1 RES1   0.0000
     2 C2      64.2474  41.4837  42.3313   C.2       1 RES1   0.0000
     3 O3      63.1431  41.9488  42.3657   O.2       1 RES1   0.0000
     4 C4      65.4202  42.1823  42.9273   C.3       1 RES1   0.0000
     5 N5      66.5206  42.0173  41.8042   N.am      1 RES1   0.0000
     6 C6      67.3174  40.8967  41.6366   C.2       1 RES1   0.0000
     7 O7      67.2610  39.8565  42.3772   O.2       1 RES1   0.0000
     8 O8      68.2953  40.9129  40.5088   O.3       1 RES1   0.0000
     9 C9      69.0805  39.6382  40.4095   C.3       1 RES1   0.0000
    10 C10     68.2789  38.6499  39.5963   C.2       1 RES1   0.0000
    11 C11     67.4212  37.7573  40.2380   C.2       1 RES1   0.0000
    12 C12     66.6821  36.8469  39.4827   C.2       1 RES1   0.0000
    13 C13     66.8052  36.8334  38.0931   C.2       1 RES1   0.0000
    14 C14     67.6657  37.7197  37.4497   C.2       1 RES1   0.0000
    15 C15     68.4041  38.6309  38.2041   C.2       1 RES1   0.0000
@<TRIPOS>BOND
     1     1     2    1
     2     2     3    2
     3     2     4    1
     4     4     5    1
     5     5     6   am
     6     6     7    2
     7     6     8    1
     8     8     9    1
     9     9    10    1
    10    10    11    2
    11    11    12    1
    12    12    13    2
    13    13    14    1
    14    14    15    2
    15    15    10    1
@<TRIPOS>SUBSTRUCTURE
     1 RES1        1 GROUP             0 ****  ****    0  
@<TRIPOS>MOLECULE
ligand_68
    15    15     1     0     0
SMALL
NO_CHARGES
****
Generated from the CSD

@<TRIPOS>ATOM
     1 C1      64.3317  40.0266  41.7740   C.3       1 RES1   0.0000
     2 C2      64.2380  41.4552  42.3956   C.2       1 RES1   0.0000
     3 O3      63.1286  41.9041  42.4651   O.2       1 RES1   0.0000
     4 C4      65.4211  42.1790  42.9388   C.3       1 RES1   0.0000
     5 N5      66.2048  41.0313  43.6924   N.am      1 RES1   0.0000
     6 C6      67.0744  40.1389  43.0875   C.2       1 RES1   0.0000
     7 O7      67.3506  40.1372  41.8395   O.2       1 RES1   0.0000
     8 O8      67.7329  39.1235  43.9616   O.3       1 RES1   0.0000
     9 C9      68.6437  38.2091  43.1962   C.3       1 RES1   0.0000
    10 C10     67.8166  37.0768  42.6357   C.2       1 RES1   0.0000
    11 C11     67.5932  35.9345  43.4036   C.2       1 RES1   0.0000
    12 C12     66.8279  34.8915  42.8822   C.2       1 RES1   0.0000
    13 C13     66.2922  34.9957  41.5982   C.2       1 RES1   0.0000
    14 C14     66.5187  36.1327  40.8265   C.2       1 RES1   0.0000
    15 C15     67.2828  37.1764  41.3476   C.2       1 RES1   0.0000
@<TRIPOS>BOND
     1     1     2    1
     2     2     3    2
     3     2     4    1
     4     4     5    1
     5     5     6   am
     6     6     7    2
     7     6     8    1
     8     8     9    1
     9     9    10    1
    10    10    11    2
    11    11    12    1
    12    12    13    2
    13    13    14    1
    14    14    15    2
    15    15    10    1
@<TRIPOS>SUBSTRUCTURE
     1 RES1        1 GROUP             0 ****  ****    0  
@<TRIPOS>MOLECULE
ligand_69
    15    15     1     0     0
SMALL
NO_CHARGES
****
Generated from the CSD

@<TRIPOS>ATOM
     1 C1      64.3060  40.0538  41.8264   C.3       1 RES1   0.0000
     2 C2      64.2460  41.4910  42.4320   C.2       1 RES1   0.0000
     3 O3      63.1452  41.9581  42.5166   O.2       1 RES1   0.0000
     4 C4      65.4501  42.2026  42.9444   C.3       1 RES1   0.0000
     5 N5      66.2299  41.0518  43.6974   N.am      1 RES1   0.0000
     6 C6      67.0744  40.1389  43.0875   C.2       1 RES1   0.0000
     7 O7      67.3277  40.1183  41.8349   O.2       1 RES1   0.0000
     8 O8      67.7329  39.1235  43.9616   O.3       1 RES1   0.0000
     9 C9      68.6437  38.2091  43.1962   C.3       1 RES1   0.0000
    10 C10     69.9954  38.8728  43.0830   C.2       1 RES1   0.0000
    11 C11     70.2910  39.6597  41.9704   C.2       1 RES1   0.0000
    12 C12     71.5405  40.2715  41.8705   C.2       1 RES1   0.0000
    13 C13     72.4858  40.0927  42.8808   C.2       1 RES1   0.0000
    14 C14     72.1957  39.3023  43.9903   C.2       1 RES1   0.0000
    15 C15     70.9462  38.6913  44.0914   C.2       1 RES1   0.0000
@<TRIPOS>BOND
     1     1     2    1
     2     2     3    2
     3     2     4    1
     4     4     5    1
     5     5     6   am
     6     6     7    2
     7     6     8    1
     8     8     9    1
     9     9    10    1
    10    10    11    2
    11    11    12    1
    12    12    13    2
    13    13    14    1
    14    14    15    2
    15    15    10    1
@<TRIPOS>SUBSTRUCTURE
     1 RES1        1 GROUP             0 ****  ****    0  
@<TRIPOS>MOLECULE
ligand_70
    15    15     1     0     0
SMALL
NO_CHARGES
****
Generated from the CSD

@<TRIPOS>ATOM
     1 C1      64.3793  40.0462  41.7190   C.3       1 RES1   0.0000
     2 C2      64.2638  41.4692  42.3497   C.2       1 RES1   0.0000
     3 O3      63.1519  41.9155  42.3894   O.2       1 RES1   0.0000
     4 C4      65.4284  42.1904  42.9347   C.3       1 RES1   0.0000
     5 N5      64.7799  43.5501  43.4143   N.am      1 RES1   0.0000
     6 C6      65.0263  44.7880  42.8438   C.2       1 RES1   0.0000
     7 O7      65.8126  44.9808  41.8547   O.2       1 RES1   0.0000
     8 O8      64.3144  45.9647  43.4245   O.3       1 RES1   0.0000
     9 C9      64.6435  47.2446  42.7138   C.3       1 RES1   0.0000
    10 C10     65.4118  48.1308  43.6650   C.2       1 RES1   0.0000
    11 C11     64.7263  49.0209  44.4910   C.2       1 RES1   0.0000
    12 C12     65.4400  49.8368  45.3687   C.2       1 RES1   0.0000
    13 C13     66.8322  49.7592  45.4149   C.2       1 RES1   0.0000
    14 C14     67.5201  48.8755  44.5868   C.2       1 RES1   0.0000
    15 C15     66.8071  48.0586  43.7099   C.2       1 RES1   0.0000
@<TRIPOS>BOND
     1     1     2    1
     2     2     3    2
     3     2     4    1
     4     4     5    1
     5     5     6   am
     6     6     7    2
     7     6     8    1
     8     8     9    1
     9     9    10    1
    10    10    11    2
    11    11    12    1
    12    12    13    2
    13    13    14    1
    14    14    15    2
    15    15    10    1
@<TRIPOS>SUBSTRUCTURE
     1 RES1        1 GROUP             0 ****  ****    0  
@<TRIPOS>MOLECULE
ligand_71
    15    15     1     0     0
SMALL
NO_CHARGES
****
Generated from the CSD

@<TRIPOS>ATOM
     1 C1      64.3713  40.0297  41.7557   C.3       1 RES1   0.0000
     2 C2      64.2577  41.4566  42.3778   C.2       1 RES1   0.0000
     3 O3      63.1444  41.8982  42.4292   O.2       1 RES1   0.0000
     4 C4      65.4267  42.1871  42.9421   C.3       1 RES1   0.0000
     5 N5      64.7785  43.5473  43.4206   N.am      1 RES1   0.0000
     6 C6      64.6257  43.9279  44.7436   C.2       1 RES1   0.0000
     7 O7      64.9928  43.2205  45.7429   O.2       1 RES1   0.0000
     8 O8      63.9986  45.2569  45.0070   O.3       1 RES1   0.0000
     9 C9      63.8847  45.5593  46.4722   C.3       1 RES1   0.0000
    10 C10     64.8006  46.7173  46.7897   C.2       1 RES1   0.0000
    11 C11     66.1213  46.4745  47.1654   C.2       1 RES1   0.0000
    12 C12     66.9638  47.5472  47.4568   C.2       1 RES1   0.0000
    13 C13     66.4820  48.8537  47.3722   C.2       1 RES1   0.0000
    14 C14     65.1616  49.0991  47.0031   C.2       1 RES1   0.0000
    15 C15     64.3190  48.0271  46.7105   C.2       1 RES1   0.0000
@<TRIPOS>BOND
     1     1     2    1
     2     2     3    2
     3     2     4    1
     4     4     5    1
     5     5     6   am
     6     6     7    2
     7     6     8    1
     8     8     9    1
     9     9    10    1
    10    10    11    2
    11    11    12    1
    12    12    13    2
    13    13    14    1
    14    14    15    2
    15    15    10    1
@<TRIPOS>SUBSTRUCTURE
     1 RES1        1 GROUP             0 ****  ****    0  
@<TRIPOS>MOLECULE
ligand_72
    15    15     1     0     0
SMALL
NO_CHARGES
****
Generated from the CSD

@<TRIPOS>ATOM
     1 C1      64.3743  40.0474  41.7040   C.3       1 RES1   0.0000
     2 C2      64.2591  41.4680  42.3401   C.2       1 RES1   0.0000
     3 O3      63.1477  41.9156  42.3787   O.2       1 RES1   0.0000
     4 C4      65.4231  42.1853  42.9311   C.3       1 RES1   0.0000
     5 N5      64.7752  43.5439  43.4144   N.am      1 RES1   0.0000
     6 C6      64.5157  44.6311  42.5963   C.2       1 RES1   0.0000
     7 O7      65.0062  44.7843  41.4260   O.2       1 RES1   0.0000
     8 O8      63.5945  45.6813  43.1229   O.3       1 RES1   0.0000
     9 C9      63.3681  46.7931  42.1410   C.3       1 RES1   0.0000
    10 C10     61.9993  47.3781  42.3950   C.2       1 RES1   0.0000
    11 C11     61.8487  48.7577  42.5309   C.2       1 RES1   0.0000
    12 C12     60.5824  49.2937  42.7645   C.2       1 RES1   0.0000
    13 C13     59.4762  48.4492  42.8616   C.2       1 RES1   0.0000
    14 C14     59.6243  47.0704  42.7323   C.2       1 RES1   0.0000
    15 C15     60.8899  46.5339  42.4977   C.2       1 RES1   0.0000
@<TRIPOS>BOND
     1     1     2    1
     2     2     3    2
     3     2     4    1
     4     4     5    1
     5     5     6   am
     6     6     7    2
     7     6     8    1
     8     8     9    1
     9     9    10    1
    10    10    11    2
    11    11    12    1
    12    12    13    2
    13    13    14    1
    14    14    15    2
    15    15    10    1
@<TRIPOS>SUBSTRUCTURE
     1 RES1        1 GROUP             0 ****  ****    0  
@<TRIPOS>MOLECULE
ligand_73
    15    15     1     0     0
SMALL
NO_CHARGES
****
Generated from the CSD

@<TRIPOS>ATOM
     1 C1      64.3629  40.0235  41.7570   C.3       1 RES1   0.0000
     2 C2      64.2516  41.4526  42.3744   C.2       1 RES1   0.0000
     3 O3      63.1393  41.8970  42.4224   O.2       1 RES1   0.0000
     4 C4      65.4214  42.1820  42.9387   C.3       1 RES1   0.0000
     5 N5      64.7751  43.5441  43.4145   N.am      1 RES1   0.0000
     6 C6      64.0919  43.7212  44.6063   C.2       1 RES1   0.0000
     7 O7      64.1291  42.9009  45.5858   O.2       1 RES1   0.0000
     8 O8      63.2691  44.9588  44.7478   O.3       1 RES1   0.0000
     9 C9      62.5713  45.0375  46.0738   C.3       1 RES1   0.0000
    10 C10     61.3037  45.8385  45.8954   C.2       1 RES1   0.0000
    11 C11     61.0196  46.8907  46.7653   C.2       1 RES1   0.0000
    12 C12     59.8480  47.6285  46.5961   C.2       1 RES1   0.0000
    13 C13     58.9684  47.3101  45.5612   C.2       1 RES1   0.0000
    14 C14     59.2463  46.2559  44.6945   C.2       1 RES1   0.0000
    15 C15     60.4181  45.5186  44.8623   C.2       1 RES1   0.0000
@<TRIPOS>BOND
     1     1     2    1
     2     2     3    2
     3     2     4    1
     4     4     5    1
     5     5     6   am
     6     6     7    2
     7     6     8    1
     8     8     9    1
     9     9    10    1
    10    10    11    2
    11    11    12    1
    12    12    13    2
    13    13    14    1
    14    14    15    2
    15    15    10    1
@<TRIPOS>SUBSTRUCTURE
     1 RES1        1 GROUP             0 ****  ****    0  
@<TRIPOS>MOLECULE
ligand_74
    15    15     1     0     0
SMALL
NO_CHARGES
****
Generated from the CSD

@<TRIPOS>ATOM
     1 C1      64.4078  40.0337  41.7673   C.3       1 RES1   0.0000
     2 C2      64.2835  41.4627  42.3823   C.2       1 RES1   0.0000
     3 O3      63.1677  41.8986  42.4262   O.2       1 RES1   0.0000
     4 C4      65.4458  42.2020  42.9491   C.3       1 RES1   0.0000
     5 N5      66.5396  42.0323  41.8204   N.am      1 RES1   0.0000
     6 C6      66.6109  42.7964  40.6673   C.2       1 RES1   0.0000
     7 O7      65.7956  43.7366  40.3756   O.2       1 RES1   0.0000
     8 O8      67.7219  42.4995  39.7154   O.3       1 RES1   0.0000
     9 C9      67.7114  43.4042  38.5184   C.3       1 RES1   0.0000
    10 C10     66.7453  42.8382  37.5050   C.2       1 RES1   0.0000
    11 C11     66.5370  43.5041  36.2977   C.2       1 RES1   0.0000
    12 C12     65.6444  42.9771  35.3644   C.2       1 RES1   0.0000
    13 C13     64.9658  41.7905  35.6431   C.2       1 RES1   0.0000
    14 C14     65.1673  41.1263  36.8507   C.2       1 RES1   0.0000
    15 C15     66.0603  41.6520  37.7838   C.2       1 RES1   0.0000
@<TRIPOS>BOND
     1     1     2    1
     2     2     3    2
     3     2     4    1
     4     4     5    1
     5     5     6   am
     6     6     7    2
     7     6     8    1
     8     8     9    1
     9     9    10    1
    10    10    11    2
    11    11    12    1
    12    12    13    2
    13    13    14    1
    14    14    15    2
    15    15    10    1
@<TRIPOS>SUBSTRUCTURE
     1 RES1        1 GROUP             0 ****  ****    0  
@<TRIPOS>MOLECULE
ligand_75
    15    15     1     0     0
SMALL
NO_CHARGES
****
Generated from the CSD

@<TRIPOS>ATOM
     1 C1      64.3690  40.0458  41.7181   C.3       1 RES1   0.0000
     2 C2      64.2601  41.4672  42.3536   C.2       1 RES1   0.0000
     3 O3      63.1497  41.9164  42.3997   O.2       1 RES1   0.0000
     4 C4      65.4293  42.1834  42.9357   C.3       1 RES1   0.0000
     5 N5      66.5254  42.0164  41.8088   N.am      1 RES1   0.0000
     6 C6      66.6109  42.7964  40.6673   C.2       1 RES1   0.0000
     7 O7      65.8087  43.7509  40.3863   O.2       1 RES1   0.0000
     8 O8      67.7219  42.4995  39.7154   O.3       1 RES1   0.0000
     9 C9      67.7114  43.4042  38.5184   C.3       1 RES1   0.0000
    10 C10     68.4220  44.6849  38.8861   C.2       1 RES1   0.0000
    11 C11     68.5400  45.7076  37.9455   C.2       1 RES1   0.0000
    12 C12     69.1964  46.8891  38.2899   C.2       1 RES1   0.0000
    13 C13     69.7308  47.0409  39.5697   C.2       1 RES1   0.0000
    14 C14     69.6198  46.0189  40.5093   C.2       1 RES1   0.0000
    15 C15     68.9627  44.8378  40.1660   C.2       1 RES1   0.0000
@<TRIPOS>BOND
     1     1     2    1
     2     2     3    2
     3     2     4    1
     4     4     5    1
     5     5     6   am
     6     6     7    2
     7     6     8    1
     8     8     9    1
     9     9    10    1
    10    10    11    2
    11    11    12    1
    12    12    13    2
    13    13    14    1
    14    14    15    2
    15    15    10    1
@<TRIPOS>SUBSTRUCTURE
     1 RES1        1 GROUP             0 ****  ****    0  
@<TRIPOS>MOLECULE
ligand_76
    15    15     1     0     0
SMALL
NO_CHARGES
****
Generated from the CSD

@<TRIPOS>ATOM
     1 C1      64.3601  40.0268  41.7559   C.3       1 RES1   0.0000
     2 C2      64.2545  41.4559  42.3743   C.2       1 RES1   0.0000
     3 O3      63.1436  41.9035  42.4252   O.2       1 RES1   0.0000
     4 C4      65.4277  42.1818  42.9359   C.3       1 RES1   0.0000
     5 N5      66.2091  41.0326  43.6896   N.am      1 RES1   0.0000
     6 C6      65.8933  40.5583  44.9521   C.2       1 RES1   0.0000
     7 O7      64.9259  40.9957  45.6638   O.2       1 RES1   0.0000
     8 O8      66.7393  39.4585  45.5030   O.3       1 RES1   0.0000
     9 C9      66.2887  39.0119  46.8627   C.3       1 RES1   0.0000
    10 C10     66.8939  39.9381  47.8905   C.2       1 RES1   0.0000
    11 C11     66.6171  39.7484  49.2439   C.2       1 RES1   0.0000
    12 C12     67.1790  40.6058  50.1897   C.2       1 RES1   0.0000
    13 C13     68.0119  41.6465  49.7779   C.2       1 RES1   0.0000
    14 C14     68.2853  41.8422  48.4263   C.2       1 RES1   0.0000
    15 C15     67.7248  40.9847  47.4802   C.2       1 RES1   0.0000
@<TRIPOS>BOND
     1     1     2    1
     2     2     3    2
     3     2     4    1
     4     4     5    1
     5     5     6   am
     6     6     7    2
     7     6     8    1
     8     8     9    1
     9     9    10    1
    10    10    11    2
    11    11    12    1
    12    12    13    2
    13    13    14    1
    14    14    15    2
    15    15    10    1
@<TRIPOS>SUBSTRUCTURE
     1 RES1        1 GROUP             0 ****  ****    0  
@<TRIPOS>MOLECULE
ligand_77
    15    15     1     0     0
SMALL
NO_CHARGES
****
Generated from the CSD

@<TRIPOS>ATOM
     1 C1      64.4105  40.0517  41.7282   C.3       1 RES1   0.0000
     2 C2      64.2854  41.4730  42.3608   C.2       1 RES1   0.0000
     3 O3      63.1706  41.9120  42.4006   O.2       1 RES1   0.0000
     4 C4      65.4450  42.2009  42.9475   C.3       1 RES1   0.0000
     5 N5      66.2239  41.0490  43.6997   N.am      1 RES1   0.0000
     6 C6      65.8933  40.5583  44.9521   C.2       1 RES1   0.0000
     7 O7      64.9125  40.9807  45.6545   O.2       1 RES1   0.0000
     8 O8      66.7393  39.4585  45.5030   O.3       1 RES1   0.0000
     9 C9      66.2887  39.0119  46.8627   C.3       1 RES1   0.0000
    10 C10     65.1717  38.0109  46.6867   C.2       1 RES1   0.0000
    11 C11     64.5629  37.4465  47.8071   C.2       1 RES1   0.0000
    12 C12     63.5310  36.5231  47.6397   C.2       1 RES1   0.0000
    13 C13     63.1152  36.1691  46.3560   C.2       1 RES1   0.0000
    14 C14     63.7255  36.7265  45.2350   C.2       1 RES1   0.0000
    15 C15     64.7564  37.6507  45.4015   C.2       1 RES1   0.0000
@<TRIPOS>BOND
     1     1     2    1
     2     2     3    2
     3     2     4    1
     4     4     5    1
     5     5     6   am
     6     6     7    2
     7     6     8    1
     8     8     9    1
     9     9    10    1
    10    10    11    2
    11    11    12    1
    12    12    13    2
    13    13    14    1
    14    14    15    2
    15    15    10    1
@<TRIPOS>SUBSTRUCTURE
     1 RES1        1 GROUP             0 ****  ****    0  
@<TRIPOS>MOLECULE
ligand_78
    15    15     1     0     0
SMALL
NO_CHARGES
****
Generated from the CSD

@<TRIPOS>ATOM
     1 C1      64.3434  40.0649  41.6927   C.3       1 RES1   0.0000
     2 C2      64.2485  41.4859  42.3313   C.2       1 RES1   0.0000
     3 O3      63.1443  41.9513  42.3665   O.2       1 RES1   0.0000
     4 C4      65.4215  42.1831  42.9284   C.3       1 RES1   0.0000
     5 N5      66.5223  42.0182  41.8057   N.am      1 RES1   0.0000
     6 C6      67.3174  40.8967  41.6366   C.2       1 RES1   0.0000
     7 O7      67.2594  39.8556  42.3758   O.2       1 RES1   0.0000
     8 O8      68.2953  40.9129  40.5088   O.3       1 RES1   0.0000
     9 C9      69.0805  39.6382  40.4095   C.3       1 RES1   0.0000
    10 C10     70.2455  39.7235  41.3665   C.2       1 RES1   0.0000
    11 C11     71.1292  38.6510  41.4812   C.2       1 RES1   0.0000
    12 C12     72.2045  38.7346  42.3657   C.2       1 RES1   0.0000
    13 C13     72.3892  39.8872  43.1298   C.2       1 RES1   0.0000
    14 C14     71.5047  40.9577  43.0219   C.2       1 RES1   0.0000
    15 C15     70.4302  40.8752  42.1369   C.2       1 RES1   0.0000
@<TRIPOS>BOND
     1     1     2    1
     2     2     3    2
     3     2     4    1
     4     4     5    1
     5     5     6   am
     6     6     7    2
     7     6     8    1
     8     8     9    1
     9     9    10    1
    10    10    11    2
    11    11    12    1
    12    12    13    2
    13    13    14    1
    14    14    15    2
    15    15    10    1
@<TRIPOS>SUBSTRUCTURE
     1 RES1        1 GROUP             0 ****  ****    0  
@<TRIPOS>MOLECULE
ligand_79
    15    15     1     0     0
SMALL
NO_CHARGES
****
Generated from the CSD

@<TRIPOS>ATOM
     1 C1      64.3291  40.1155  41.6812   C.3       1 RES1   0.0000
     2 C2      64.2589  41.5282  42.3410   C.2       1 RES1   0.0000
     3 O3      63.1630  42.0121  42.3835   O.2       1 RES1   0.0000
     4 C4      65.4439  42.1960  42.9480   C.3       1 RES1   0.0000
     5 N5      66.5415  42.0290  41.8225   N.am      1 RES1   0.0000
     6 C6      67.3174  40.8967  41.6366   C.2       1 RES1   0.0000
     7 O7      67.2418  39.8459  42.3604   O.2       1 RES1   0.0000
     8 O8      68.2953  40.9129  40.5088   O.3       1 RES1   0.0000
     9 C9      69.0805  39.6382  40.4095   C.3       1 RES1   0.0000
    10 C10     68.2600  38.6353  39.6339   C.2       1 RES1   0.0000
    11 C11     68.7606  37.3530  39.4114   C.2       1 RES1   0.0000
    12 C12     67.9988  36.4298  38.6953   C.2       1 RES1   0.0000
    13 C13     66.7440  36.7933  38.2057   C.2       1 RES1   0.0000
    14 C14     66.2440  38.0753  38.4210   C.2       1 RES1   0.0000
    15 C15     67.0046  38.9985  39.1379   C.2       1 RES1   0.0000
@<TRIPOS>BOND
     1     1     2    1
     2     2     3    2
     3     2     4    1
     4     4     5    1
     5     5     6   am
     6     6     7    2
     7     6     8    1
     8     8     9    1
     9     9    10    1
    10    10    11    2
    11    11    12    1
    12    12    13    2
    13    13    14    1
    14    14    15    2
    15    15    10    1
@<TRIPOS>SUBSTRUCTURE
     1 RES1        1 GROUP             0 ****  ****    0  
@<TRIPOS>MOLECULE
ligand_80
    15    15     1     0     0
SMALL
NO_CHARGES
****
Generated from the CSD

@<TRIPOS>ATOM
     1 C1      64.3133  40.0539  41.8135   C.3       1 RES1   0.0000
     2 C2      64.2477  41.4887  42.4242   C.2       1 RES1   0.0000
     3 O3      63.1455  41.9530  42.5060   O.2       1 RES1   0.0000
     4 C4      65.4481  42.2010  42.9440   C.3       1 RES1   0.0000
     5 N5      66.2269  41.0494  43.6968   N.am      1 RES1   0.0000
     6 C6      67.0744  40.1389  43.0875   C.2       1 RES1   0.0000
     7 O7      67.3304  40.1205  41.8354   O.2       1 RES1   0.0000
     8 O8      67.7329  39.1235  43.9616   O.3       1 RES1   0.0000
     9 C9      68.6437  38.2091  43.1962   C.3       1 RES1   0.0000
    10 C10     67.8103  37.0989  42.6017   C.2       1 RES1   0.0000
    11 C11     68.4191  36.1147  41.8239   C.2       1 RES1   0.0000
    12 C12     67.6455  35.0907  41.2775   C.2       1 RES1   0.0000
    13 C13     66.2704  35.0571  41.5106   C.2       1 RES1   0.0000
    14 C14     65.6586  36.0421  42.2820   C.2       1 RES1   0.0000
    15 C15     66.4315  37.0656  42.8295   C.2       1 RES1   0.0000
@<TRIPOS>BOND
     1     1     2    1
     2     2     3    2
     3     2     4    1
     4     4     5    1
     5     5     6   am
     6     6     7    2
     7     6     8    1
     8     8     9    1
     9     9    10    1
    10    10    11    2
    11    11    12    1
    12    12    13    2
    13    13    14    1
    14    14    15    2
    15    15    10    1
@<TRIPOS>SUBSTRUCTURE
     1 RES1        1 GROUP             0 ****  ****    0  
@<TRIPOS>MOLECULE
ligand_81
    15    15     1     0     0
SMALL
NO_CHARGES
****
Generated from the CSD

@<TRIPOS>ATOM
     1 C1      64.3342  40.0330  41.7721   C.3       1 RES1   0.0000
     2 C2      64.2418  41.4609  42.3954   C.2       1 RES1   0.0000
     3 O3      63.1329  41.9109  42.4653   O.2       1 RES1   0.0000
     4 C4      65.4256  42.1827  42.9398   C.3       1 RES1   0.0000
     5 N5      66.2074  41.0335  43.6930   N.am      1 RES1   0.0000
     6 C6      67.0744  40.1389  43.0875   C.2       1 RES1   0.0000
     7 O7      67.3482  40.1352  41.8390   O.2       1 RES1   0.0000
     8 O8      67.7329  39.1235  43.9616   O.3       1 RES1   0.0000
     9 C9      68.6437  38.2091  43.1962   C.3       1 RES1   0.0000
    10 C10     69.9818  38.8921  43.0437   C.2       1 RES1   0.0000
    11 C11     71.0118  38.2541  42.3533   C.2       1 RES1   0.0000
    12 C12     72.2458  38.8892  42.2141   C.2       1 RES1   0.0000
    13 C13     72.4431  40.1554  42.7656   C.2       1 RES1   0.0000
    14 C14     71.4182  40.7926  43.4609   C.2       1 RES1   0.0000
    15 C15     70.1838  40.1587  43.5994   C.2       1 RES1   0.0000
@<TRIPOS>BOND
     1     1     2    1
     2     2     3    2
     3     2     4    1
     4     4     5    1
     5     5     6   am
     6     6     7    2
     7     6     8    1
     8     8     9    1
     9     9    10    1
    10    10    11    2
    11    11    12    1
    12    12    13    2
    13    13    14    1
    14    14    15    2
    15    15    10    1
@<TRIPOS>SUBSTRUCTURE
     1 RES1        1 GROUP             0 ****  ****    0  
@<TRIPOS>MOLECULE
ligand_82
    15    15     1     0     0
SMALL
NO_CHARGES
****
Generated from the CSD

@<TRIPOS>ATOM
     1 C1      64.3800  40.0457  41.7209   C.3       1 RES1   0.0000
     2 C2      64.2644  41.4688  42.3512   C.2       1 RES1   0.0000
     3 O3      63.1524  41.9148  42.3914   O.2       1 RES1   0.0000
     4 C4      65.4291  42.1905  42.9354   C.3       1 RES1   0.0000
     5 N5      64.7806  43.5502  43.4148   N.am      1 RES1   0.0000
     6 C6      65.0263  44.7880  42.8438   C.2       1 RES1   0.0000
     7 O7      65.8120  44.9807  41.8542   O.2       1 RES1   0.0000
     8 O8      64.3144  45.9647  43.4245   O.3       1 RES1   0.0000
     9 C9      64.6435  47.2446  42.7138   C.3       1 RES1   0.0000
    10 C10     65.4121  48.1307  43.6649   C.2       1 RES1   0.0000
    11 C11     65.8407  49.3900  43.2470   C.2       1 RES1   0.0000
    12 C12     66.5495  50.2054  44.1291   C.2       1 RES1   0.0000
    13 C13     66.8262  49.7576  45.4212   C.2       1 RES1   0.0000
    14 C14     66.4047  48.4978  45.8395   C.2       1 RES1   0.0000
    15 C15     65.6950  47.6825  44.9584   C.2       1 RES1   0.0000
@<TRIPOS>BOND
     1     1     2    1
     2     2     3    2
     3     2     4    1
     4     4     5    1
     5     5     6   am
     6     6     7    2
     7     6     8    1
     8     8     9    1
     9     9    10    1
    10    10    11    2
    11    11    12    1
    12    12    13    2
    13    13    14    1
    14    14    15    2
    15    15    10    1
@<TRIPOS>SUBSTRUCTURE
     1 RES1        1 GROUP             0 ****  ****    0  
@<TRIPOS>MOLECULE
ligand_83
    15    15     1     0     0
SMALL
NO_CHARGES
****
Generated from the CSD

@<TRIPOS>ATOM
     1 C1      64.3941  40.0344  41.7610   C.3       1 RES1   0.0000
     2 C2      64.2777  41.4613  42.3828   C.2       1 RES1   0.0000
     3 O3      63.1637  41.9013  42.4326   O.2       1 RES1   0.0000
     4 C4      65.4449  42.1935  42.9486   C.3       1 RES1   0.0000
     5 N5      64.7941  43.5529  43.4261   N.am      1 RES1   0.0000
     6 C6      65.0263  44.7880  42.8438   C.2       1 RES1   0.0000
     7 O7      65.7996  44.9782  41.8440   O.2       1 RES1   0.0000
     8 O8      64.3144  45.9647  43.4245   O.3       1 RES1   0.0000
     9 C9      64.6435  47.2446  42.7138   C.3       1 RES1   0.0000
    10 C10     63.3986  47.7293  42.0097   C.2       1 RES1   0.0000
    11 C11     63.4357  48.9100  41.2688   C.2       1 RES1   0.0000
    12 C12     62.2836  49.3534  40.6194   C.2       1 RES1   0.0000
    13 C13     61.1032  48.6159  40.7150   C.2       1 RES1   0.0000
    14 C14     61.0615  47.4394  41.4593   C.2       1 RES1   0.0000
    15 C15     62.2132  46.9950  42.1079   C.2       1 RES1   0.0000
@<TRIPOS>BOND
     1     1     2    1
     2     2     3    2
     3     2     4    1
     4     4     5    1
     5     5     6   am
     6     6     7    2
     7     6     8    1
     8     8     9    1
     9     9    10    1
    10    10    11    2
    11    11    12    1
    12    12    13    2
    13    13    14    1
    14    14    15    2
    15    15    10    1
@<TRIPOS>SUBSTRUCTURE
     1 RES1        1 GROUP             0 ****  ****    0  
@<TRIPOS>MOLECULE
ligand_84
    15    15     1     0     0
SMALL
NO_CHARGES
****
Generated from the CSD

@<TRIPOS>ATOM
     1 C1      64.4014  40.0495  41.7277   C.3       1 RES1   0.0000
     2 C2      64.2832  41.4727  42.3573   C.2       1 RES1   0.0000
     3 O3      63.1705  41.9170  42.3964   O.2       1 RES1   0.0000
     4 C4      65.4464  42.1964  42.9420   C.3       1 RES1   0.0000
     5 N5      64.7954  43.5553  43.4204   N.am      1 RES1   0.0000
     6 C6      64.6257  43.9279  44.7436   C.2       1 RES1   0.0000
     7 O7      64.9774  43.2131  45.7432   O.2       1 RES1   0.0000
     8 O8      63.9986  45.2569  45.0070   O.3       1 RES1   0.0000
     9 C9      63.8847  45.5593  46.4722   C.3       1 RES1   0.0000
    10 C10     62.4199  45.5839  46.8386   C.2       1 RES1   0.0000
    11 C11     62.0380  45.8459  48.1538   C.2       1 RES1   0.0000
    12 C12     60.6838  45.8686  48.4874   C.2       1 RES1   0.0000
    13 C13     59.7212  45.6286  47.5065   C.2       1 RES1   0.0000
    14 C14     60.0999  45.3605  46.1933   C.2       1 RES1   0.0000
    15 C15     61.4535  45.3389  45.8588   C.2       1 RES1   0.0000
@<TRIPOS>BOND
     1     1     2    1
     2     2     3    2
     3     2     4    1
     4     4     5    1
     5     5     6   am
     6     6     7    2
     7     6     8    1
     8     8     9    1
     9     9    10    1
    10    10    11    2
    11    11    12    1
    12    12    13    2
    13    13    14    1
    14    14    15    2
    15    15    10    1
@<TRIPOS>SUBSTRUCTURE
     1 RES1        1 GROUP             0 ****  ****    0  
@<TRIPOS>MOLECULE
ligand_85
    15    15     1     0     0
SMALL
NO_CHARGES
****
Generated from the CSD

@<TRIPOS>ATOM
     1 C1      64.3727  40.0306  41.7544   C.3       1 RES1   0.0000
     2 C2      64.2589  41.4573  42.3768   C.2       1 RES1   0.0000
     3 O3      63.1456  41.8991  42.4276   O.2       1 RES1   0.0000
     4 C4      65.4276  42.1876  42.9421   C.3       1 RES1   0.0000
     5 N5      64.7793  43.5477  43.4206   N.am      1 RES1   0.0000
     6 C6      64.6257  43.9279  44.7436   C.2       1 RES1   0.0000
     7 O7      64.9921  43.2201  45.7429   O.2       1 RES1   0.0000
     8 O8      63.9986  45.2569  45.0070   O.3       1 RES1   0.0000
     9 C9      63.8847  45.5593  46.4722   C.3       1 RES1   0.0000
    10 C10     64.8008  46.7170  46.7898   C.2       1 RES1   0.0000
    11 C11     64.8829  47.1989  48.0957   C.2       1 RES1   0.0000
    12 C12     65.7311  48.2678  48.3845   C.2       1 RES1   0.0000
    13 C13     66.4901  48.8485  47.3681   C.2       1 RES1   0.0000
    14 C14     66.4056  48.3733  46.0616   C.2       1 RES1   0.0000
    15 C15     65.5587  47.3039  45.7723   C.2       1 RES1   0.0000
@<TRIPOS>BOND
     1     1     2    1
     2     2     3    2
     3     2     4    1
     4     4     5    1
     5     5     6   am
     6     6     7    2
     7     6     8    1
     8     8     9    1
     9     9    10    1
    10    10    11    2
    11    11    12    1
    12    12    13    2
    13    13    14    1
    14    14    15    2
    15    15    10    1
@<TRIPOS>SUBSTRUCTURE
     1 RES1        1 GROUP             0 ****  ****    0  
@<TRIPOS>MOLECULE
ligand_86
    15    15     1     0     0
SMALL
NO_CHARGES
****
Generated from the CSD

@<TRIPOS>ATOM
     1 C1      64.3870  40.0400  41.7410   C.3       1 RES1   0.0000
     2 C2      64.2710  41.4650  42.3670   C.2       1 RES1   0.0000
     3 O3      63.1580  41.9080  42.4120   O.2       1 RES1   0.0000
     4 C4      65.4370  42.1920  42.9420   C.3       1 RES1   0.0000
     5 N5      64.7874  43.5515  43.4205   N.am      1 RES1   0.0000
     6 C6      65.4805  44.5926  44.0158   C.2       1 RES1   0.0000
     7 O7      64.9444  45.6878  44.3988   O.2       1 RES1   0.0000
     8 O8      66.9468  44.4081  44.2269   O.3       1 RES1   0.0000
     9 C9      67.5870  45.5942  44.8862   C.3       1 RES1   0.0000
    10 C10     69.0601  45.3063  45.0523   C.2       1 RES1   0.0000
    11 C11     69.5194  44.6878  46.2145   C.2       1 RES1   0.0000
    12 C12     70.8807  44.4229  46.3632   C.2       1 RES1   0.0000
    13 C13     71.7735  44.7781  45.3517   C.2       1 RES1   0.0000
    14 C14     71.3185  45.4015  44.1923   C.2       1 RES1   0.0000
    15 C15     69.9574  45.6656  44.0425   C.2       1 RES1   0.0000
@<TRIPOS>BOND
     1     1     2    1
     2     2     3    2
     3     2     4    1
     4     4     5    1
     5     5     6   am
     6     6     7    2
     7     6     8    1
     8     8     9    1
     9     9    10    1
    10    10    11    2
    11    11    12    1
    12    12    13    2
    13    13    14    1
    14    14    15    2
    15    15    10    1
@<TRIPOS>SUBSTRUCTURE
     1 RES1        1 GROUP             0 ****  ****    0  
@<TRIPOS>MOLECULE
ligand_87
    15    15     1     0     0
SMALL
NO_CHARGES
****
Generated from the CSD

@<TRIPOS>ATOM
     1 C1      64.3974  40.0538  41.7263   C.3       1 RES1   0.0000
     2 C2      64.2820  41.4768  42.3569   C.2       1 RES1   0.0000
     3 O3      63.1702  41.9232  42.3966   O.2       1 RES1   0.0000
     4 C4      65.4467  42.1979  42.9418   C.3       1 RES1   0.0000
     5 N5      64.7515  43.3541  43.7659   N.am      1 RES1   0.0000
     6 C6      64.7317  43.4378  45.1484   C.2       1 RES1   0.0000
     7 O7      65.2767  42.5848  45.9288   O.2       1 RES1   0.0000
     8 O8      64.0334  44.6098  45.7546   O.3       1 RES1   0.0000
     9 C9      64.0949  44.6040  47.2538   C.3       1 RES1   0.0000
    10 C10     62.6973  44.3910  47.7846   C.2       1 RES1   0.0000
    11 C11     61.8774  45.4895  48.0404   C.2       1 RES1   0.0000
    12 C12     60.5869  45.2880  48.5298   C.2       1 RES1   0.0000
    13 C13     60.1247  43.9922  48.7611   C.2       1 RES1   0.0000
    14 C14     60.9434  42.8933  48.5124   C.2       1 RES1   0.0000
    15 C15     62.2334  43.0940  48.0220   C.2       1 RES1   0.0000
@<TRIPOS>BOND
     1     1     2    1
     2     2     3    2
     3     2     4    1
     4     4     5    1
     5     5     6   am
     6     6     7    2
     7     6     8    1
     8     8     9    1
     9     9    10    1
    10    10    11    2
    11    11    12    1
    12    12    13    2
    13    13    14    1
    14    14    15    2
    15    15    10    1
@<TRIPOS>SUBSTRUCTURE
     1 RES1        1 GROUP             0 ****  ****    0  
@<TRIPOS>MOLECULE
ligand_88
    15    15     1     0     0
SMALL
NO_CHARGES
****
Generated from the CSD

@<TRIPOS>ATOM
     1 C1      64.3870  40.0400  41.7410   C.3       1 RES1   0.0000
     2 C2      64.2710  41.4650  42.3670   C.2       1 RES1   0.0000
     3 O3      63.1580  41.9080  42.4120   O.2       1 RES1   0.0000
     4 C4      65.4370  42.1920  42.9420   C.3       1 RES1   0.0000
     5 N5      66.5320  42.0238  41.8142   N.am      1 RES1   0.0000
     6 C6      67.6781  41.2550  41.9334   C.2       1 RES1   0.0000
     7 O7      67.9899  40.5851  42.9763   O.2       1 RES1   0.0000
     8 O8      68.5965  41.2062  40.7575   O.3       1 RES1   0.0000
     9 C9      69.7956  40.3372  40.9996   C.3       1 RES1   0.0000
    10 C10     70.6536  40.3568  39.7570   C.2       1 RES1   0.0000
    11 C11     71.0933  39.1572  39.1985   C.2       1 RES1   0.0000
    12 C12     71.8848  39.1801  38.0502   C.2       1 RES1   0.0000
    13 C13     72.2325  40.3996  37.4688   C.2       1 RES1   0.0000
    14 C14     71.8000  41.5997  38.0279   C.2       1 RES1   0.0000
    15 C15     71.0076  41.5775  39.1752   C.2       1 RES1   0.0000
@<TRIPOS>BOND
     1     1     2    1
     2     2     3    2
     3     2     4    1
     4     4     5    1
     5     5     6   am
     6     6     7    2
     7     6     8    1
     8     8     9    1
     9     9    10    1
    10    10    11    2
    11    11    12    1
    12    12    13    2
    13    13    14    1
    14    14    15    2
    15    15    10    1
@<TRIPOS>SUBSTRUCTURE
     1 RES1        1 GROUP             0 ****  ****    0  
@<TRIPOS>MOLECULE
ligand_89
    15    15     1     0     0
SMALL
NO_CHARGES
****
Generated from the CSD

@<TRIPOS>ATOM
     1 C1      64.3870  40.0400  41.7410   C.3       1 RES1   0.0000
     2 C2      64.2710  41.4650  42.3670   C.2       1 RES1   0.0000
     3 O3      63.1580  41.9080  42.4120   O.2       1 RES1   0.0000
     4 C4      65.4370  42.1920  42.9420   C.3       1 RES1   0.0000
     5 N5      66.5320  42.0238  41.8142   N.am      1 RES1   0.0000
     6 C6      67.6781  41.2550  41.9334   C.2       1 RES1   0.0000
     7 O7      67.9899  40.5851  42.9763   O.2       1 RES1   0.0000
     8 O8      68.5965  41.2062  40.7575   O.3       1 RES1   0.0000
     9 C9      69.7956  40.3372  40.9996   C.3       1 RES1   0.0000
    10 C10     70.6536  40.3568  39.7570   C.2       1 RES1   0.0000
    11 C11     72.0192  40.6194  39.8609   C.2       1 RES1   0.0000
    12 C12     72.8080  40.6355  38.7107   C.2       1 RES1   0.0000
    13 C13     72.2282  40.3907  37.4656   C.2       1 RES1   0.0000
    14 C14     70.8635  40.1342  37.3580   C.2       1 RES1   0.0000
    15 C15     70.0744  40.1167  38.5077   C.2       1 RES1   0.0000
@<TRIPOS>BOND
     1     1     2    1
     2     2     3    2
     3     2     4    1
     4     4     5    1
     5     5     6   am
     6     6     7    2
     7     6     8    1
     8     8     9    1
     9     9    10    1
    10    10    11    2
    11    11    12    1
    12    12    13    2
    13    13    14    1
    14    14    15    2
    15    15    10    1
@<TRIPOS>SUBSTRUCTURE
     1 RES1        1 GROUP             0 ****  ****    0  
@<TRIPOS>MOLECULE
ligand_90
    15    15     1     0     0
SMALL
NO_CHARGES
****
Generated from the CSD

@<TRIPOS>ATOM
     1 C1      64.3870  40.0400  41.7410   C.3       1 RES1   0.0000
     2 C2      64.2710  41.4650  42.3670   C.2       1 RES1   0.0000
     3 O3      63.1580  41.9080  42.4120   O.2       1 RES1   0.0000
     4 C4      65.4370  42.1920  42.9420   C.3       1 RES1   0.0000
     5 N5      66.5320  42.0238  41.8142   N.am      1 RES1   0.0000
     6 C6      67.0103  43.0507  41.0172   C.2       1 RES1   0.0000
     7 O7      66.6212  44.2655  41.0984   O.2       1 RES1   0.0000
     8 O8      68.0546  42.7058  40.0076   O.3       1 RES1   0.0000
     9 C9      68.5015  43.8970  39.2120   C.3       1 RES1   0.0000
    10 C10     69.5513  43.4418  38.2265   C.2       1 RES1   0.0000
    11 C11     70.7603  44.1302  38.1334   C.2       1 RES1   0.0000
    12 C12     71.7274  43.7056  37.2223   C.2       1 RES1   0.0000
    13 C13     71.4804  42.5982  36.4105   C.2       1 RES1   0.0000
    14 C14     70.2713  41.9124  36.4970   C.2       1 RES1   0.0000
    15 C15     69.3044  42.3356  37.4084   C.2       1 RES1   0.0000
@<TRIPOS>BOND
     1     1     2    1
     2     2     3    2
     3     2     4    1
     4     4     5    1
     5     5     6   am
     6     6     7    2
     7     6     8    1
     8     8     9    1
     9     9    10    1
    10    10    11    2
    11    11    12    1
    12    12    13    2
    13    13    14    1
    14    14    15    2
    15    15    10    1
@<TRIPOS>SUBSTRUCTURE
     1 RES1        1 GROUP             0 ****  ****    0  
@<TRIPOS>MOLECULE
ligand_91
    15    15     1     0     0
SMALL
NO_CHARGES
****
Generated from the CSD

@<TRIPOS>ATOM
     1 C1      64.3870  40.0400  41.7410   C.3       1 RES1   0.0000
     2 C2      64.2710  41.4650  42.3670   C.2       1 RES1   0.0000
     3 O3      63.1580  41.9080  42.4120   O.2       1 RES1   0.0000
     4 C4      65.4370  42.1920  42.9420   C.3       1 RES1   0.0000
     5 N5      66.5320  42.0238  41.8142   N.am      1 RES1   0.0000
     6 C6      67.0103  43.0507  41.0172   C.2       1 RES1   0.0000
     7 O7      66.6212  44.2655  41.0984   O.2       1 RES1   0.0000
     8 O8      68.0546  42.7058  40.0076   O.3       1 RES1   0.0000
     9 C9      68.5015  43.8970  39.2120   C.3       1 RES1   0.0000
    10 C10     69.5513  43.4418  38.2265   C.2       1 RES1   0.0000
    11 C11     69.4374  43.7901  36.8811   C.2       1 RES1   0.0000
    12 C12     70.4099  43.3683  35.9746   C.2       1 RES1   0.0000
    13 C13     71.4880  42.6014  36.4171   C.2       1 RES1   0.0000
    14 C14     71.6012  42.2467  37.7592   C.2       1 RES1   0.0000
    15 C15     70.6299  42.6691  38.6663   C.2       1 RES1   0.0000
@<TRIPOS>BOND
     1     1     2    1
     2     2     3    2
     3     2     4    1
     4     4     5    1
     5     5     6   am
     6     6     7    2
     7     6     8    1
     8     8     9    1
     9     9    10    1
    10    10    11    2
    11    11    12    1
    12    12    13    2
    13    13    14    1
    14    14    15    2
    15    15    10    1
@<TRIPOS>SUBSTRUCTURE
     1 RES1        1 GROUP             0 ****  ****    0  
@<TRIPOS>MOLECULE
ligand_92
    15    15     1     0     0
SMALL
NO_CHARGES
****
Generated from the CSD

@<TRIPOS>ATOM
     1 C1      64.3770  40.0442  41.7423   C.3       1 RES1   0.0000
     2 C2      64.2662  41.4667  42.3747   C.2       1 RES1   0.0000
     3 O3      63.1535  41.9092  42.4313   O.2       1 RES1   0.0000
     4 C4      65.4370  42.1920  42.9420   C.3       1 RES1   0.0000
     5 N5      66.2171  41.0414  43.6949   N.am      1 RES1   0.0000
     6 C6      66.3314  40.9332  45.0711   C.2       1 RES1   0.0000
     7 O7      65.8166  41.7560  45.9028   O.2       1 RES1   0.0000
     8 O8      67.1004  39.7709  45.6061   O.3       1 RES1   0.0000
     9 C9      67.1482  39.7537  47.1058   C.3       1 RES1   0.0000
    10 C10     67.9441  38.5462  47.5407   C.2       1 RES1   0.0000
    11 C11     67.4239  37.6825  48.5039   C.2       1 RES1   0.0000
    12 C12     68.1621  36.5680  48.9019   C.2       1 RES1   0.0000
    13 C13     69.4141  36.3244  48.3366   C.2       1 RES1   0.0000
    14 C14     69.9390  37.1886  47.3788   C.2       1 RES1   0.0000
    15 C15     69.2010  38.3024  46.9796   C.2       1 RES1   0.0000
@<TRIPOS>BOND
     1     1     2    1
     2     2     3    2
     3     2     4    1
     4     4     5    1
     5     5     6   am
     6     6     7    2
     7     6     8    1
     8     8     9    1
     9     9    10    1
    10    10    11    2
    11    11    12    1
    12    12    13    2
    13    13    14    1
    14    14    15    2
    15    15    10    1
@<TRIPOS>SUBSTRUCTURE
     1 RES1        1 GROUP             0 ****  ****    0  
@<TRIPOS>MOLECULE
ligand_93
    15    15     1     0     0
SMALL
NO_CHARGES
****
Generated from the CSD

@<TRIPOS>ATOM
     1 C1      64.3770  40.0442  41.7423   C.3       1 RES1   0.0000
     2 C2      64.2662  41.4667  42.3747   C.2       1 RES1   0.0000
     3 O3      63.1535  41.9092  42.4313   O.2       1 RES1   0.0000
     4 C4      65.4370  42.1920  42.9420   C.3       1 RES1   0.0000
     5 N5      66.2171  41.0414  43.6949   N.am      1 RES1   0.0000
     6 C6      66.3314  40.9332  45.0711   C.2       1 RES1   0.0000
     7 O7      65.8166  41.7560  45.9028   O.2       1 RES1   0.0000
     8 O8      67.1004  39.7709  45.6061   O.3       1 RES1   0.0000
     9 C9      67.1482  39.7537  47.1058   C.3       1 RES1   0.0000
    10 C10     67.9441  38.5462  47.5407   C.2       1 RES1   0.0000
    11 C11     68.9770  38.6926  48.4659   C.2       1 RES1   0.0000
    12 C12     69.7089  37.5744  48.8654   C.2       1 RES1   0.0000
    13 C13     69.4052  36.3190  48.3381   C.2       1 RES1   0.0000
    14 C14     68.3781  36.1707  47.4092   C.2       1 RES1   0.0000
    15 C15     67.6452  37.2880  47.0102   C.2       1 RES1   0.0000
@<TRIPOS>BOND
     1     1     2    1
     2     2     3    2
     3     2     4    1
     4     4     5    1
     5     5     6   am
     6     6     7    2
     7     6     8    1
     8     8     9    1
     9     9    10    1
    10    10    11    2
    11    11    12    1
    12    12    13    2
    13    13    14    1
    14    14    15    2
    15    15    10    1
@<TRIPOS>SUBSTRUCTURE
     1 RES1        1 GROUP             0 ****  ****    0  
@<TRIPOS>MOLECULE
ligand_94
    15    15     1     0     0
SMALL
NO_CHARGES
****
Generated from the CSD

@<TRIPOS>ATOM
     1 C1      64.3870  40.0400  41.7410   C.3       1 RES1   0.0000
     2 C2      64.2710  41.4650  42.3670   C.2       1 RES1   0.0000
     3 O3      63.1580  41.9080  42.4120   O.2       1 RES1   0.0000
     4 C4      65.4370  42.1920  42.9420   C.3       1 RES1   0.0000
     5 N5      66.2171  41.0414  43.6949   N.am      1 RES1   0.0000
     6 C6      67.4478  40.5367  43.3086   C.2       1 RES1   0.0000
     7 O7      68.1047  40.9434  42.2904   O.2       1 RES1   0.0000
     8 O8      68.0396  39.4542  44.1492   O.3       1 RES1   0.0000
     9 C9      69.3743  38.9949  43.6401   C.3       1 RES1   0.0000
    10 C10     69.8816  37.9063  44.5555   C.2       1 RES1   0.0000
    11 C11     71.1765  37.9781  45.0678   C.2       1 RES1   0.0000
    12 C12     71.6405  36.9708  45.9137   C.2       1 RES1   0.0000
    13 C13     70.8095  35.8991  46.2411   C.2       1 RES1   0.0000
    14 C14     69.5178  35.8215  45.7260   C.2       1 RES1   0.0000
    15 C15     69.0528  36.8288  44.8812   C.2       1 RES1   0.0000
@<TRIPOS>BOND
     1     1     2    1
     2     2     3    2
     3     2     4    1
     4     4     5    1
     5     5     6   am
     6     6     7    2
     7     6     8    1
     8     8     9    1
     9     9    10    1
    10    10    11    2
    11    11    12    1
    12    12    13    2
    13    13    14    1
    14    14    15    2
    15    15    10    1
@<TRIPOS>SUBSTRUCTURE
     1 RES1        1 GROUP             0 ****  ****    0  
@<TRIPOS>MOLECULE
ligand_95
    15    15     1     0     0
SMALL
NO_CHARGES
****
Generated from the CSD

@<TRIPOS>ATOM
     1 C1      64.3870  40.0400  41.7410   C.3       1 RES1   0.0000
     2 C2      64.2710  41.4650  42.3670   C.2       1 RES1   0.0000
     3 O3      63.1580  41.9080  42.4120   O.2       1 RES1   0.0000
     4 C4      65.4370  42.1920  42.9420   C.3       1 RES1   0.0000
     5 N5      66.2171  41.0414  43.6949   N.am      1 RES1   0.0000
     6 C6      67.4478  40.5367  43.3086   C.2       1 RES1   0.0000
     7 O7      68.1047  40.9434  42.2904   O.2       1 RES1   0.0000
     8 O8      68.0396  39.4542  44.1492   O.3       1 RES1   0.0000
     9 C9      69.3743  38.9949  43.6401   C.3       1 RES1   0.0000
    10 C10     69.8816  37.9063  44.5555   C.2       1 RES1   0.0000
    11 C11     70.3370  36.7033  44.0171   C.2       1 RES1   0.0000
    12 C12     70.8056  35.7010  44.8664   C.2       1 RES1   0.0000
    13 C13     70.8153  35.9062  46.2463   C.2       1 RES1   0.0000
    14 C14     70.3554  37.1043  46.7874   C.2       1 RES1   0.0000
    15 C15     69.8878  38.1073  45.9388   C.2       1 RES1   0.0000
@<TRIPOS>BOND
     1     1     2    1
     2     2     3    2
     3     2     4    1
     4     4     5    1
     5     5     6   am
     6     6     7    2
     7     6     8    1
     8     8     9    1
     9     9    10    1
    10    10    11    2
    11    11    12    1
    12    12    13    2
    13    13    14    1
    14    14    15    2
    15    15    10    1
@<TRIPOS>SUBSTRUCTURE
     1 RES1        1 GROUP             0 ****  ****    0  
@<TRIPOS>MOLECULE
ligand_96
    15    15     1     0     0
SMALL
NO_CHARGES
****
Generated from the CSD

@<TRIPOS>ATOM
     1 C1      64.3870  40.0400  41.7410   C.3       1 RES1   0.0000
     2 C2      64.2710  41.4650  42.3670   C.2       1 RES1   0.0000
     3 O3      63.1580  41.9080  42.4120   O.2       1 RES1   0.0000
     4 C4      65.4370  42.1920  42.9420   C.3       1 RES1   0.0000
     5 N5      64.7874  43.5515  43.4205   N.am      1 RES1   0.0000
     6 C6      65.4805  44.5926  44.0158   C.2       1 RES1   0.0000
     7 O7      64.9444  45.6878  44.3988   O.2       1 RES1   0.0000
     8 O8      66.9468  44.4081  44.2269   O.3       1 RES1   0.0000
     9 C9      67.5870  45.5942  44.8862   C.3       1 RES1   0.0000
    10 C10     69.0601  45.3063  45.0523   C.2       1 RES1   0.0000
    11 C11     69.8905  46.2572  45.6444   C.2       1 RES1   0.0000
    12 C12     71.2503  45.9866  45.7966   C.2       1 RES1   0.0000
    13 C13     71.7713  44.7697  45.3560   C.2       1 RES1   0.0000
    14 C14     70.9456  43.8204  44.7587   C.2       1 RES1   0.0000
    15 C15     69.5858  44.0899  44.6072   C.2       1 RES1   0.0000
@<TRIPOS>BOND
     1     1     2    1
     2     2     3    2
     3     2     4    1
     4     4     5    1
     5     5     6   am
     6     6     7    2
     7     6     8    1
     8     8     9    1
     9     9    10    1
    10    10    11    2
    11    11    12    1
    12    12    13    2
    13    13    14    1
    14    14    15    2
    15    15    10    1
@<TRIPOS>SUBSTRUCTURE
     1 RES1        1 GROUP             0 ****  ****    0  
@<TRIPOS>MOLECULE
ligand_97
    15    15     1     0     0
SMALL
NO_CHARGES
****
Generated from the CSD

@<TRIPOS>ATOM
     1 C1      64.3986  40.0521  41.7185   C.3       1 RES1   0.0000
     2 C2      64.2807  41.4749  42.3493   C.2       1 RES1   0.0000
     3 O3      63.1681  41.9195  42.3886   O.2       1 RES1   0.0000
     4 C4      65.4440  42.1977  42.9350   C.3       1 RES1   0.0000
     5 N5      64.7933  43.5564  43.4144   N.am      1 RES1   0.0000
     6 C6      65.2457  44.3170  44.4800   C.2       1 RES1   0.0000
     7 O7      66.2501  44.0096  45.2083   O.2       1 RES1   0.0000
     8 O8      64.5100  45.5804  44.7821   O.3       1 RES1   0.0000
     9 C9      65.1018  46.3279  45.9408   C.3       1 RES1   0.0000
    10 C10     64.1067  46.3065  47.0765   C.2       1 RES1   0.0000
    11 C11     63.7654  47.4942  47.7224   C.2       1 RES1   0.0000
    12 C12     62.8452  47.4698  48.7703   C.2       1 RES1   0.0000
    13 C13     62.2732  46.2605  49.1663   C.2       1 RES1   0.0000
    14 C14     62.6166  45.0717  48.5270   C.2       1 RES1   0.0000
    15 C15     63.5358  45.0956  47.4786   C.2       1 RES1   0.0000
@<TRIPOS>BOND
     1     1     2    1
     2     2     3    2
     3     2     4    1
     4     4     5    1
     5     5     6   am
     6     6     7    2
     7     6     8    1
     8     8     9    1
     9     9    10    1
    10    10    11    2
    11    11    12    1
    12    12    13    2
    13    13    14    1
    14    14    15    2
    15    15    10    1
@<TRIPOS>SUBSTRUCTURE
     1 RES1        1 GROUP             0 ****  ****    0  
@<TRIPOS>MOLECULE
ligand_98
    15    15     1     0     0
SMALL
NO_CHARGES
****
Generated from the CSD

@<TRIPOS>ATOM
     1 C1      64.3958  40.0492  41.7240   C.3       1 RES1   0.0000
     2 C2      64.2783  41.4724  42.3537   C.2       1 RES1   0.0000
     3 O3      63.1656  41.9167  42.3943   O.2       1 RES1   0.0000
     4 C4      65.4422  42.1963  42.9367   C.3       1 RES1   0.0000
     5 N5      64.7918  43.5552  43.4159   N.am      1 RES1   0.0000
     6 C6      65.2457  44.3170  44.4800   C.2       1 RES1   0.0000
     7 O7      66.2514  44.0107  45.2069   O.2       1 RES1   0.0000
     8 O8      64.5100  45.5804  44.7821   O.3       1 RES1   0.0000
     9 C9      65.1018  46.3279  45.9408   C.3       1 RES1   0.0000
    10 C10     64.1053  46.3094  47.0753   C.2       1 RES1   0.0000
    11 C11     64.5144  45.9256  48.3519   C.2       1 RES1   0.0000
    12 C12     63.5908  45.9109  49.3970   C.2       1 RES1   0.0000
    13 C13     62.2659  46.2782  49.1602   C.2       1 RES1   0.0000
    14 C14     61.8529  46.6562  47.8849   C.2       1 RES1   0.0000
    15 C15     62.7761  46.6722  46.8398   C.2       1 RES1   0.0000
@<TRIPOS>BOND
     1     1     2    1
     2     2     3    2
     3     2     4    1
     4     4     5    1
     5     5     6   am
     6     6     7    2
     7     6     8    1
     8     8     9    1
     9     9    10    1
    10    10    11    2
    11    11    12    1
    12    12    13    2
    13    13    14    1
    14    14    15    2
    15    15    10    1
@<TRIPOS>SUBSTRUCTURE
     1 RES1        1 GROUP             0 ****  ****    0  
@<TRIPOS>MOLECULE
ligand_99
    15    15     1     0     0
SMALL
NO_CHARGES
****
Generated from the CSD

@<TRIPOS>ATOM
     1 C1      64.3783  40.0309  41.7580   C.3       1 RES1   0.0000
     2 C2      64.2638  41.4576  42.3804   C.2       1 RES1   0.0000
     3 O3      63.1505  41.8994  42.4297   O.2       1 RES1   0.0000
     4 C4      65.4318  42.1877  42.9473   C.3       1 RES1   0.0000
     5 N5      64.7829  43.5478  43.4251   N.am      1 RES1   0.0000
     6 C6      65.2457  44.3170  44.4800   C.2       1 RES1   0.0000
     7 O7      66.2595  44.0174  45.1985   O.2       1 RES1   0.0000
     8 O8      64.5100  45.5804  44.7821   O.3       1 RES1   0.0000
     9 C9      65.1018  46.3279  45.9408   C.3       1 RES1   0.0000
    10 C10     65.6818  47.6225  45.4231   C.2       1 RES1   0.0000
    11 C11     66.9852  47.9836  45.7624   C.2       1 RES1   0.0000
    12 C12     67.5171  49.1798  45.2811   C.2       1 RES1   0.0000
    13 C13     66.7442  50.0071  44.4659   C.2       1 RES1   0.0000
    14 C14     65.4399  49.6520  44.1303   C.2       1 RES1   0.0000
    15 C15     64.9079  48.4556  44.6101   C.2       1 RES1   0.0000
@<TRIPOS>BOND
     1     1     2    1
     2     2     3    2
     3     2     4    1
     4     4     5    1
     5     5     6   am
     6     6     7    2
     7     6     8    1
     8     8     9    1
     9     9    10    1
    10    10    11    2
    11    11    12    1
    12    12    13    2
    13    13    14    1
    14    14    15    2
    15    15    10    1
@<TRIPOS>SUBSTRUCTURE
     1 RES1        1 GROUP             0 ****  ****    0  
