@<TRIPOS>MOLECULE
native
    33    34     1     0     0
SMALL
USER_CHARGES
****
Generated from the CSD

@<TRIPOS>ATOM
     1 C1     -10.4390   7.0930  10.1970   C.2       1 RES1   0.0000
     2 C2      -9.1670   6.5420  10.0840   C.2       1 RES1   0.0000
     3 C3      -8.8940   5.6520   9.0400   C.2       1 RES1   0.0000
     4 O4      -7.7300   4.9920   8.7460   O.3       1 RES1   0.0000
     5 C5      -6.4380   5.5040   8.3120   C.3       1 RES1   0.0000
     6 C6      -6.3490   7.0370   8.1520   C.2       1 RES1   0.0000
     7 O7      -7.2590   7.6500   7.5230   O.co2     1 RES1   0.0000
     8 O8      -5.3650   7.5870   8.6770   O.co2     1 RES1  -1.0000
     9 C9      -5.9680   4.7620   7.0260   C.3       1 RES1   0.0000
    10 C10     -5.7470   3.2510   7.2740   C.3       1 RES1   0.0000
    11 O11     -5.8280   2.9230   5.8800   O.3       1 RES1   0.0000
    12 C12     -5.8690   1.4740   5.7020   C.3       1 RES1   0.0000
    13 C13     -4.8320   0.6170   6.4570   C.2       1 RES1   0.0000
    14 O14     -5.2410  -0.4840   6.9110   O.co2     1 RES1   0.0000
    15 O15     -3.6610   1.0330   6.5460   O.co2     1 RES1  -1.0000
    16 C16     -5.8020   1.1010   4.2000   C.3       1 RES1   0.0000
    17 C17     -7.0280   1.7010   3.5010   C.3       1 RES1   0.0000
    18 C18     -8.3490   1.2270   4.1050   C.3       1 RES1   0.0000
    19 O19     -8.4880  -0.1840   3.8990   O.3       1 RES1   0.0000
    20 C20     -8.3660   1.5640   5.6100   C.3       1 RES1   0.0000
    21 C21     -9.6340   0.9940   6.2480   C.3       1 RES1   0.0000
    22 O22    -10.7430   1.7610   5.7950   O.3       1 RES1   0.0000
    23 C23     -9.5880   1.0670   7.7820   C.3       1 RES1   0.0000
    24 O24     -9.2120   2.3970   8.1960   O.3       1 RES1   0.0000
    25 O25     -7.1550   1.0490   6.2360   O.3       1 RES1   0.0000
    26 C26     -4.8800   3.0180   8.5110   C.3       1 RES1   0.0000
    27 O27     -3.5620   3.4840   8.1880   O.3       1 RES1   0.0000
    28 C28     -5.4140   3.7770   9.7400   C.3       1 RES1   0.0000
    29 C29     -4.4980   3.5520  10.9520   C.3       1 RES1   0.0000
    30 O30     -4.1230   2.1770  11.0480   O.3       1 RES1   0.0000
    31 C31     -5.1830   3.9550  12.2700   C.3       1 RES1   0.0000
    32 O32     -5.4000   5.3770  12.3100   O.3       1 RES1   0.0000
    33 O33     -5.5220   5.1850   9.3920   O.3       1 RES1   0.0000
@<TRIPOS>BOND
     1     1     2    1
     2     2     3    2
     3     3     4    1
     4     5     4    1
     5     5     6    1
     6     6     7    2
     7     6     8    1
     8     5     9    1
     9     9    10    1
    10    10    11    1
    11    12    11    1
    12    12    13    1
    13    13    14    2
    14    13    15    1
    15    12    16    1
    16    16    17    1
    17    17    18    1
    18    18    19    1
    19    18    20    1
    20    20    21    1
    21    21    22    1
    22    21    23    1
    23    23    24    1
    24    20    25    1
    25    10    26    1
    26    26    27    1
    27    26    28    1
    28    28    29    1
    29    29    30    1
    30    29    31    1
    31    31    32    1
    32    28    33    1
    33    33     5    1
    34    25    12    1
@<TRIPOS>SUBSTRUCTURE
     1 RES1        1 GROUP             0 ****  ****    0  
@<TRIPOS>MOLECULE
ligand_0
    33    34     1     0     0
SMALL
USER_CHARGES
****
Generated from the CSD

@<TRIPOS>ATOM
     1 C1     -10.4880   7.1712   9.9719   C.2       1 RES1   0.0000
     2 C2      -9.2092   6.6261   9.9290   C.2       1 RES1   0.0000
     3 C3      -8.9057   5.6609   8.9631   C.2       1 RES1   0.0000
     4 O4      -7.7300   4.9920   8.7460   O.3       1 RES1   0.0000
     5 C5      -6.3716   5.4943   8.5967   C.3       1 RES1   0.0000
     6 C6      -6.2716   6.5919   7.5155   C.2       1 RES1   0.0000
     7 O7      -6.1933   7.8044   7.8664   O.co2     1 RES1   0.0000
     8 O8      -6.2632   6.2000   6.3353   O.co2     1 RES1  -1.0000
     9 C9      -5.5117   4.2763   8.2910   C.3       1 RES1   0.0000
    10 C10     -5.2440   3.4082   9.4980   C.3       1 RES1   0.0000
    11 O11     -4.3197   2.3967   9.0739   O.3       1 RES1   0.0000
    12 C12     -4.9823   1.0964   9.0176   C.3       1 RES1   0.0000
    13 C13     -5.6408   0.7791  10.3761   C.2       1 RES1   0.0000
    14 O14     -6.8860   0.9521  10.4475   O.co2     1 RES1   0.0000
    15 O15     -4.9282   0.3443  11.3009   O.co2     1 RES1  -1.0000
    16 C16     -4.0329  -0.0123   8.6021   C.3       1 RES1   0.0000
    17 C17     -3.6370   0.0622   7.1190   C.3       1 RES1   0.0000
    18 C18     -4.8563   0.1993   6.2014   C.3       1 RES1   0.0000
    19 O19     -5.5573  -1.0405   6.0460   O.3       1 RES1   0.0000
    20 C20     -5.7809   1.3162   6.7094   C.3       1 RES1   0.0000
    21 C21     -7.0933   1.4366   5.9329   C.3       1 RES1   0.0000
    22 O22     -6.7809   1.6208   4.5575   O.3       1 RES1   0.0000
    23 C23     -7.9320   2.6345   6.4044   C.3       1 RES1   0.0000
    24 O24     -9.2039   2.6378   5.7233   O.3       1 RES1   0.0000
    25 O25     -6.1007   1.1427   8.0898   O.3       1 RES1   0.0000
    26 C26     -4.7407   4.2375  10.6581   C.3       1 RES1   0.0000
    27 O27     -3.4263   4.7711  10.4430   O.3       1 RES1   0.0000
    28 C28     -5.7882   5.3079  10.9263   C.3       1 RES1   0.0000
    29 C29     -5.5029   6.2538  12.1021   C.3       1 RES1   0.0000
    30 O30     -5.3471   5.5137  13.3139   O.3       1 RES1   0.0000
    31 C31     -6.6383   7.2728  12.3056   C.3       1 RES1   0.0000
    32 O32     -6.2819   8.2268  13.3223   O.3       1 RES1   0.0000
    33 O33     -5.9302   6.1302   9.7745   O.3       1 RES1   0.0000
@<TRIPOS>BOND
     1     1     2    1
     2     2     3    2
     3     3     4    1
     4     5     4    1
     5     5     6    1
     6     6     7    2
     7     6     8    1
     8     5     9    1
     9     9    10    1
    10    10    11    1
    11    12    11    1
    12    12    13    1
    13    13    14    2
    14    13    15    1
    15    12    16    1
    16    16    17    1
    17    17    18    1
    18    18    19    1
    19    18    20    1
    20    20    21    1
    21    21    22    1
    22    21    23    1
    23    23    24    1
    24    20    25    1
    25    10    26    1
    26    26    27    1
    27    26    28    1
    28    28    29    1
    29    29    30    1
    30    29    31    1
    31    31    32    1
    32    28    33    1
    33    33     5    1
    34    25    12    1
@<TRIPOS>SUBSTRUCTURE
     1 RES1        1 GROUP             0 ****  ****    0  
@<TRIPOS>MOLECULE
ligand_1
    33    34     1     0     0
SMALL
USER_CHARGES
****
Generated from the CSD

@<TRIPOS>ATOM
     1 C1     -10.4390   7.0930  10.1970   C.2       1 RES1   0.0000
     2 C2      -9.1670   6.5420  10.0840   C.2       1 RES1   0.0000
     3 C3      -8.8940   5.6520   9.0400   C.2       1 RES1   0.0000
     4 O4      -7.7300   4.9920   8.7460   O.3       1 RES1   0.0000
     5 C5      -6.8676   4.1771   9.5898   C.3       1 RES1   0.0000
     6 C6      -6.3659   4.9497  10.8288   C.2       1 RES1   0.0000
     7 O7      -6.9015   4.7346  11.9541   O.co2     1 RES1   0.0000
     8 O8      -5.4328   5.7488  10.6361   O.co2     1 RES1  -1.0000
     9 C9      -5.7388   3.6991   8.6878   C.3       1 RES1   0.0000
    10 C10     -6.1486   2.5954   7.7414   C.3       1 RES1   0.0000
    11 O11     -4.9538   2.1706   7.0711   O.3       1 RES1   0.0000
    12 C12     -4.9849   2.5828   5.6704   C.3       1 RES1   0.0000
    13 C13     -6.2713   2.0645   4.9949   C.2       1 RES1   0.0000
    14 O14     -7.1967   2.9037   4.8368   O.co2     1 RES1   0.0000
    15 O15     -6.3140   0.8780   4.6173   O.co2     1 RES1  -1.0000
    16 C16     -3.7518   2.1272   4.9120   C.3       1 RES1   0.0000
    17 C17     -2.4846   2.9009   5.3084   C.3       1 RES1   0.0000
    18 C18     -2.6985   4.4176   5.2732   C.3       1 RES1   0.0000
    19 O19     -2.7038   4.9313   3.9358   O.3       1 RES1   0.0000
    20 C20     -3.9815   4.7912   6.0316   C.3       1 RES1   0.0000
    21 C21     -4.3502   6.2726   5.9355   C.3       1 RES1   0.0000
    22 O22     -3.2439   7.0370   6.3993   O.3       1 RES1   0.0000
    23 C23     -5.5738   6.6172   6.7985   C.3       1 RES1   0.0000
    24 O24     -5.9481   7.9944   6.5862   O.3       1 RES1   0.0000
    25 O25     -5.0990   4.0291   5.5752   O.3       1 RES1   0.0000
    26 C26     -6.8524   1.4817   8.4839   C.3       1 RES1   0.0000
    27 O27     -5.9827   0.7465   9.3566   O.3       1 RES1   0.0000
    28 C28     -8.0380   2.1076   9.2034   C.3       1 RES1   0.0000
    29 C29     -8.9307   1.1448  10.0001   C.3       1 RES1   0.0000
    30 O30     -9.4519   0.1238   9.1478   O.3       1 RES1   0.0000
    31 C31    -10.1172   1.8739  10.6553   C.3       1 RES1   0.0000
    32 O32    -10.8537   0.9750  11.5039   O.3       1 RES1   0.0000
    33 O33     -7.5698   3.0805  10.1291   O.3       1 RES1   0.0000
@<TRIPOS>BOND
     1     1     2    1
     2     2     3    2
     3     3     4    1
     4     5     4    1
     5     5     6    1
     6     6     7    2
     7     6     8    1
     8     5     9    1
     9     9    10    1
    10    10    11    1
    11    12    11    1
    12    12    13    1
    13    13    14    2
    14    13    15    1
    15    12    16    1
    16    16    17    1
    17    17    18    1
    18    18    19    1
    19    18    20    1
    20    20    21    1
    21    21    22    1
    22    21    23    1
    23    23    24    1
    24    20    25    1
    25    10    26    1
    26    26    27    1
    27    26    28    1
    28    28    29    1
    29    29    30    1
    30    29    31    1
    31    31    32    1
    32    28    33    1
    33    33     5    1
    34    25    12    1
@<TRIPOS>SUBSTRUCTURE
     1 RES1        1 GROUP             0 ****  ****    0  
@<TRIPOS>MOLECULE
ligand_2
    33    34     1     0     0
SMALL
USER_CHARGES
****
Generated from the CSD

@<TRIPOS>ATOM
     1 C1     -10.4891   7.2198   9.8783   C.2       1 RES1   0.0000
     2 C2      -9.2056   6.6851   9.8477   C.2       1 RES1   0.0000
     3 C3      -8.9088   5.6624   8.9407   C.2       1 RES1   0.0000
     4 O4      -7.7300   4.9920   8.7460   O.3       1 RES1   0.0000
     5 C5      -6.3716   5.4943   8.5967   C.3       1 RES1   0.0000
     6 C6      -6.2716   6.5919   7.5155   C.2       1 RES1   0.0000
     7 O7      -7.3200   7.1912   7.1396   O.co2     1 RES1   0.0000
     8 O8      -5.1316   6.8300   7.0796   O.co2     1 RES1  -1.0000
     9 C9      -5.5117   4.2763   8.2910   C.3       1 RES1   0.0000
    10 C10     -5.2440   3.4082   9.4980   C.3       1 RES1   0.0000
    11 O11     -4.3197   2.3967   9.0739   O.3       1 RES1   0.0000
    12 C12     -4.9822   1.0964   9.0177   C.3       1 RES1   0.0000
    13 C13     -5.6408   0.7792  10.3762   C.2       1 RES1   0.0000
    14 O14     -6.8860   0.9520  10.4476   O.co2     1 RES1   0.0000
    15 O15     -4.9281   0.3446  11.3011   O.co2     1 RES1  -1.0000
    16 C16     -4.0329  -0.0124   8.6023   C.3       1 RES1   0.0000
    17 C17     -3.6370   0.0621   7.1192   C.3       1 RES1   0.0000
    18 C18     -4.8563   0.1991   6.2016   C.3       1 RES1   0.0000
    19 O19     -5.5572  -1.0408   6.0463   O.3       1 RES1   0.0000
    20 C20     -5.7809   1.3160   6.7095   C.3       1 RES1   0.0000
    21 C21     -7.0934   1.4363   5.9331   C.3       1 RES1   0.0000
    22 O22     -6.7809   1.6203   4.5576   O.3       1 RES1   0.0000
    23 C23     -7.9320   2.6342   6.4044   C.3       1 RES1   0.0000
    24 O24     -9.2038   2.6376   5.7231   O.3       1 RES1   0.0000
    25 O25     -6.1007   1.1425   8.0899   O.3       1 RES1   0.0000
    26 C26     -4.7407   4.2375  10.6581   C.3       1 RES1   0.0000
    27 O27     -3.4263   4.7711  10.4430   O.3       1 RES1   0.0000
    28 C28     -5.7882   5.3079  10.9263   C.3       1 RES1   0.0000
    29 C29     -5.5029   6.2538  12.1021   C.3       1 RES1   0.0000
    30 O30     -5.2590   5.5090  13.2963   O.3       1 RES1   0.0000
    31 C31     -6.6795   7.2103  12.3659   C.3       1 RES1   0.0000
    32 O32     -7.8642   6.4684  12.7076   O.3       1 RES1   0.0000
    33 O33     -5.9302   6.1302   9.7745   O.3       1 RES1   0.0000
@<TRIPOS>BOND
     1     1     2    1
     2     2     3    2
     3     3     4    1
     4     5     4    1
     5     5     6    1
     6     6     7    2
     7     6     8    1
     8     5     9    1
     9     9    10    1
    10    10    11    1
    11    12    11    1
    12    12    13    1
    13    13    14    2
    14    13    15    1
    15    12    16    1
    16    16    17    1
    17    17    18    1
    18    18    19    1
    19    18    20    1
    20    20    21    1
    21    21    22    1
    22    21    23    1
    23    23    24    1
    24    20    25    1
    25    10    26    1
    26    26    27    1
    27    26    28    1
    28    28    29    1
    29    29    30    1
    30    29    31    1
    31    31    32    1
    32    28    33    1
    33    33     5    1
    34    25    12    1
@<TRIPOS>SUBSTRUCTURE
     1 RES1        1 GROUP             0 ****  ****    0  
@<TRIPOS>MOLECULE
ligand_3
    33    34     1     0     0
SMALL
USER_CHARGES
****
Generated from the CSD

@<TRIPOS>ATOM
     1 C1     -10.4797   7.1590  10.0116   C.2       1 RES1   0.0000
     2 C2      -9.2019   6.6125   9.9564   C.2       1 RES1   0.0000
     3 C3      -8.9038   5.6597   8.9766   C.2       1 RES1   0.0000
     4 O4      -7.7300   4.9920   8.7460   O.3       1 RES1   0.0000
     5 C5      -6.3716   5.4943   8.5967   C.3       1 RES1   0.0000
     6 C6      -6.2716   6.5919   7.5155   C.2       1 RES1   0.0000
     7 O7      -7.3200   7.1909   7.1393   O.co2     1 RES1   0.0000
     8 O8      -5.1316   6.8303   7.0799   O.co2     1 RES1  -1.0000
     9 C9      -5.5117   4.2763   8.2910   C.3       1 RES1   0.0000
    10 C10     -5.2440   3.4082   9.4980   C.3       1 RES1   0.0000
    11 O11     -4.3197   2.3967   9.0739   O.3       1 RES1   0.0000
    12 C12     -4.9911   1.1030   8.9827   C.3       1 RES1   0.0000
    13 C13     -5.6915   0.7753  10.3176   C.2       1 RES1   0.0000
    14 O14     -5.1600   1.2454  11.3578   O.co2     1 RES1   0.0000
    15 O15     -6.7428   0.1071  10.2949   O.co2     1 RES1  -1.0000
    16 C16     -4.0393  -0.0090   8.5815   C.3       1 RES1   0.0000
    17 C17     -3.5999   0.0797   7.1116   C.3       1 RES1   0.0000
    18 C18     -4.7907   0.2382   6.1607   C.3       1 RES1   0.0000
    19 O19     -5.4972  -0.9936   5.9701   O.3       1 RES1   0.0000
    20 C20     -5.7204   1.3570   6.6551   C.3       1 RES1   0.0000
    21 C21     -7.0087   1.4979   5.8425   C.3       1 RES1   0.0000
    22 O22     -6.6548   1.6929   4.4786   O.3       1 RES1   0.0000
    23 C23     -7.8493   2.6990   6.3020   C.3       1 RES1   0.0000
    24 O24     -9.1041   2.7172   5.5900   O.3       1 RES1   0.0000
    25 O25     -6.0816   1.1699   8.0235   O.3       1 RES1   0.0000
    26 C26     -4.7407   4.2375  10.6581   C.3       1 RES1   0.0000
    27 O27     -3.4263   4.7711  10.4430   O.3       1 RES1   0.0000
    28 C28     -5.7882   5.3079  10.9263   C.3       1 RES1   0.0000
    29 C29     -5.5029   6.2538  12.1021   C.3       1 RES1   0.0000
    30 O30     -5.3515   5.5141  13.3146   O.3       1 RES1   0.0000
    31 C31     -6.6361   7.2758  12.3027   C.3       1 RES1   0.0000
    32 O32     -6.2803   8.2282  13.3210   O.3       1 RES1   0.0000
    33 O33     -5.9302   6.1302   9.7745   O.3       1 RES1   0.0000
@<TRIPOS>BOND
     1     1     2    1
     2     2     3    2
     3     3     4    1
     4     5     4    1
     5     5     6    1
     6     6     7    2
     7     6     8    1
     8     5     9    1
     9     9    10    1
    10    10    11    1
    11    12    11    1
    12    12    13    1
    13    13    14    2
    14    13    15    1
    15    12    16    1
    16    16    17    1
    17    17    18    1
    18    18    19    1
    19    18    20    1
    20    20    21    1
    21    21    22    1
    22    21    23    1
    23    23    24    1
    24    20    25    1
    25    10    26    1
    26    26    27    1
    27    26    28    1
    28    28    29    1
    29    29    30    1
    30    29    31    1
    31    31    32    1
    32    28    33    1
    33    33     5    1
    34    25    12    1
@<TRIPOS>SUBSTRUCTURE
     1 RES1        1 GROUP             0 ****  ****    0  
@<TRIPOS>MOLECULE
ligand_4
    33    34     1     0     0
SMALL
USER_CHARGES
****
Generated from the CSD

@<TRIPOS>ATOM
     1 C1     -10.4540   7.0746  10.1954   C.2       1 RES1   0.0000
     2 C2      -9.1793   6.5293  10.0854   C.2       1 RES1   0.0000
     3 C3      -8.8980   5.6458   9.0381   C.2       1 RES1   0.0000
     4 O4      -7.7300   4.9920   8.7460   O.3       1 RES1   0.0000
     5 C5      -6.8676   4.1771   9.5898   C.3       1 RES1   0.0000
     6 C6      -6.3659   4.9497  10.8288   C.2       1 RES1   0.0000
     7 O7      -6.2427   4.3429  11.9316   O.co2     1 RES1   0.0000
     8 O8      -6.0971   6.1512  10.6541   O.co2     1 RES1  -1.0000
     9 C9      -5.7388   3.6991   8.6878   C.3       1 RES1   0.0000
    10 C10     -6.1486   2.5954   7.7414   C.3       1 RES1   0.0000
    11 O11     -4.9538   2.1706   7.0711   O.3       1 RES1   0.0000
    12 C12     -4.9849   2.5828   5.6703   C.3       1 RES1   0.0000
    13 C13     -6.2713   2.0643   4.9949   C.2       1 RES1   0.0000
    14 O14     -7.1968   2.9033   4.8370   O.co2     1 RES1   0.0000
    15 O15     -6.3137   0.8778   4.6170   O.co2     1 RES1  -1.0000
    16 C16     -3.7518   2.1273   4.9120   C.3       1 RES1   0.0000
    17 C17     -2.4846   2.9012   5.3085   C.3       1 RES1   0.0000
    18 C18     -2.6988   4.4179   5.2732   C.3       1 RES1   0.0000
    19 O19     -2.7041   4.9315   3.9358   O.3       1 RES1   0.0000
    20 C20     -3.9818   4.7913   6.0315   C.3       1 RES1   0.0000
    21 C21     -4.3507   6.2727   5.9354   C.3       1 RES1   0.0000
    22 O22     -3.2445   7.0372   6.3992   O.3       1 RES1   0.0000
    23 C23     -5.5743   6.6171   6.7984   C.3       1 RES1   0.0000
    24 O24     -5.9487   7.9943   6.5863   O.3       1 RES1   0.0000
    25 O25     -5.0992   4.0291   5.5751   O.3       1 RES1   0.0000
    26 C26     -6.8524   1.4817   8.4839   C.3       1 RES1   0.0000
    27 O27     -5.9827   0.7465   9.3566   O.3       1 RES1   0.0000
    28 C28     -8.0380   2.1076   9.2034   C.3       1 RES1   0.0000
    29 C29     -8.9307   1.1448  10.0001   C.3       1 RES1   0.0000
    30 O30     -9.4519   0.1238   9.1478   O.3       1 RES1   0.0000
    31 C31    -10.1172   1.8739  10.6553   C.3       1 RES1   0.0000
    32 O32    -10.9221   2.5247   9.6556   O.3       1 RES1   0.0000
    33 O33     -7.5698   3.0805  10.1291   O.3       1 RES1   0.0000
@<TRIPOS>BOND
     1     1     2    1
     2     2     3    2
     3     3     4    1
     4     5     4    1
     5     5     6    1
     6     6     7    2
     7     6     8    1
     8     5     9    1
     9     9    10    1
    10    10    11    1
    11    12    11    1
    12    12    13    1
    13    13    14    2
    14    13    15    1
    15    12    16    1
    16    16    17    1
    17    17    18    1
    18    18    19    1
    19    18    20    1
    20    20    21    1
    21    21    22    1
    22    21    23    1
    23    23    24    1
    24    20    25    1
    25    10    26    1
    26    26    27    1
    27    26    28    1
    28    28    29    1
    29    29    30    1
    30    29    31    1
    31    31    32    1
    32    28    33    1
    33    33     5    1
    34    25    12    1
@<TRIPOS>SUBSTRUCTURE
     1 RES1        1 GROUP             0 ****  ****    0  
@<TRIPOS>MOLECULE
ligand_5
    33    34     1     0     0
SMALL
USER_CHARGES
****
Generated from the CSD

@<TRIPOS>ATOM
     1 C1     -10.4954   7.2224   9.8579   C.2       1 RES1   0.0000
     2 C2      -9.2117   6.6875   9.8356   C.2       1 RES1   0.0000
     3 C3      -8.9098   5.6629   8.9326   C.2       1 RES1   0.0000
     4 O4      -7.7300   4.9920   8.7460   O.3       1 RES1   0.0000
     5 C5      -6.3716   5.4943   8.5967   C.3       1 RES1   0.0000
     6 C6      -6.2716   6.5919   7.5155   C.2       1 RES1   0.0000
     7 O7      -6.1933   7.8044   7.8664   O.co2     1 RES1   0.0000
     8 O8      -6.2632   6.2000   6.3353   O.co2     1 RES1  -1.0000
     9 C9      -5.5117   4.2763   8.2910   C.3       1 RES1   0.0000
    10 C10     -5.2440   3.4082   9.4980   C.3       1 RES1   0.0000
    11 O11     -4.3197   2.3967   9.0739   O.3       1 RES1   0.0000
    12 C12     -4.9911   1.1029   8.9828   C.3       1 RES1   0.0000
    13 C13     -5.6915   0.7753  10.3177   C.2       1 RES1   0.0000
    14 O14     -5.1599   1.2454  11.3579   O.co2     1 RES1   0.0000
    15 O15     -6.7429   0.1072  10.2950   O.co2     1 RES1  -1.0000
    16 C16     -4.0393  -0.0090   8.5816   C.3       1 RES1   0.0000
    17 C17     -3.5998   0.0797   7.1117   C.3       1 RES1   0.0000
    18 C18     -4.7907   0.2381   6.1608   C.3       1 RES1   0.0000
    19 O19     -5.4972  -0.9937   5.9702   O.3       1 RES1   0.0000
    20 C20     -5.7205   1.3569   6.6552   C.3       1 RES1   0.0000
    21 C21     -7.0087   1.4977   5.8425   C.3       1 RES1   0.0000
    22 O22     -6.6549   1.6926   4.4786   O.3       1 RES1   0.0000
    23 C23     -7.8493   2.6990   6.3019   C.3       1 RES1   0.0000
    24 O24     -9.1041   2.7171   5.5900   O.3       1 RES1   0.0000
    25 O25     -6.0816   1.1698   8.0235   O.3       1 RES1   0.0000
    26 C26     -4.7407   4.2375  10.6581   C.3       1 RES1   0.0000
    27 O27     -3.4263   4.7711  10.4430   O.3       1 RES1   0.0000
    28 C28     -5.7882   5.3079  10.9263   C.3       1 RES1   0.0000
    29 C29     -5.5029   6.2538  12.1021   C.3       1 RES1   0.0000
    30 O30     -5.2622   5.5091  13.2970   O.3       1 RES1   0.0000
    31 C31     -6.6781   7.2127  12.3636   C.3       1 RES1   0.0000
    32 O32     -7.8648   6.4732  12.7038   O.3       1 RES1   0.0000
    33 O33     -5.9302   6.1302   9.7745   O.3       1 RES1   0.0000
@<TRIPOS>BOND
     1     1     2    1
     2     2     3    2
     3     3     4    1
     4     5     4    1
     5     5     6    1
     6     6     7    2
     7     6     8    1
     8     5     9    1
     9     9    10    1
    10    10    11    1
    11    12    11    1
    12    12    13    1
    13    13    14    2
    14    13    15    1
    15    12    16    1
    16    16    17    1
    17    17    18    1
    18    18    19    1
    19    18    20    1
    20    20    21    1
    21    21    22    1
    22    21    23    1
    23    23    24    1
    24    20    25    1
    25    10    26    1
    26    26    27    1
    27    26    28    1
    28    28    29    1
    29    29    30    1
    30    29    31    1
    31    31    32    1
    32    28    33    1
    33    33     5    1
    34    25    12    1
@<TRIPOS>SUBSTRUCTURE
     1 RES1        1 GROUP             0 ****  ****    0  
@<TRIPOS>MOLECULE
ligand_6
    33    34     1     0     0
SMALL
USER_CHARGES
****
Generated from the CSD

@<TRIPOS>ATOM
     1 C1     -10.4449   7.1033  10.1707   C.2       1 RES1   0.0000
     2 C2      -9.1720   6.5528  10.0659   C.2       1 RES1   0.0000
     3 C3      -8.8955   5.6533   9.0310   C.2       1 RES1   0.0000
     4 O4      -7.7300   4.9920   8.7460   O.3       1 RES1   0.0000
     5 C5      -6.3716   5.4943   8.5967   C.3       1 RES1   0.0000
     6 C6      -6.2716   6.5919   7.5155   C.2       1 RES1   0.0000
     7 O7      -6.1933   7.8044   7.8664   O.co2     1 RES1   0.0000
     8 O8      -6.2632   6.2000   6.3353   O.co2     1 RES1  -1.0000
     9 C9      -5.5117   4.2763   8.2910   C.3       1 RES1   0.0000
    10 C10     -5.2440   3.4082   9.4980   C.3       1 RES1   0.0000
    11 O11     -4.3197   2.3967   9.0739   O.3       1 RES1   0.0000
    12 C12     -4.9822   1.0964   9.0177   C.3       1 RES1   0.0000
    13 C13     -5.6408   0.7792  10.3762   C.2       1 RES1   0.0000
    14 O14     -6.8860   0.9520  10.4476   O.co2     1 RES1   0.0000
    15 O15     -4.9281   0.3446  11.3011   O.co2     1 RES1  -1.0000
    16 C16     -4.0329  -0.0124   8.6023   C.3       1 RES1   0.0000
    17 C17     -3.6370   0.0621   7.1193   C.3       1 RES1   0.0000
    18 C18     -4.8562   0.1990   6.2016   C.3       1 RES1   0.0000
    19 O19     -5.5572  -1.0408   6.0463   O.3       1 RES1   0.0000
    20 C20     -5.7809   1.3160   6.7095   C.3       1 RES1   0.0000
    21 C21     -7.0933   1.4362   5.9330   C.3       1 RES1   0.0000
    22 O22     -6.7808   1.6201   4.5575   O.3       1 RES1   0.0000
    23 C23     -7.9319   2.6343   6.4042   C.3       1 RES1   0.0000
    24 O24     -9.2037   2.6375   5.7231   O.3       1 RES1   0.0000
    25 O25     -6.1006   1.1425   8.0899   O.3       1 RES1   0.0000
    26 C26     -4.7407   4.2375  10.6581   C.3       1 RES1   0.0000
    27 O27     -3.4263   4.7711  10.4430   O.3       1 RES1   0.0000
    28 C28     -5.7882   5.3079  10.9263   C.3       1 RES1   0.0000
    29 C29     -5.5029   6.2538  12.1021   C.3       1 RES1   0.0000
    30 O30     -6.6756   6.9937  12.4455   O.3       1 RES1   0.0000
    31 C31     -4.3832   7.2567  11.7715   C.3       1 RES1   0.0000
    32 O32     -4.0794   8.0683  12.9203   O.3       1 RES1   0.0000
    33 O33     -5.9302   6.1302   9.7745   O.3       1 RES1   0.0000
@<TRIPOS>BOND
     1     1     2    1
     2     2     3    2
     3     3     4    1
     4     5     4    1
     5     5     6    1
     6     6     7    2
     7     6     8    1
     8     5     9    1
     9     9    10    1
    10    10    11    1
    11    12    11    1
    12    12    13    1
    13    13    14    2
    14    13    15    1
    15    12    16    1
    16    16    17    1
    17    17    18    1
    18    18    19    1
    19    18    20    1
    20    20    21    1
    21    21    22    1
    22    21    23    1
    23    23    24    1
    24    20    25    1
    25    10    26    1
    26    26    27    1
    27    26    28    1
    28    28    29    1
    29    29    30    1
    30    29    31    1
    31    31    32    1
    32    28    33    1
    33    33     5    1
    34    25    12    1
@<TRIPOS>SUBSTRUCTURE
     1 RES1        1 GROUP             0 ****  ****    0  
@<TRIPOS>MOLECULE
ligand_7
    33    34     1     0     0
SMALL
USER_CHARGES
****
Generated from the CSD

@<TRIPOS>ATOM
     1 C1     -10.4390   7.0930  10.1970   C.2       1 RES1   0.0000
     2 C2      -9.1670   6.5420  10.0840   C.2       1 RES1   0.0000
     3 C3      -8.8940   5.6520   9.0400   C.2       1 RES1   0.0000
     4 O4      -7.7300   4.9920   8.7460   O.3       1 RES1   0.0000
     5 C5      -6.8676   4.1771   9.5898   C.3       1 RES1   0.0000
     6 C6      -6.3659   4.9497  10.8288   C.2       1 RES1   0.0000
     7 O7      -6.9014   4.7345  11.9541   O.co2     1 RES1   0.0000
     8 O8      -5.4328   5.7488  10.6360   O.co2     1 RES1  -1.0000
     9 C9      -5.7388   3.6991   8.6878   C.3       1 RES1   0.0000
    10 C10     -6.1486   2.5954   7.7414   C.3       1 RES1   0.0000
    11 O11     -4.9538   2.1706   7.0711   O.3       1 RES1   0.0000
    12 C12     -4.9849   2.5828   5.6703   C.3       1 RES1   0.0000
    13 C13     -6.2713   2.0642   4.9949   C.2       1 RES1   0.0000
    14 O14     -7.1968   2.9033   4.8368   O.co2     1 RES1   0.0000
    15 O15     -6.3138   0.8777   4.6173   O.co2     1 RES1  -1.0000
    16 C16     -3.7518   2.1273   4.9120   C.3       1 RES1   0.0000
    17 C17     -2.4846   2.9012   5.3084   C.3       1 RES1   0.0000
    18 C18     -2.6988   4.4179   5.2732   C.3       1 RES1   0.0000
    19 O19     -2.7041   4.9315   3.9357   O.3       1 RES1   0.0000
    20 C20     -3.9818   4.7913   6.0315   C.3       1 RES1   0.0000
    21 C21     -4.3507   6.2726   5.9353   C.3       1 RES1   0.0000
    22 O22     -3.2445   7.0372   6.3990   O.3       1 RES1   0.0000
    23 C23     -5.5742   6.6172   6.7984   C.3       1 RES1   0.0000
    24 O24     -5.9486   7.9943   6.5862   O.3       1 RES1   0.0000
    25 O25     -5.0992   4.0291   5.5751   O.3       1 RES1   0.0000
    26 C26     -6.8524   1.4817   8.4839   C.3       1 RES1   0.0000
    27 O27     -5.9827   0.7465   9.3566   O.3       1 RES1   0.0000
    28 C28     -8.0380   2.1076   9.2034   C.3       1 RES1   0.0000
    29 C29     -8.9307   1.1448  10.0001   C.3       1 RES1   0.0000
    30 O30    -10.1567   1.7822  10.3621   O.3       1 RES1   0.0000
    31 C31     -8.2433   0.6610  11.2893   C.3       1 RES1   0.0000
    32 O32     -9.0670  -0.3051  11.9667   O.3       1 RES1   0.0000
    33 O33     -7.5698   3.0805  10.1291   O.3       1 RES1   0.0000
@<TRIPOS>BOND
     1     1     2    1
     2     2     3    2
     3     3     4    1
     4     5     4    1
     5     5     6    1
     6     6     7    2
     7     6     8    1
     8     5     9    1
     9     9    10    1
    10    10    11    1
    11    12    11    1
    12    12    13    1
    13    13    14    2
    14    13    15    1
    15    12    16    1
    16    16    17    1
    17    17    18    1
    18    18    19    1
    19    18    20    1
    20    20    21    1
    21    21    22    1
    22    21    23    1
    23    23    24    1
    24    20    25    1
    25    10    26    1
    26    26    27    1
    27    26    28    1
    28    28    29    1
    29    29    30    1
    30    29    31    1
    31    31    32    1
    32    28    33    1
    33    33     5    1
    34    25    12    1
@<TRIPOS>SUBSTRUCTURE
     1 RES1        1 GROUP             0 ****  ****    0  
@<TRIPOS>MOLECULE
ligand_8
    33    34     1     0     0
SMALL
USER_CHARGES
****
Generated from the CSD

@<TRIPOS>ATOM
     1 C1     -10.4880   7.1712   9.9719   C.2       1 RES1   0.0000
     2 C2      -9.2092   6.6261   9.9290   C.2       1 RES1   0.0000
     3 C3      -8.9057   5.6609   8.9632   C.2       1 RES1   0.0000
     4 O4      -7.7300   4.9920   8.7460   O.3       1 RES1   0.0000
     5 C5      -6.3716   5.4943   8.5967   C.3       1 RES1   0.0000
     6 C6      -6.2716   6.5919   7.5155   C.2       1 RES1   0.0000
     7 O7      -6.1933   7.8044   7.8664   O.co2     1 RES1   0.0000
     8 O8      -6.2632   6.2000   6.3353   O.co2     1 RES1  -1.0000
     9 C9      -5.5117   4.2763   8.2910   C.3       1 RES1   0.0000
    10 C10     -5.2440   3.4082   9.4980   C.3       1 RES1   0.0000
    11 O11     -4.3197   2.3967   9.0739   O.3       1 RES1   0.0000
    12 C12     -4.9974   1.1084   8.9561   C.3       1 RES1   0.0000
    13 C13     -5.7227   0.7698  10.2749   C.2       1 RES1   0.0000
    14 O14     -6.9683   0.9536  10.2908   O.co2     1 RES1   0.0000
    15 O15     -5.0588   0.3090  11.2231   O.co2     1 RES1  -1.0000
    16 C16     -4.0457  -0.0049   8.5584   C.3       1 RES1   0.0000
    17 C17     -3.5804   0.0980   7.0974   C.3       1 RES1   0.0000
    18 C18     -4.7537   0.2750   6.1281   C.3       1 RES1   0.0000
    19 O19     -5.4643  -0.9500   5.9110   O.3       1 RES1   0.0000
    20 C20     -5.6849   1.3939   6.6195   C.3       1 RES1   0.0000
    21 C21     -6.9580   1.5523   5.7865   C.3       1 RES1   0.0000
    22 O22     -7.5038   2.8394   6.0491   O.3       1 RES1   0.0000
    23 C23     -8.0141   0.4954   6.1446   C.3       1 RES1   0.0000
    24 O24     -9.1756   0.6625   5.3053   O.3       1 RES1   0.0000
    25 O25     -6.0708   1.1933   7.9791   O.3       1 RES1   0.0000
    26 C26     -4.7407   4.2375  10.6581   C.3       1 RES1   0.0000
    27 O27     -3.4263   4.7711  10.4430   O.3       1 RES1   0.0000
    28 C28     -5.7882   5.3079  10.9263   C.3       1 RES1   0.0000
    29 C29     -5.5029   6.2538  12.1021   C.3       1 RES1   0.0000
    30 O30     -5.3471   5.5137  13.3139   O.3       1 RES1   0.0000
    31 C31     -6.6383   7.2728  12.3056   C.3       1 RES1   0.0000
    32 O32     -6.2820   8.2268  13.3223   O.3       1 RES1   0.0000
    33 O33     -5.9302   6.1302   9.7745   O.3       1 RES1   0.0000
@<TRIPOS>BOND
     1     1     2    1
     2     2     3    2
     3     3     4    1
     4     5     4    1
     5     5     6    1
     6     6     7    2
     7     6     8    1
     8     5     9    1
     9     9    10    1
    10    10    11    1
    11    12    11    1
    12    12    13    1
    13    13    14    2
    14    13    15    1
    15    12    16    1
    16    16    17    1
    17    17    18    1
    18    18    19    1
    19    18    20    1
    20    20    21    1
    21    21    22    1
    22    21    23    1
    23    23    24    1
    24    20    25    1
    25    10    26    1
    26    26    27    1
    27    26    28    1
    28    28    29    1
    29    29    30    1
    30    29    31    1
    31    31    32    1
    32    28    33    1
    33    33     5    1
    34    25    12    1
@<TRIPOS>SUBSTRUCTURE
     1 RES1        1 GROUP             0 ****  ****    0  
@<TRIPOS>MOLECULE
ligand_9
    33    34     1     0     0
SMALL
USER_CHARGES
****
Generated from the CSD

@<TRIPOS>ATOM
     1 C1     -10.4390   7.0930  10.1970   C.2       1 RES1   0.0000
     2 C2      -9.1670   6.5420  10.0840   C.2       1 RES1   0.0000
     3 C3      -8.8940   5.6520   9.0400   C.2       1 RES1   0.0000
     4 O4      -7.7300   4.9920   8.7460   O.3       1 RES1   0.0000
     5 C5      -6.8676   4.1771   9.5898   C.3       1 RES1   0.0000
     6 C6      -6.3659   4.9497  10.8288   C.2       1 RES1   0.0000
     7 O7      -6.9015   4.7346  11.9541   O.co2     1 RES1   0.0000
     8 O8      -5.4328   5.7488  10.6361   O.co2     1 RES1  -1.0000
     9 C9      -5.7388   3.6991   8.6878   C.3       1 RES1   0.0000
    10 C10     -6.1486   2.5954   7.7414   C.3       1 RES1   0.0000
    11 O11     -4.9538   2.1706   7.0711   O.3       1 RES1   0.0000
    12 C12     -4.9557   2.6379   5.6874   C.3       1 RES1   0.0000
    13 C13     -6.2530   2.1933   4.9808   C.2       1 RES1   0.0000
    14 O14     -7.1432   3.0729   4.8415   O.co2     1 RES1   0.0000
    15 O15     -6.3370   1.0228   4.5625   O.co2     1 RES1  -1.0000
    16 C16     -3.7322   2.1677   4.9226   C.3       1 RES1   0.0000
    17 C17     -2.4420   2.8789   5.3603   C.3       1 RES1   0.0000
    18 C18     -2.6010   4.4026   5.3828   C.3       1 RES1   0.0000
    19 O19     -2.5742   4.9678   4.0666   O.3       1 RES1   0.0000
    20 C20     -3.8774   4.7926   6.1439   C.3       1 RES1   0.0000
    21 C21     -4.1916   6.2891   6.1028   C.3       1 RES1   0.0000
    22 O22     -5.1016   6.5813   7.1564   O.3       1 RES1   0.0000
    23 C23     -4.8399   6.7037   4.7730   C.3       1 RES1   0.0000
    24 O24     -5.0781   8.1267   4.7692   O.3       1 RES1   0.0000
    25 O25     -5.0168   4.0900   5.6481   O.3       1 RES1   0.0000
    26 C26     -6.8524   1.4817   8.4839   C.3       1 RES1   0.0000
    27 O27     -5.9827   0.7465   9.3566   O.3       1 RES1   0.0000
    28 C28     -8.0380   2.1076   9.2034   C.3       1 RES1   0.0000
    29 C29     -8.9307   1.1448  10.0001   C.3       1 RES1   0.0000
    30 O30     -9.4519   0.1238   9.1478   O.3       1 RES1   0.0000
    31 C31    -10.1172   1.8739  10.6553   C.3       1 RES1   0.0000
    32 O32    -10.8537   0.9750  11.5039   O.3       1 RES1   0.0000
    33 O33     -7.5698   3.0805  10.1291   O.3       1 RES1   0.0000
@<TRIPOS>BOND
     1     1     2    1
     2     2     3    2
     3     3     4    1
     4     5     4    1
     5     5     6    1
     6     6     7    2
     7     6     8    1
     8     5     9    1
     9     9    10    1
    10    10    11    1
    11    12    11    1
    12    12    13    1
    13    13    14    2
    14    13    15    1
    15    12    16    1
    16    16    17    1
    17    17    18    1
    18    18    19    1
    19    18    20    1
    20    20    21    1
    21    21    22    1
    22    21    23    1
    23    23    24    1
    24    20    25    1
    25    10    26    1
    26    26    27    1
    27    26    28    1
    28    28    29    1
    29    29    30    1
    30    29    31    1
    31    31    32    1
    32    28    33    1
    33    33     5    1
    34    25    12    1
@<TRIPOS>SUBSTRUCTURE
     1 RES1        1 GROUP             0 ****  ****    0  
@<TRIPOS>MOLECULE
ligand_10
    33    34     1     0     0
SMALL
USER_CHARGES
****
Generated from the CSD

@<TRIPOS>ATOM
     1 C1     -10.4892   7.2198   9.8782   C.2       1 RES1   0.0000
     2 C2      -9.2057   6.6850   9.8477   C.2       1 RES1   0.0000
     3 C3      -8.9088   5.6625   8.9406   C.2       1 RES1   0.0000
     4 O4      -7.7300   4.9920   8.7460   O.3       1 RES1   0.0000
     5 C5      -6.3716   5.4943   8.5967   C.3       1 RES1   0.0000
     6 C6      -6.2716   6.5919   7.5155   C.2       1 RES1   0.0000
     7 O7      -7.3200   7.1912   7.1396   O.co2     1 RES1   0.0000
     8 O8      -5.1316   6.8300   7.0796   O.co2     1 RES1  -1.0000
     9 C9      -5.5117   4.2763   8.2910   C.3       1 RES1   0.0000
    10 C10     -5.2440   3.4082   9.4980   C.3       1 RES1   0.0000
    11 O11     -4.3197   2.3967   9.0739   O.3       1 RES1   0.0000
    12 C12     -4.9974   1.1084   8.9561   C.3       1 RES1   0.0000
    13 C13     -5.7227   0.7697  10.2749   C.2       1 RES1   0.0000
    14 O14     -6.9683   0.9534  10.2907   O.co2     1 RES1   0.0000
    15 O15     -5.0587   0.3091  11.2231   O.co2     1 RES1  -1.0000
    16 C16     -4.0457  -0.0048   8.5583   C.3       1 RES1   0.0000
    17 C17     -3.5805   0.0981   7.0972   C.3       1 RES1   0.0000
    18 C18     -4.7538   0.2751   6.1280   C.3       1 RES1   0.0000
    19 O19     -5.4644  -0.9498   5.9109   O.3       1 RES1   0.0000
    20 C20     -5.6850   1.3940   6.6195   C.3       1 RES1   0.0000
    21 C21     -6.9581   1.5525   5.7866   C.3       1 RES1   0.0000
    22 O22     -7.5041   2.8394   6.0496   O.3       1 RES1   0.0000
    23 C23     -8.0140   0.4953   6.1444   C.3       1 RES1   0.0000
    24 O24     -9.1758   0.6627   5.3053   O.3       1 RES1   0.0000
    25 O25     -6.0708   1.1933   7.9791   O.3       1 RES1   0.0000
    26 C26     -4.7407   4.2375  10.6581   C.3       1 RES1   0.0000
    27 O27     -3.4263   4.7711  10.4430   O.3       1 RES1   0.0000
    28 C28     -5.7882   5.3079  10.9263   C.3       1 RES1   0.0000
    29 C29     -5.5029   6.2538  12.1021   C.3       1 RES1   0.0000
    30 O30     -5.2590   5.5090  13.2963   O.3       1 RES1   0.0000
    31 C31     -6.6795   7.2103  12.3659   C.3       1 RES1   0.0000
    32 O32     -7.8642   6.4684  12.7077   O.3       1 RES1   0.0000
    33 O33     -5.9302   6.1302   9.7745   O.3       1 RES1   0.0000
@<TRIPOS>BOND
     1     1     2    1
     2     2     3    2
     3     3     4    1
     4     5     4    1
     5     5     6    1
     6     6     7    2
     7     6     8    1
     8     5     9    1
     9     9    10    1
    10    10    11    1
    11    12    11    1
    12    12    13    1
    13    13    14    2
    14    13    15    1
    15    12    16    1
    16    16    17    1
    17    17    18    1
    18    18    19    1
    19    18    20    1
    20    20    21    1
    21    21    22    1
    22    21    23    1
    23    23    24    1
    24    20    25    1
    25    10    26    1
    26    26    27    1
    27    26    28    1
    28    28    29    1
    29    29    30    1
    30    29    31    1
    31    31    32    1
    32    28    33    1
    33    33     5    1
    34    25    12    1
@<TRIPOS>SUBSTRUCTURE
     1 RES1        1 GROUP             0 ****  ****    0  
@<TRIPOS>MOLECULE
ligand_11
    33    34     1     0     0
SMALL
USER_CHARGES
****
Generated from the CSD

@<TRIPOS>ATOM
     1 C1     -10.4412   7.0997  10.1831   C.2       1 RES1   0.0000
     2 C2      -9.1686   6.5494  10.0737   C.2       1 RES1   0.0000
     3 C3      -8.8947   5.6526   9.0357   C.2       1 RES1   0.0000
     4 O4      -7.7300   4.9920   8.7460   O.3       1 RES1   0.0000
     5 C5      -6.3716   5.4943   8.5967   C.3       1 RES1   0.0000
     6 C6      -6.2716   6.5919   7.5155   C.2       1 RES1   0.0000
     7 O7      -7.3201   7.1906   7.1391   O.co2     1 RES1   0.0000
     8 O8      -5.1315   6.8306   7.0801   O.co2     1 RES1  -1.0000
     9 C9      -5.5117   4.2763   8.2910   C.3       1 RES1   0.0000
    10 C10     -5.2440   3.4082   9.4980   C.3       1 RES1   0.0000
    11 O11     -4.3197   2.3967   9.0739   O.3       1 RES1   0.0000
    12 C12     -4.9822   1.0964   9.0176   C.3       1 RES1   0.0000
    13 C13     -5.6409   0.7791  10.3761   C.2       1 RES1   0.0000
    14 O14     -6.8861   0.9521  10.4474   O.co2     1 RES1   0.0000
    15 O15     -4.9283   0.3444  11.3010   O.co2     1 RES1  -1.0000
    16 C16     -4.0329  -0.0124   8.6022   C.3       1 RES1   0.0000
    17 C17     -3.6369   0.0622   7.1191   C.3       1 RES1   0.0000
    18 C18     -4.8561   0.1992   6.2014   C.3       1 RES1   0.0000
    19 O19     -5.5571  -1.0406   6.0460   O.3       1 RES1   0.0000
    20 C20     -5.7808   1.3162   6.7093   C.3       1 RES1   0.0000
    21 C21     -7.0932   1.4365   5.9328   C.3       1 RES1   0.0000
    22 O22     -6.7807   1.6206   4.5574   O.3       1 RES1   0.0000
    23 C23     -7.9318   2.6345   6.4042   C.3       1 RES1   0.0000
    24 O24     -9.2036   2.6378   5.7229   O.3       1 RES1   0.0000
    25 O25     -6.1006   1.1426   8.0897   O.3       1 RES1   0.0000
    26 C26     -4.7407   4.2375  10.6581   C.3       1 RES1   0.0000
    27 O27     -3.4263   4.7711  10.4430   O.3       1 RES1   0.0000
    28 C28     -5.7882   5.3079  10.9263   C.3       1 RES1   0.0000
    29 C29     -5.5029   6.2538  12.1021   C.3       1 RES1   0.0000
    30 O30     -6.6534   7.0475  12.3969   O.3       1 RES1   0.0000
    31 C31     -4.3298   7.2036  11.8013   C.3       1 RES1   0.0000
    32 O32     -4.6231   8.0168  10.6509   O.3       1 RES1   0.0000
    33 O33     -5.9302   6.1302   9.7745   O.3       1 RES1   0.0000
@<TRIPOS>BOND
     1     1     2    1
     2     2     3    2
     3     3     4    1
     4     5     4    1
     5     5     6    1
     6     6     7    2
     7     6     8    1
     8     5     9    1
     9     9    10    1
    10    10    11    1
    11    12    11    1
    12    12    13    1
    13    13    14    2
    14    13    15    1
    15    12    16    1
    16    16    17    1
    17    17    18    1
    18    18    19    1
    19    18    20    1
    20    20    21    1
    21    21    22    1
    22    21    23    1
    23    23    24    1
    24    20    25    1
    25    10    26    1
    26    26    27    1
    27    26    28    1
    28    28    29    1
    29    29    30    1
    30    29    31    1
    31    31    32    1
    32    28    33    1
    33    33     5    1
    34    25    12    1
@<TRIPOS>SUBSTRUCTURE
     1 RES1        1 GROUP             0 ****  ****    0  
@<TRIPOS>MOLECULE
ligand_12
    33    34     1     0     0
SMALL
USER_CHARGES
****
Generated from the CSD

@<TRIPOS>ATOM
     1 C1     -10.4384   7.0956  10.1943   C.2       1 RES1   0.0000
     2 C2      -9.1662   6.5452  10.0812   C.2       1 RES1   0.0000
     3 C3      -8.8941   5.6521   9.0396   C.2       1 RES1   0.0000
     4 O4      -7.7300   4.9920   8.7460   O.3       1 RES1   0.0000
     5 C5      -6.3716   5.4943   8.5967   C.3       1 RES1   0.0000
     6 C6      -6.2716   6.5919   7.5155   C.2       1 RES1   0.0000
     7 O7      -7.3201   7.1906   7.1390   O.co2     1 RES1   0.0000
     8 O8      -5.1315   6.8306   7.0801   O.co2     1 RES1  -1.0000
     9 C9      -5.5117   4.2763   8.2910   C.3       1 RES1   0.0000
    10 C10     -5.2440   3.4082   9.4980   C.3       1 RES1   0.0000
    11 O11     -4.3197   2.3967   9.0739   O.3       1 RES1   0.0000
    12 C12     -4.9911   1.1029   8.9829   C.3       1 RES1   0.0000
    13 C13     -5.6913   0.7753  10.3179   C.2       1 RES1   0.0000
    14 O14     -5.1596   1.2454  11.3580   O.co2     1 RES1   0.0000
    15 O15     -6.7427   0.1073  10.2953   O.co2     1 RES1  -1.0000
    16 C16     -4.0393  -0.0090   8.5817   C.3       1 RES1   0.0000
    17 C17     -3.6000   0.0796   7.1117   C.3       1 RES1   0.0000
    18 C18     -4.7909   0.2380   6.1609   C.3       1 RES1   0.0000
    19 O19     -5.4973  -0.9939   5.9705   O.3       1 RES1   0.0000
    20 C20     -5.7206   1.3568   6.6553   C.3       1 RES1   0.0000
    21 C21     -7.0090   1.4975   5.8428   C.3       1 RES1   0.0000
    22 O22     -6.6553   1.6925   4.4789   O.3       1 RES1   0.0000
    23 C23     -7.8496   2.6987   6.3023   C.3       1 RES1   0.0000
    24 O24     -9.1044   2.7168   5.5905   O.3       1 RES1   0.0000
    25 O25     -6.0817   1.1697   8.0237   O.3       1 RES1   0.0000
    26 C26     -4.7407   4.2375  10.6581   C.3       1 RES1   0.0000
    27 O27     -3.4263   4.7711  10.4430   O.3       1 RES1   0.0000
    28 C28     -5.7882   5.3079  10.9263   C.3       1 RES1   0.0000
    29 C29     -5.5029   6.2538  12.1021   C.3       1 RES1   0.0000
    30 O30     -6.6760   6.9925  12.4466   O.3       1 RES1   0.0000
    31 C31     -4.3845   7.2579  11.7709   C.3       1 RES1   0.0000
    32 O32     -4.0802   8.0692  12.9197   O.3       1 RES1   0.0000
    33 O33     -5.9302   6.1302   9.7745   O.3       1 RES1   0.0000
@<TRIPOS>BOND
     1     1     2    1
     2     2     3    2
     3     3     4    1
     4     5     4    1
     5     5     6    1
     6     6     7    2
     7     6     8    1
     8     5     9    1
     9     9    10    1
    10    10    11    1
    11    12    11    1
    12    12    13    1
    13    13    14    2
    14    13    15    1
    15    12    16    1
    16    16    17    1
    17    17    18    1
    18    18    19    1
    19    18    20    1
    20    20    21    1
    21    21    22    1
    22    21    23    1
    23    23    24    1
    24    20    25    1
    25    10    26    1
    26    26    27    1
    27    26    28    1
    28    28    29    1
    29    29    30    1
    30    29    31    1
    31    31    32    1
    32    28    33    1
    33    33     5    1
    34    25    12    1
@<TRIPOS>SUBSTRUCTURE
     1 RES1        1 GROUP             0 ****  ****    0  
@<TRIPOS>MOLECULE
ligand_13
    33    34     1     0     0
SMALL
USER_CHARGES
****
Generated from the CSD

@<TRIPOS>ATOM
     1 C1     -10.4798   7.1589  10.0115   C.2       1 RES1   0.0000
     2 C2      -9.2020   6.6124   9.9564   C.2       1 RES1   0.0000
     3 C3      -8.9038   5.6597   8.9766   C.2       1 RES1   0.0000
     4 O4      -7.7300   4.9920   8.7460   O.3       1 RES1   0.0000
     5 C5      -6.3716   5.4943   8.5967   C.3       1 RES1   0.0000
     6 C6      -6.2716   6.5919   7.5155   C.2       1 RES1   0.0000
     7 O7      -7.3200   7.1909   7.1393   O.co2     1 RES1   0.0000
     8 O8      -5.1316   6.8303   7.0799   O.co2     1 RES1  -1.0000
     9 C9      -5.5117   4.2763   8.2910   C.3       1 RES1   0.0000
    10 C10     -5.2440   3.4082   9.4980   C.3       1 RES1   0.0000
    11 O11     -4.3197   2.3967   9.0739   O.3       1 RES1   0.0000
    12 C12     -5.0029   1.1138   8.9311   C.3       1 RES1   0.0000
    13 C13     -5.7561   0.7680  10.2323   C.2       1 RES1   0.0000
    14 O14     -5.2592   1.2122  11.3006   O.co2     1 RES1   0.0000
    15 O15     -6.8125   0.1118  10.1572   O.co2     1 RES1  -1.0000
    16 C16     -4.0504  -0.0018   8.5421   C.3       1 RES1   0.0000
    17 C17     -3.5558   0.1112   7.0915   C.3       1 RES1   0.0000
    18 C18     -4.7087   0.3043   6.1010   C.3       1 RES1   0.0000
    19 O19     -5.4224  -0.9141   5.8589   O.3       1 RES1   0.0000
    20 C20     -5.6425   1.4246   6.5841   C.3       1 RES1   0.0000
    21 C21     -6.8979   1.5986   5.7278   C.3       1 RES1   0.0000
    22 O22     -7.4399   2.8874   5.9901   O.3       1 RES1   0.0000
    23 C23     -7.9681   0.5464   6.0568   C.3       1 RES1   0.0000
    24 O24     -9.1116   0.7280   5.1959   O.3       1 RES1   0.0000
    25 O25     -6.0563   1.2143   7.9341   O.3       1 RES1   0.0000
    26 C26     -4.7407   4.2375  10.6581   C.3       1 RES1   0.0000
    27 O27     -3.4263   4.7711  10.4430   O.3       1 RES1   0.0000
    28 C28     -5.7882   5.3079  10.9263   C.3       1 RES1   0.0000
    29 C29     -5.5029   6.2538  12.1021   C.3       1 RES1   0.0000
    30 O30     -5.3515   5.5141  13.3147   O.3       1 RES1   0.0000
    31 C31     -6.6361   7.2758  12.3027   C.3       1 RES1   0.0000
    32 O32     -6.2803   8.2282  13.3210   O.3       1 RES1   0.0000
    33 O33     -5.9302   6.1302   9.7745   O.3       1 RES1   0.0000
@<TRIPOS>BOND
     1     1     2    1
     2     2     3    2
     3     3     4    1
     4     5     4    1
     5     5     6    1
     6     6     7    2
     7     6     8    1
     8     5     9    1
     9     9    10    1
    10    10    11    1
    11    12    11    1
    12    12    13    1
    13    13    14    2
    14    13    15    1
    15    12    16    1
    16    16    17    1
    17    17    18    1
    18    18    19    1
    19    18    20    1
    20    20    21    1
    21    21    22    1
    22    21    23    1
    23    23    24    1
    24    20    25    1
    25    10    26    1
    26    26    27    1
    27    26    28    1
    28    28    29    1
    29    29    30    1
    30    29    31    1
    31    31    32    1
    32    28    33    1
    33    33     5    1
    34    25    12    1
@<TRIPOS>SUBSTRUCTURE
     1 RES1        1 GROUP             0 ****  ****    0  
@<TRIPOS>MOLECULE
ligand_14
    33    34     1     0     0
SMALL
USER_CHARGES
****
Generated from the CSD

@<TRIPOS>ATOM
     1 C1     -10.4880   7.1713   9.9718   C.2       1 RES1   0.0000
     2 C2      -9.2092   6.6261   9.9289   C.2       1 RES1   0.0000
     3 C3      -8.9057   5.6609   8.9631   C.2       1 RES1   0.0000
     4 O4      -7.7300   4.9920   8.7460   O.3       1 RES1   0.0000
     5 C5      -6.3716   5.4943   8.5967   C.3       1 RES1   0.0000
     6 C6      -6.2716   6.5919   7.5155   C.2       1 RES1   0.0000
     7 O7      -6.1933   7.8044   7.8664   O.co2     1 RES1   0.0000
     8 O8      -6.2632   6.2000   6.3353   O.co2     1 RES1  -1.0000
     9 C9      -5.5117   4.2763   8.2910   C.3       1 RES1   0.0000
    10 C10     -5.2440   3.4082   9.4980   C.3       1 RES1   0.0000
    11 O11     -4.3197   2.3967   9.0739   O.3       1 RES1   0.0000
    12 C12     -4.7274   1.0911   9.5858   C.3       1 RES1   0.0000
    13 C13     -4.8626   1.1438  11.1216   C.2       1 RES1   0.0000
    14 O14     -6.0244   1.3182  11.5748   O.co2     1 RES1   0.0000
    15 O15     -3.8435   0.9795  11.8192   O.co2     1 RES1  -1.0000
    16 C16     -3.7760  -0.0127   9.1619   C.3       1 RES1   0.0000
    17 C17     -3.8823  -0.3542   7.6673   C.3       1 RES1   0.0000
    18 C18     -5.3312  -0.5946   7.2308   C.3       1 RES1   0.0000
    19 O19     -5.8163  -1.8754   7.6514   O.3       1 RES1   0.0000
    20 C20     -6.2322   0.5465   7.7274   C.3       1 RES1   0.0000
    21 C21     -7.7210   0.3251   7.4551   C.3       1 RES1   0.0000
    22 O22     -7.8895   0.1025   6.0603   O.3       1 RES1   0.0000
    23 C23     -8.5660   1.5436   7.8574   C.3       1 RES1   0.0000
    24 O24     -9.9650   1.2559   7.6534   O.3       1 RES1   0.0000
    25 O25     -6.0694   0.7692   9.1281   O.3       1 RES1   0.0000
    26 C26     -4.7407   4.2375  10.6581   C.3       1 RES1   0.0000
    27 O27     -3.4263   4.7711  10.4430   O.3       1 RES1   0.0000
    28 C28     -5.7882   5.3079  10.9263   C.3       1 RES1   0.0000
    29 C29     -5.5029   6.2538  12.1021   C.3       1 RES1   0.0000
    30 O30     -5.3470   5.5137  13.3139   O.3       1 RES1   0.0000
    31 C31     -6.6383   7.2728  12.3056   C.3       1 RES1   0.0000
    32 O32     -6.2819   8.2268  13.3223   O.3       1 RES1   0.0000
    33 O33     -5.9302   6.1302   9.7745   O.3       1 RES1   0.0000
@<TRIPOS>BOND
     1     1     2    1
     2     2     3    2
     3     3     4    1
     4     5     4    1
     5     5     6    1
     6     6     7    2
     7     6     8    1
     8     5     9    1
     9     9    10    1
    10    10    11    1
    11    12    11    1
    12    12    13    1
    13    13    14    2
    14    13    15    1
    15    12    16    1
    16    16    17    1
    17    17    18    1
    18    18    19    1
    19    18    20    1
    20    20    21    1
    21    21    22    1
    22    21    23    1
    23    23    24    1
    24    20    25    1
    25    10    26    1
    26    26    27    1
    27    26    28    1
    28    28    29    1
    29    29    30    1
    30    29    31    1
    31    31    32    1
    32    28    33    1
    33    33     5    1
    34    25    12    1
@<TRIPOS>SUBSTRUCTURE
     1 RES1        1 GROUP             0 ****  ****    0  
@<TRIPOS>MOLECULE
ligand_15
    33    34     1     0     0
SMALL
USER_CHARGES
****
Generated from the CSD

@<TRIPOS>ATOM
     1 C1     -10.4390   7.0930  10.1970   C.2       1 RES1   0.0000
     2 C2      -9.1670   6.5420  10.0840   C.2       1 RES1   0.0000
     3 C3      -8.8940   5.6520   9.0400   C.2       1 RES1   0.0000
     4 O4      -7.7300   4.9920   8.7460   O.3       1 RES1   0.0000
     5 C5      -6.8676   4.1771   9.5898   C.3       1 RES1   0.0000
     6 C6      -6.3659   4.9497  10.8288   C.2       1 RES1   0.0000
     7 O7      -6.9015   4.7346  11.9541   O.co2     1 RES1   0.0000
     8 O8      -5.4328   5.7488  10.6361   O.co2     1 RES1  -1.0000
     9 C9      -5.7388   3.6991   8.6878   C.3       1 RES1   0.0000
    10 C10     -6.1486   2.5954   7.7414   C.3       1 RES1   0.0000
    11 O11     -4.9538   2.1706   7.0711   O.3       1 RES1   0.0000
    12 C12     -5.2070   2.0019   5.6426   C.3       1 RES1   0.0000
    13 C13     -6.3739   1.0166   5.4250   C.2       1 RES1   0.0000
    14 O14     -7.5081   1.5277   5.2305   O.co2     1 RES1   0.0000
    15 O15     -6.1331  -0.2058   5.4181   O.co2     1 RES1  -1.0000
    16 C16     -3.9681   1.5511   4.8909   C.3       1 RES1   0.0000
    17 C17     -2.9079   2.6565   4.7656   C.3       1 RES1   0.0000
    18 C18     -3.4995   3.9679   4.2387   C.3       1 RES1   0.0000
    19 O19     -3.7480   3.9201   2.8285   O.3       1 RES1   0.0000
    20 C20     -4.7658   4.3346   5.0277   C.3       1 RES1   0.0000
    21 C21     -5.5029   5.5597   4.4840   C.3       1 RES1   0.0000
    22 O22     -4.5869   6.6471   4.4417   O.3       1 RES1   0.0000
    23 C23     -6.6890   5.9590   5.3753   C.3       1 RES1   0.0000
    24 O24     -7.3948   7.0677   4.7802   O.3       1 RES1   0.0000
    25 O25     -5.6897   3.2472   5.0680   O.3       1 RES1   0.0000
    26 C26     -6.8524   1.4817   8.4839   C.3       1 RES1   0.0000
    27 O27     -5.9827   0.7465   9.3566   O.3       1 RES1   0.0000
    28 C28     -8.0380   2.1076   9.2034   C.3       1 RES1   0.0000
    29 C29     -8.9307   1.1448  10.0001   C.3       1 RES1   0.0000
    30 O30     -9.4519   0.1238   9.1478   O.3       1 RES1   0.0000
    31 C31    -10.1172   1.8739  10.6553   C.3       1 RES1   0.0000
    32 O32    -10.8537   0.9750  11.5039   O.3       1 RES1   0.0000
    33 O33     -7.5698   3.0805  10.1291   O.3       1 RES1   0.0000
@<TRIPOS>BOND
     1     1     2    1
     2     2     3    2
     3     3     4    1
     4     5     4    1
     5     5     6    1
     6     6     7    2
     7     6     8    1
     8     5     9    1
     9     9    10    1
    10    10    11    1
    11    12    11    1
    12    12    13    1
    13    13    14    2
    14    13    15    1
    15    12    16    1
    16    16    17    1
    17    17    18    1
    18    18    19    1
    19    18    20    1
    20    20    21    1
    21    21    22    1
    22    21    23    1
    23    23    24    1
    24    20    25    1
    25    10    26    1
    26    26    27    1
    27    26    28    1
    28    28    29    1
    29    29    30    1
    30    29    31    1
    31    31    32    1
    32    28    33    1
    33    33     5    1
    34    25    12    1
@<TRIPOS>SUBSTRUCTURE
     1 RES1        1 GROUP             0 ****  ****    0  
@<TRIPOS>MOLECULE
ligand_16
    33    34     1     0     0
SMALL
USER_CHARGES
****
Generated from the CSD

@<TRIPOS>ATOM
     1 C1     -10.4539   7.0747  10.1954   C.2       1 RES1   0.0000
     2 C2      -9.1792   6.5294  10.0854   C.2       1 RES1   0.0000
     3 C3      -8.8980   5.6458   9.0381   C.2       1 RES1   0.0000
     4 O4      -7.7300   4.9920   8.7460   O.3       1 RES1   0.0000
     5 C5      -6.8676   4.1771   9.5898   C.3       1 RES1   0.0000
     6 C6      -6.3659   4.9497  10.8288   C.2       1 RES1   0.0000
     7 O7      -6.2427   4.3429  11.9316   O.co2     1 RES1   0.0000
     8 O8      -6.0971   6.1512  10.6541   O.co2     1 RES1  -1.0000
     9 C9      -5.7388   3.6991   8.6878   C.3       1 RES1   0.0000
    10 C10     -6.1486   2.5954   7.7414   C.3       1 RES1   0.0000
    11 O11     -4.9538   2.1706   7.0711   O.3       1 RES1   0.0000
    12 C12     -4.9557   2.6379   5.6874   C.3       1 RES1   0.0000
    13 C13     -6.2530   2.1933   4.9808   C.2       1 RES1   0.0000
    14 O14     -7.1432   3.0729   4.8415   O.co2     1 RES1   0.0000
    15 O15     -6.3370   1.0227   4.5625   O.co2     1 RES1  -1.0000
    16 C16     -3.7322   2.1677   4.9226   C.3       1 RES1   0.0000
    17 C17     -2.4420   2.8789   5.3603   C.3       1 RES1   0.0000
    18 C18     -2.6010   4.4026   5.3828   C.3       1 RES1   0.0000
    19 O19     -2.5742   4.9678   4.0666   O.3       1 RES1   0.0000
    20 C20     -3.8774   4.7926   6.1439   C.3       1 RES1   0.0000
    21 C21     -4.1916   6.2891   6.1028   C.3       1 RES1   0.0000
    22 O22     -5.1016   6.5813   7.1564   O.3       1 RES1   0.0000
    23 C23     -4.8399   6.7037   4.7730   C.3       1 RES1   0.0000
    24 O24     -5.0781   8.1267   4.7692   O.3       1 RES1   0.0000
    25 O25     -5.0168   4.0900   5.6481   O.3       1 RES1   0.0000
    26 C26     -6.8524   1.4817   8.4839   C.3       1 RES1   0.0000
    27 O27     -5.9827   0.7465   9.3566   O.3       1 RES1   0.0000
    28 C28     -8.0380   2.1076   9.2034   C.3       1 RES1   0.0000
    29 C29     -8.9307   1.1448  10.0001   C.3       1 RES1   0.0000
    30 O30     -9.4519   0.1238   9.1478   O.3       1 RES1   0.0000
    31 C31    -10.1172   1.8739  10.6553   C.3       1 RES1   0.0000
    32 O32    -10.9221   2.5247   9.6556   O.3       1 RES1   0.0000
    33 O33     -7.5698   3.0805  10.1291   O.3       1 RES1   0.0000
@<TRIPOS>BOND
     1     1     2    1
     2     2     3    2
     3     3     4    1
     4     5     4    1
     5     5     6    1
     6     6     7    2
     7     6     8    1
     8     5     9    1
     9     9    10    1
    10    10    11    1
    11    12    11    1
    12    12    13    1
    13    13    14    2
    14    13    15    1
    15    12    16    1
    16    16    17    1
    17    17    18    1
    18    18    19    1
    19    18    20    1
    20    20    21    1
    21    21    22    1
    22    21    23    1
    23    23    24    1
    24    20    25    1
    25    10    26    1
    26    26    27    1
    27    26    28    1
    28    28    29    1
    29    29    30    1
    30    29    31    1
    31    31    32    1
    32    28    33    1
    33    33     5    1
    34    25    12    1
@<TRIPOS>SUBSTRUCTURE
     1 RES1        1 GROUP             0 ****  ****    0  
@<TRIPOS>MOLECULE
ligand_17
    33    34     1     0     0
SMALL
USER_CHARGES
****
Generated from the CSD

@<TRIPOS>ATOM
     1 C1     -10.4954   7.2223   9.8579   C.2       1 RES1   0.0000
     2 C2      -9.2117   6.6875   9.8357   C.2       1 RES1   0.0000
     3 C3      -8.9098   5.6629   8.9326   C.2       1 RES1   0.0000
     4 O4      -7.7300   4.9920   8.7460   O.3       1 RES1   0.0000
     5 C5      -6.3716   5.4943   8.5967   C.3       1 RES1   0.0000
     6 C6      -6.2716   6.5919   7.5155   C.2       1 RES1   0.0000
     7 O7      -6.1933   7.8044   7.8664   O.co2     1 RES1   0.0000
     8 O8      -6.2632   6.2000   6.3353   O.co2     1 RES1  -1.0000
     9 C9      -5.5117   4.2763   8.2910   C.3       1 RES1   0.0000
    10 C10     -5.2440   3.4082   9.4980   C.3       1 RES1   0.0000
    11 O11     -4.3197   2.3967   9.0739   O.3       1 RES1   0.0000
    12 C12     -5.0029   1.1138   8.9312   C.3       1 RES1   0.0000
    13 C13     -5.7560   0.7680  10.2323   C.2       1 RES1   0.0000
    14 O14     -5.2589   1.2119  11.3007   O.co2     1 RES1   0.0000
    15 O15     -6.8125   0.1119  10.1574   O.co2     1 RES1  -1.0000
    16 C16     -4.0504  -0.0018   8.5420   C.3       1 RES1   0.0000
    17 C17     -3.5560   0.1112   7.0913   C.3       1 RES1   0.0000
    18 C18     -4.7089   0.3044   6.1009   C.3       1 RES1   0.0000
    19 O19     -5.4227  -0.9140   5.8589   O.3       1 RES1   0.0000
    20 C20     -5.6427   1.4247   6.5842   C.3       1 RES1   0.0000
    21 C21     -6.8982   1.5987   5.7280   C.3       1 RES1   0.0000
    22 O22     -7.4403   2.8873   5.9906   O.3       1 RES1   0.0000
    23 C23     -7.9682   0.5462   6.0568   C.3       1 RES1   0.0000
    24 O24     -9.1118   0.7279   5.1961   O.3       1 RES1   0.0000
    25 O25     -6.0564   1.2143   7.9342   O.3       1 RES1   0.0000
    26 C26     -4.7407   4.2375  10.6581   C.3       1 RES1   0.0000
    27 O27     -3.4263   4.7711  10.4430   O.3       1 RES1   0.0000
    28 C28     -5.7882   5.3079  10.9263   C.3       1 RES1   0.0000
    29 C29     -5.5029   6.2538  12.1021   C.3       1 RES1   0.0000
    30 O30     -5.2622   5.5091  13.2970   O.3       1 RES1   0.0000
    31 C31     -6.6781   7.2126  12.3637   C.3       1 RES1   0.0000
    32 O32     -7.8648   6.4731  12.7038   O.3       1 RES1   0.0000
    33 O33     -5.9302   6.1302   9.7745   O.3       1 RES1   0.0000
@<TRIPOS>BOND
     1     1     2    1
     2     2     3    2
     3     3     4    1
     4     5     4    1
     5     5     6    1
     6     6     7    2
     7     6     8    1
     8     5     9    1
     9     9    10    1
    10    10    11    1
    11    12    11    1
    12    12    13    1
    13    13    14    2
    14    13    15    1
    15    12    16    1
    16    16    17    1
    17    17    18    1
    18    18    19    1
    19    18    20    1
    20    20    21    1
    21    21    22    1
    22    21    23    1
    23    23    24    1
    24    20    25    1
    25    10    26    1
    26    26    27    1
    27    26    28    1
    28    28    29    1
    29    29    30    1
    30    29    31    1
    31    31    32    1
    32    28    33    1
    33    33     5    1
    34    25    12    1
@<TRIPOS>SUBSTRUCTURE
     1 RES1        1 GROUP             0 ****  ****    0  
@<TRIPOS>MOLECULE
ligand_18
    33    34     1     0     0
SMALL
USER_CHARGES
****
Generated from the CSD

@<TRIPOS>ATOM
     1 C1     -10.4540   7.0746  10.1954   C.2       1 RES1   0.0000
     2 C2      -9.1793   6.5293  10.0854   C.2       1 RES1   0.0000
     3 C3      -8.8980   5.6458   9.0381   C.2       1 RES1   0.0000
     4 O4      -7.7300   4.9920   8.7460   O.3       1 RES1   0.0000
     5 C5      -6.8676   4.1771   9.5898   C.3       1 RES1   0.0000
     6 C6      -6.3659   4.9497  10.8288   C.2       1 RES1   0.0000
     7 O7      -6.2427   4.3429  11.9316   O.co2     1 RES1   0.0000
     8 O8      -6.0971   6.1512  10.6541   O.co2     1 RES1  -1.0000
     9 C9      -5.7388   3.6991   8.6878   C.3       1 RES1   0.0000
    10 C10     -6.1486   2.5954   7.7414   C.3       1 RES1   0.0000
    11 O11     -4.9538   2.1706   7.0711   O.3       1 RES1   0.0000
    12 C12     -4.9848   2.5830   5.6704   C.3       1 RES1   0.0000
    13 C13     -6.2712   2.0648   4.9948   C.2       1 RES1   0.0000
    14 O14     -7.1966   2.9041   4.8369   O.co2     1 RES1   0.0000
    15 O15     -6.3139   0.8784   4.6169   O.co2     1 RES1  -1.0000
    16 C16     -3.7517   2.1275   4.9120   C.3       1 RES1   0.0000
    17 C17     -2.4844   2.9011   5.3087   C.3       1 RES1   0.0000
    18 C18     -2.6983   4.4178   5.2737   C.3       1 RES1   0.0000
    19 O19     -2.7035   4.9317   3.9363   O.3       1 RES1   0.0000
    20 C20     -3.9813   4.7913   6.0320   C.3       1 RES1   0.0000
    21 C21     -4.3499   6.2727   5.9361   C.3       1 RES1   0.0000
    22 O22     -3.2436   7.0371   6.4001   O.3       1 RES1   0.0000
    23 C23     -5.5735   6.6173   6.7991   C.3       1 RES1   0.0000
    24 O24     -5.9478   7.9945   6.5870   O.3       1 RES1   0.0000
    25 O25     -5.0988   4.0294   5.5754   O.3       1 RES1   0.0000
    26 C26     -6.8524   1.4817   8.4839   C.3       1 RES1   0.0000
    27 O27     -5.9827   0.7465   9.3566   O.3       1 RES1   0.0000
    28 C28     -8.0380   2.1076   9.2034   C.3       1 RES1   0.0000
    29 C29     -8.9307   1.1448  10.0001   C.3       1 RES1   0.0000
    30 O30    -10.1230   1.8052  10.4277   O.3       1 RES1   0.0000
    31 C31     -8.2128   0.5974  11.2466   C.3       1 RES1   0.0000
    32 O32     -7.8403   1.6737  12.1260   O.3       1 RES1   0.0000
    33 O33     -7.5698   3.0805  10.1291   O.3       1 RES1   0.0000
@<TRIPOS>BOND
     1     1     2    1
     2     2     3    2
     3     3     4    1
     4     5     4    1
     5     5     6    1
     6     6     7    2
     7     6     8    1
     8     5     9    1
     9     9    10    1
    10    10    11    1
    11    12    11    1
    12    12    13    1
    13    13    14    2
    14    13    15    1
    15    12    16    1
    16    16    17    1
    17    17    18    1
    18    18    19    1
    19    18    20    1
    20    20    21    1
    21    21    22    1
    22    21    23    1
    23    23    24    1
    24    20    25    1
    25    10    26    1
    26    26    27    1
    27    26    28    1
    28    28    29    1
    29    29    30    1
    30    29    31    1
    31    31    32    1
    32    28    33    1
    33    33     5    1
    34    25    12    1
@<TRIPOS>SUBSTRUCTURE
     1 RES1        1 GROUP             0 ****  ****    0  
@<TRIPOS>MOLECULE
ligand_19
    33    34     1     0     0
SMALL
USER_CHARGES
****
Generated from the CSD

@<TRIPOS>ATOM
     1 C1     -10.4478   7.1080  10.1583   C.2       1 RES1   0.0000
     2 C2      -9.1745   6.5577  10.0574   C.2       1 RES1   0.0000
     3 C3      -8.8962   5.6539   9.0267   C.2       1 RES1   0.0000
     4 O4      -7.7300   4.9920   8.7460   O.3       1 RES1   0.0000
     5 C5      -6.3716   5.4943   8.5967   C.3       1 RES1   0.0000
     6 C6      -6.2716   6.5919   7.5155   C.2       1 RES1   0.0000
     7 O7      -6.1933   7.8044   7.8664   O.co2     1 RES1   0.0000
     8 O8      -6.2632   6.2000   6.3353   O.co2     1 RES1  -1.0000
     9 C9      -5.5117   4.2763   8.2910   C.3       1 RES1   0.0000
    10 C10     -5.2440   3.4082   9.4980   C.3       1 RES1   0.0000
    11 O11     -4.3197   2.3967   9.0739   O.3       1 RES1   0.0000
    12 C12     -4.9911   1.1029   8.9828   C.3       1 RES1   0.0000
    13 C13     -5.6914   0.7753  10.3178   C.2       1 RES1   0.0000
    14 O14     -5.1597   1.2454  11.3579   O.co2     1 RES1   0.0000
    15 O15     -6.7427   0.1072  10.2952   O.co2     1 RES1  -1.0000
    16 C16     -4.0393  -0.0090   8.5817   C.3       1 RES1   0.0000
    17 C17     -3.5999   0.0796   7.1117   C.3       1 RES1   0.0000
    18 C18     -4.7909   0.2380   6.1609   C.3       1 RES1   0.0000
    19 O19     -5.4973  -0.9938   5.9704   O.3       1 RES1   0.0000
    20 C20     -5.7206   1.3568   6.6553   C.3       1 RES1   0.0000
    21 C21     -7.0089   1.4976   5.8427   C.3       1 RES1   0.0000
    22 O22     -6.6552   1.6926   4.4788   O.3       1 RES1   0.0000
    23 C23     -7.8496   2.6987   6.3023   C.3       1 RES1   0.0000
    24 O24     -9.1044   2.7168   5.5904   O.3       1 RES1   0.0000
    25 O25     -6.0817   1.1697   8.0237   O.3       1 RES1   0.0000
    26 C26     -4.7407   4.2375  10.6581   C.3       1 RES1   0.0000
    27 O27     -3.4263   4.7711  10.4430   O.3       1 RES1   0.0000
    28 C28     -5.7882   5.3079  10.9263   C.3       1 RES1   0.0000
    29 C29     -5.5029   6.2538  12.1021   C.3       1 RES1   0.0000
    30 O30     -6.6529   7.0486  12.3959   O.3       1 RES1   0.0000
    31 C31     -4.3288   7.2025  11.8019   C.3       1 RES1   0.0000
    32 O32     -4.6203   8.0153  10.6508   O.3       1 RES1   0.0000
    33 O33     -5.9302   6.1302   9.7745   O.3       1 RES1   0.0000
@<TRIPOS>BOND
     1     1     2    1
     2     2     3    2
     3     3     4    1
     4     5     4    1
     5     5     6    1
     6     6     7    2
     7     6     8    1
     8     5     9    1
     9     9    10    1
    10    10    11    1
    11    12    11    1
    12    12    13    1
    13    13    14    2
    14    13    15    1
    15    12    16    1
    16    16    17    1
    17    17    18    1
    18    18    19    1
    19    18    20    1
    20    20    21    1
    21    21    22    1
    22    21    23    1
    23    23    24    1
    24    20    25    1
    25    10    26    1
    26    26    27    1
    27    26    28    1
    28    28    29    1
    29    29    30    1
    30    29    31    1
    31    31    32    1
    32    28    33    1
    33    33     5    1
    34    25    12    1
@<TRIPOS>SUBSTRUCTURE
     1 RES1        1 GROUP             0 ****  ****    0  
@<TRIPOS>MOLECULE
ligand_20
    33    34     1     0     0
SMALL
USER_CHARGES
****
Generated from the CSD

@<TRIPOS>ATOM
     1 C1     -10.4799   7.1590  10.0112   C.2       1 RES1   0.0000
     2 C2      -9.2021   6.6125   9.9562   C.2       1 RES1   0.0000
     3 C3      -8.9038   5.6597   8.9765   C.2       1 RES1   0.0000
     4 O4      -7.7300   4.9920   8.7460   O.3       1 RES1   0.0000
     5 C5      -6.3716   5.4943   8.5967   C.3       1 RES1   0.0000
     6 C6      -6.2716   6.5919   7.5155   C.2       1 RES1   0.0000
     7 O7      -7.3200   7.1909   7.1393   O.co2     1 RES1   0.0000
     8 O8      -5.1316   6.8303   7.0799   O.co2     1 RES1  -1.0000
     9 C9      -5.5117   4.2763   8.2910   C.3       1 RES1   0.0000
    10 C10     -5.2440   3.4082   9.4980   C.3       1 RES1   0.0000
    11 O11     -4.3197   2.3967   9.0739   O.3       1 RES1   0.0000
    12 C12     -4.7133   1.0952   9.6069   C.3       1 RES1   0.0000
    13 C13     -4.8325   1.1669  11.1432   C.2       1 RES1   0.0000
    14 O14     -5.9903   1.3419  11.6064   O.co2     1 RES1   0.0000
    15 O15     -3.8054   1.0160  11.8321   O.co2     1 RES1  -1.0000
    16 C16     -3.7590  -0.0077   9.1871   C.3       1 RES1   0.0000
    17 C17     -3.8789  -0.3692   7.6982   C.3       1 RES1   0.0000
    18 C18     -5.3306  -0.6247   7.2804   C.3       1 RES1   0.0000
    19 O19     -5.8028  -1.9031   7.7225   O.3       1 RES1   0.0000
    20 C20     -6.2339   0.5168   7.7718   C.3       1 RES1   0.0000
    21 C21     -7.7240   0.2822   7.5183   C.3       1 RES1   0.0000
    22 O22     -7.9053   0.0362   6.1290   O.3       1 RES1   0.0000
    23 C23     -8.5724   1.5020   7.9095   C.3       1 RES1   0.0000
    24 O24     -8.1258   2.6620   7.1771   O.3       1 RES1   0.0000
    25 O25     -6.0578   0.7587   9.1676   O.3       1 RES1   0.0000
    26 C26     -4.7407   4.2375  10.6581   C.3       1 RES1   0.0000
    27 O27     -3.4263   4.7711  10.4430   O.3       1 RES1   0.0000
    28 C28     -5.7882   5.3079  10.9263   C.3       1 RES1   0.0000
    29 C29     -5.5029   6.2538  12.1021   C.3       1 RES1   0.0000
    30 O30     -5.3514   5.5141  13.3146   O.3       1 RES1   0.0000
    31 C31     -6.6362   7.2757  12.3027   C.3       1 RES1   0.0000
    32 O32     -6.2803   8.2283  13.3209   O.3       1 RES1   0.0000
    33 O33     -5.9302   6.1302   9.7745   O.3       1 RES1   0.0000
@<TRIPOS>BOND
     1     1     2    1
     2     2     3    2
     3     3     4    1
     4     5     4    1
     5     5     6    1
     6     6     7    2
     7     6     8    1
     8     5     9    1
     9     9    10    1
    10    10    11    1
    11    12    11    1
    12    12    13    1
    13    13    14    2
    14    13    15    1
    15    12    16    1
    16    16    17    1
    17    17    18    1
    18    18    19    1
    19    18    20    1
    20    20    21    1
    21    21    22    1
    22    21    23    1
    23    23    24    1
    24    20    25    1
    25    10    26    1
    26    26    27    1
    27    26    28    1
    28    28    29    1
    29    29    30    1
    30    29    31    1
    31    31    32    1
    32    28    33    1
    33    33     5    1
    34    25    12    1
@<TRIPOS>SUBSTRUCTURE
     1 RES1        1 GROUP             0 ****  ****    0  
@<TRIPOS>MOLECULE
ligand_21
    33    34     1     0     0
SMALL
USER_CHARGES
****
Generated from the CSD

@<TRIPOS>ATOM
     1 C1     -10.4891   7.2198   9.8783   C.2       1 RES1   0.0000
     2 C2      -9.2056   6.6851   9.8477   C.2       1 RES1   0.0000
     3 C3      -8.9088   5.6624   8.9407   C.2       1 RES1   0.0000
     4 O4      -7.7300   4.9920   8.7460   O.3       1 RES1   0.0000
     5 C5      -6.3716   5.4943   8.5967   C.3       1 RES1   0.0000
     6 C6      -6.2716   6.5919   7.5155   C.2       1 RES1   0.0000
     7 O7      -7.3200   7.1912   7.1396   O.co2     1 RES1   0.0000
     8 O8      -5.1316   6.8300   7.0796   O.co2     1 RES1  -1.0000
     9 C9      -5.5117   4.2763   8.2910   C.3       1 RES1   0.0000
    10 C10     -5.2440   3.4082   9.4980   C.3       1 RES1   0.0000
    11 O11     -4.3197   2.3967   9.0739   O.3       1 RES1   0.0000
    12 C12     -4.7275   1.0911   9.5857   C.3       1 RES1   0.0000
    13 C13     -4.8628   1.1438  11.1216   C.2       1 RES1   0.0000
    14 O14     -6.0247   1.3176  11.5746   O.co2     1 RES1   0.0000
    15 O15     -3.8436   0.9800  11.8192   O.co2     1 RES1  -1.0000
    16 C16     -3.7760  -0.0126   9.1619   C.3       1 RES1   0.0000
    17 C17     -3.8822  -0.3542   7.6673   C.3       1 RES1   0.0000
    18 C18     -5.3310  -0.5946   7.2307   C.3       1 RES1   0.0000
    19 O19     -5.8162  -1.8754   7.6512   O.3       1 RES1   0.0000
    20 C20     -6.2320   0.5465   7.7272   C.3       1 RES1   0.0000
    21 C21     -7.7208   0.3251   7.4548   C.3       1 RES1   0.0000
    22 O22     -7.8892   0.1025   6.0600   O.3       1 RES1   0.0000
    23 C23     -8.5659   1.5436   7.8571   C.3       1 RES1   0.0000
    24 O24     -9.9649   1.2558   7.6529   O.3       1 RES1   0.0000
    25 O25     -6.0694   0.7692   9.1279   O.3       1 RES1   0.0000
    26 C26     -4.7407   4.2375  10.6581   C.3       1 RES1   0.0000
    27 O27     -3.4263   4.7711  10.4430   O.3       1 RES1   0.0000
    28 C28     -5.7882   5.3079  10.9263   C.3       1 RES1   0.0000
    29 C29     -5.5029   6.2538  12.1021   C.3       1 RES1   0.0000
    30 O30     -5.2590   5.5090  13.2963   O.3       1 RES1   0.0000
    31 C31     -6.6795   7.2103  12.3659   C.3       1 RES1   0.0000
    32 O32     -7.8642   6.4684  12.7077   O.3       1 RES1   0.0000
    33 O33     -5.9302   6.1302   9.7745   O.3       1 RES1   0.0000
@<TRIPOS>BOND
     1     1     2    1
     2     2     3    2
     3     3     4    1
     4     5     4    1
     5     5     6    1
     6     6     7    2
     7     6     8    1
     8     5     9    1
     9     9    10    1
    10    10    11    1
    11    12    11    1
    12    12    13    1
    13    13    14    2
    14    13    15    1
    15    12    16    1
    16    16    17    1
    17    17    18    1
    18    18    19    1
    19    18    20    1
    20    20    21    1
    21    21    22    1
    22    21    23    1
    23    23    24    1
    24    20    25    1
    25    10    26    1
    26    26    27    1
    27    26    28    1
    28    28    29    1
    29    29    30    1
    30    29    31    1
    31    31    32    1
    32    28    33    1
    33    33     5    1
    34    25    12    1
@<TRIPOS>SUBSTRUCTURE
     1 RES1        1 GROUP             0 ****  ****    0  
@<TRIPOS>MOLECULE
ligand_22
    33    34     1     0     0
SMALL
USER_CHARGES
****
Generated from the CSD

@<TRIPOS>ATOM
     1 C1     -10.4390   7.0930  10.1970   C.2       1 RES1   0.0000
     2 C2      -9.1670   6.5420  10.0840   C.2       1 RES1   0.0000
     3 C3      -8.8940   5.6520   9.0400   C.2       1 RES1   0.0000
     4 O4      -7.7300   4.9920   8.7460   O.3       1 RES1   0.0000
     5 C5      -6.8676   4.1771   9.5898   C.3       1 RES1   0.0000
     6 C6      -6.3659   4.9497  10.8288   C.2       1 RES1   0.0000
     7 O7      -6.9015   4.7346  11.9541   O.co2     1 RES1   0.0000
     8 O8      -5.4328   5.7488  10.6361   O.co2     1 RES1  -1.0000
     9 C9      -5.7388   3.6991   8.6878   C.3       1 RES1   0.0000
    10 C10     -6.1486   2.5954   7.7414   C.3       1 RES1   0.0000
    11 O11     -4.9538   2.1706   7.0711   O.3       1 RES1   0.0000
    12 C12     -5.2134   1.9773   5.6469   C.3       1 RES1   0.0000
    13 C13     -6.3755   0.9817   5.4514   C.2       1 RES1   0.0000
    14 O14     -7.5142   1.4830   5.2572   O.co2     1 RES1   0.0000
    15 O15     -6.1271  -0.2391   5.4605   O.co2     1 RES1  -1.0000
    16 C16     -3.9757   1.5215   4.8961   C.3       1 RES1   0.0000
    17 C17     -2.9227   2.6310   4.7472   C.3       1 RES1   0.0000
    18 C18     -3.5249   3.9302   4.2023   C.3       1 RES1   0.0000
    19 O19     -3.7804   3.8580   2.7944   O.3       1 RES1   0.0000
    20 C20     -4.7892   4.3022   4.9920   C.3       1 RES1   0.0000
    21 C21     -5.5364   5.5139   4.4323   C.3       1 RES1   0.0000
    22 O22     -4.6259   6.6046   4.3632   O.3       1 RES1   0.0000
    23 C23     -6.7173   5.9237   5.3258   C.3       1 RES1   0.0000
    24 O24     -6.2442   6.2101   6.6584   O.3       1 RES1   0.0000
    25 O25     -5.7065   3.2101   5.0547   O.3       1 RES1   0.0000
    26 C26     -6.8524   1.4817   8.4839   C.3       1 RES1   0.0000
    27 O27     -5.9827   0.7465   9.3566   O.3       1 RES1   0.0000
    28 C28     -8.0380   2.1076   9.2034   C.3       1 RES1   0.0000
    29 C29     -8.9307   1.1448  10.0001   C.3       1 RES1   0.0000
    30 O30     -9.4519   0.1238   9.1478   O.3       1 RES1   0.0000
    31 C31    -10.1172   1.8739  10.6553   C.3       1 RES1   0.0000
    32 O32    -10.9221   2.5247   9.6556   O.3       1 RES1   0.0000
    33 O33     -7.5698   3.0805  10.1291   O.3       1 RES1   0.0000
@<TRIPOS>BOND
     1     1     2    1
     2     2     3    2
     3     3     4    1
     4     5     4    1
     5     5     6    1
     6     6     7    2
     7     6     8    1
     8     5     9    1
     9     9    10    1
    10    10    11    1
    11    12    11    1
    12    12    13    1
    13    13    14    2
    14    13    15    1
    15    12    16    1
    16    16    17    1
    17    17    18    1
    18    18    19    1
    19    18    20    1
    20    20    21    1
    21    21    22    1
    22    21    23    1
    23    23    24    1
    24    20    25    1
    25    10    26    1
    26    26    27    1
    27    26    28    1
    28    28    29    1
    29    29    30    1
    30    29    31    1
    31    31    32    1
    32    28    33    1
    33    33     5    1
    34    25    12    1
@<TRIPOS>SUBSTRUCTURE
     1 RES1        1 GROUP             0 ****  ****    0  
@<TRIPOS>MOLECULE
ligand_23
    33    34     1     0     0
SMALL
USER_CHARGES
****
Generated from the CSD

@<TRIPOS>ATOM
     1 C1     -10.4954   7.2224   9.8578   C.2       1 RES1   0.0000
     2 C2      -9.2118   6.6875   9.8356   C.2       1 RES1   0.0000
     3 C3      -8.9098   5.6629   8.9326   C.2       1 RES1   0.0000
     4 O4      -7.7300   4.9920   8.7460   O.3       1 RES1   0.0000
     5 C5      -6.3716   5.4943   8.5967   C.3       1 RES1   0.0000
     6 C6      -6.2716   6.5919   7.5155   C.2       1 RES1   0.0000
     7 O7      -6.1933   7.8044   7.8664   O.co2     1 RES1   0.0000
     8 O8      -6.2632   6.2000   6.3353   O.co2     1 RES1  -1.0000
     9 C9      -5.5117   4.2763   8.2910   C.3       1 RES1   0.0000
    10 C10     -5.2440   3.4082   9.4980   C.3       1 RES1   0.0000
    11 O11     -4.3197   2.3967   9.0739   O.3       1 RES1   0.0000
    12 C12     -4.7132   1.0952   9.6070   C.3       1 RES1   0.0000
    13 C13     -4.8326   1.1670  11.1433   C.2       1 RES1   0.0000
    14 O14     -5.9905   1.3416  11.6064   O.co2     1 RES1   0.0000
    15 O15     -3.8055   1.0167  11.8322   O.co2     1 RES1  -1.0000
    16 C16     -3.7589  -0.0077   9.1873   C.3       1 RES1   0.0000
    17 C17     -3.8785  -0.3693   7.6985   C.3       1 RES1   0.0000
    18 C18     -5.3302  -0.6250   7.2806   C.3       1 RES1   0.0000
    19 O19     -5.8023  -1.9033   7.7228   O.3       1 RES1   0.0000
    20 C20     -6.2337   0.5165   7.7718   C.3       1 RES1   0.0000
    21 C21     -7.7237   0.2818   7.5182   C.3       1 RES1   0.0000
    22 O22     -7.9048   0.0357   6.1289   O.3       1 RES1   0.0000
    23 C23     -8.5722   1.5014   7.9094   C.3       1 RES1   0.0000
    24 O24     -8.1254   2.6616   7.1772   O.3       1 RES1   0.0000
    25 O25     -6.0577   0.7585   9.1677   O.3       1 RES1   0.0000
    26 C26     -4.7407   4.2375  10.6581   C.3       1 RES1   0.0000
    27 O27     -3.4263   4.7711  10.4430   O.3       1 RES1   0.0000
    28 C28     -5.7882   5.3079  10.9263   C.3       1 RES1   0.0000
    29 C29     -5.5029   6.2538  12.1021   C.3       1 RES1   0.0000
    30 O30     -5.2622   5.5091  13.2970   O.3       1 RES1   0.0000
    31 C31     -6.6781   7.2127  12.3636   C.3       1 RES1   0.0000
    32 O32     -7.8647   6.4732  12.7039   O.3       1 RES1   0.0000
    33 O33     -5.9302   6.1302   9.7745   O.3       1 RES1   0.0000
@<TRIPOS>BOND
     1     1     2    1
     2     2     3    2
     3     3     4    1
     4     5     4    1
     5     5     6    1
     6     6     7    2
     7     6     8    1
     8     5     9    1
     9     9    10    1
    10    10    11    1
    11    12    11    1
    12    12    13    1
    13    13    14    2
    14    13    15    1
    15    12    16    1
    16    16    17    1
    17    17    18    1
    18    18    19    1
    19    18    20    1
    20    20    21    1
    21    21    22    1
    22    21    23    1
    23    23    24    1
    24    20    25    1
    25    10    26    1
    26    26    27    1
    27    26    28    1
    28    28    29    1
    29    29    30    1
    30    29    31    1
    31    31    32    1
    32    28    33    1
    33    33     5    1
    34    25    12    1
@<TRIPOS>SUBSTRUCTURE
     1 RES1        1 GROUP             0 ****  ****    0  
@<TRIPOS>MOLECULE
ligand_24
    33    34     1     0     0
SMALL
USER_CHARGES
****
Generated from the CSD

@<TRIPOS>ATOM
     1 C1     -10.4539   7.0748  10.1954   C.2       1 RES1   0.0000
     2 C2      -9.1792   6.5294  10.0854   C.2       1 RES1   0.0000
     3 C3      -8.8979   5.6459   9.0381   C.2       1 RES1   0.0000
     4 O4      -7.7300   4.9920   8.7460   O.3       1 RES1   0.0000
     5 C5      -6.8676   4.1771   9.5898   C.3       1 RES1   0.0000
     6 C6      -6.3659   4.9497  10.8288   C.2       1 RES1   0.0000
     7 O7      -6.2427   4.3429  11.9316   O.co2     1 RES1   0.0000
     8 O8      -6.0971   6.1512  10.6541   O.co2     1 RES1  -1.0000
     9 C9      -5.7388   3.6991   8.6878   C.3       1 RES1   0.0000
    10 C10     -6.1486   2.5954   7.7414   C.3       1 RES1   0.0000
    11 O11     -4.9538   2.1706   7.0711   O.3       1 RES1   0.0000
    12 C12     -5.2133   1.9774   5.6469   C.3       1 RES1   0.0000
    13 C13     -6.3754   0.9818   5.4513   C.2       1 RES1   0.0000
    14 O14     -7.5141   1.4830   5.2569   O.co2     1 RES1   0.0000
    15 O15     -6.1271  -0.2391   5.4605   O.co2     1 RES1  -1.0000
    16 C16     -3.9757   1.5217   4.8961   C.3       1 RES1   0.0000
    17 C17     -2.9227   2.6312   4.7473   C.3       1 RES1   0.0000
    18 C18     -3.5249   3.9304   4.2025   C.3       1 RES1   0.0000
    19 O19     -3.7804   3.8584   2.7945   O.3       1 RES1   0.0000
    20 C20     -4.7893   4.3024   4.9921   C.3       1 RES1   0.0000
    21 C21     -5.5364   5.5141   4.4325   C.3       1 RES1   0.0000
    22 O22     -4.6260   6.6048   4.3635   O.3       1 RES1   0.0000
    23 C23     -6.7172   5.9238   5.3261   C.3       1 RES1   0.0000
    24 O24     -6.2441   6.2103   6.6587   O.3       1 RES1   0.0000
    25 O25     -5.7065   3.2103   5.0548   O.3       1 RES1   0.0000
    26 C26     -6.8524   1.4817   8.4839   C.3       1 RES1   0.0000
    27 O27     -5.9827   0.7465   9.3566   O.3       1 RES1   0.0000
    28 C28     -8.0380   2.1076   9.2034   C.3       1 RES1   0.0000
    29 C29     -8.9307   1.1448  10.0001   C.3       1 RES1   0.0000
    30 O30     -9.4519   0.1238   9.1478   O.3       1 RES1   0.0000
    31 C31    -10.1172   1.8739  10.6553   C.3       1 RES1   0.0000
    32 O32    -10.8537   0.9750  11.5039   O.3       1 RES1   0.0000
    33 O33     -7.5698   3.0805  10.1291   O.3       1 RES1   0.0000
@<TRIPOS>BOND
     1     1     2    1
     2     2     3    2
     3     3     4    1
     4     5     4    1
     5     5     6    1
     6     6     7    2
     7     6     8    1
     8     5     9    1
     9     9    10    1
    10    10    11    1
    11    12    11    1
    12    12    13    1
    13    13    14    2
    14    13    15    1
    15    12    16    1
    16    16    17    1
    17    17    18    1
    18    18    19    1
    19    18    20    1
    20    20    21    1
    21    21    22    1
    22    21    23    1
    23    23    24    1
    24    20    25    1
    25    10    26    1
    26    26    27    1
    27    26    28    1
    28    28    29    1
    29    29    30    1
    30    29    31    1
    31    31    32    1
    32    28    33    1
    33    33     5    1
    34    25    12    1
@<TRIPOS>SUBSTRUCTURE
     1 RES1        1 GROUP             0 ****  ****    0  
@<TRIPOS>MOLECULE
ligand_25
    33    34     1     0     0
SMALL
USER_CHARGES
****
Generated from the CSD

@<TRIPOS>ATOM
     1 C1     -10.4538   7.0749  10.1954   C.2       1 RES1   0.0000
     2 C2      -9.1791   6.5295  10.0854   C.2       1 RES1   0.0000
     3 C3      -8.8979   5.6459   9.0381   C.2       1 RES1   0.0000
     4 O4      -7.7300   4.9920   8.7460   O.3       1 RES1   0.0000
     5 C5      -6.8676   4.1771   9.5898   C.3       1 RES1   0.0000
     6 C6      -6.3659   4.9497  10.8288   C.2       1 RES1   0.0000
     7 O7      -6.2426   4.3429  11.9316   O.co2     1 RES1   0.0000
     8 O8      -6.0971   6.1512  10.6541   O.co2     1 RES1  -1.0000
     9 C9      -5.7388   3.6991   8.6878   C.3       1 RES1   0.0000
    10 C10     -6.1486   2.5954   7.7414   C.3       1 RES1   0.0000
    11 O11     -4.9538   2.1706   7.0711   O.3       1 RES1   0.0000
    12 C12     -5.2071   2.0015   5.6427   C.3       1 RES1   0.0000
    13 C13     -6.3739   1.0160   5.4255   C.2       1 RES1   0.0000
    14 O14     -7.5083   1.5269   5.2314   O.co2     1 RES1   0.0000
    15 O15     -6.1330  -0.2064   5.4184   O.co2     1 RES1  -1.0000
    16 C16     -3.9682   1.5505   4.8910   C.3       1 RES1   0.0000
    17 C17     -2.9081   2.6560   4.7652   C.3       1 RES1   0.0000
    18 C18     -3.4999   3.9672   4.2380   C.3       1 RES1   0.0000
    19 O19     -3.7486   3.9190   2.8279   O.3       1 RES1   0.0000
    20 C20     -4.7662   4.3340   5.0271   C.3       1 RES1   0.0000
    21 C21     -5.5035   5.5588   4.4830   C.3       1 RES1   0.0000
    22 O22     -4.5875   6.6463   4.4402   O.3       1 RES1   0.0000
    23 C23     -6.6894   5.9583   5.3743   C.3       1 RES1   0.0000
    24 O24     -7.3954   7.0669   4.7790   O.3       1 RES1   0.0000
    25 O25     -5.6900   3.2465   5.0677   O.3       1 RES1   0.0000
    26 C26     -6.8524   1.4817   8.4839   C.3       1 RES1   0.0000
    27 O27     -5.9827   0.7465   9.3566   O.3       1 RES1   0.0000
    28 C28     -8.0380   2.1076   9.2034   C.3       1 RES1   0.0000
    29 C29     -8.9307   1.1448  10.0001   C.3       1 RES1   0.0000
    30 O30     -9.4519   0.1238   9.1478   O.3       1 RES1   0.0000
    31 C31    -10.1172   1.8739  10.6553   C.3       1 RES1   0.0000
    32 O32    -10.9221   2.5247   9.6556   O.3       1 RES1   0.0000
    33 O33     -7.5698   3.0805  10.1291   O.3       1 RES1   0.0000
@<TRIPOS>BOND
     1     1     2    1
     2     2     3    2
     3     3     4    1
     4     5     4    1
     5     5     6    1
     6     6     7    2
     7     6     8    1
     8     5     9    1
     9     9    10    1
    10    10    11    1
    11    12    11    1
    12    12    13    1
    13    13    14    2
    14    13    15    1
    15    12    16    1
    16    16    17    1
    17    17    18    1
    18    18    19    1
    19    18    20    1
    20    20    21    1
    21    21    22    1
    22    21    23    1
    23    23    24    1
    24    20    25    1
    25    10    26    1
    26    26    27    1
    27    26    28    1
    28    28    29    1
    29    29    30    1
    30    29    31    1
    31    31    32    1
    32    28    33    1
    33    33     5    1
    34    25    12    1
@<TRIPOS>SUBSTRUCTURE
     1 RES1        1 GROUP             0 ****  ****    0  
@<TRIPOS>MOLECULE
ligand_26
    33    34     1     0     0
SMALL
USER_CHARGES
****
Generated from the CSD

@<TRIPOS>ATOM
     1 C1     -10.5118   7.1840   9.8926   C.2       1 RES1   0.0000
     2 C2      -9.2324   6.6388   9.8811   C.2       1 RES1   0.0000
     3 C3      -8.9099   5.6629   8.9324   C.2       1 RES1   0.0000
     4 O4      -7.7300   4.9920   8.7460   O.3       1 RES1   0.0000
     5 C5      -6.3716   5.4943   8.5967   C.3       1 RES1   0.0000
     6 C6      -6.2716   6.5919   7.5155   C.2       1 RES1   0.0000
     7 O7      -7.1531   6.6551   6.6108   O.co2     1 RES1   0.0000
     8 O8      -5.3085   7.3724   7.6138   O.co2     1 RES1  -1.0000
     9 C9      -5.5117   4.2763   8.2910   C.3       1 RES1   0.0000
    10 C10     -5.2440   3.4082   9.4980   C.3       1 RES1   0.0000
    11 O11     -4.3197   2.3967   9.0739   O.3       1 RES1   0.0000
    12 C12     -4.9823   1.0965   9.0173   C.3       1 RES1   0.0000
    13 C13     -5.6413   0.7791  10.3756   C.2       1 RES1   0.0000
    14 O14     -6.8865   0.9521  10.4466   O.co2     1 RES1   0.0000
    15 O15     -4.9289   0.3442  11.3006   O.co2     1 RES1  -1.0000
    16 C16     -4.0330  -0.0123   8.6020   C.3       1 RES1   0.0000
    17 C17     -3.6367   0.0623   7.1190   C.3       1 RES1   0.0000
    18 C18     -4.8556   0.1996   6.2011   C.3       1 RES1   0.0000
    19 O19     -5.5567  -1.0401   6.0453   O.3       1 RES1   0.0000
    20 C20     -5.7804   1.3166   6.7089   C.3       1 RES1   0.0000
    21 C21     -7.0925   1.4371   5.9321   C.3       1 RES1   0.0000
    22 O22     -6.7797   1.6207   4.5567   O.3       1 RES1   0.0000
    23 C23     -7.9309   2.6354   6.4030   C.3       1 RES1   0.0000
    24 O24     -9.2025   2.6391   5.7213   O.3       1 RES1   0.0000
    25 O25     -6.1005   1.1429   8.0892   O.3       1 RES1   0.0000
    26 C26     -4.7407   4.2375  10.6581   C.3       1 RES1   0.0000
    27 O27     -3.4263   4.7711  10.4430   O.3       1 RES1   0.0000
    28 C28     -5.7882   5.3079  10.9263   C.3       1 RES1   0.0000
    29 C29     -5.5029   6.2538  12.1021   C.3       1 RES1   0.0000
    30 O30     -5.3541   5.5143  13.3151   O.3       1 RES1   0.0000
    31 C31     -6.6348   7.2776  12.3009   C.3       1 RES1   0.0000
    32 O32     -6.6416   8.2351  11.2266   O.3       1 RES1   0.0000
    33 O33     -5.9302   6.1302   9.7745   O.3       1 RES1   0.0000
@<TRIPOS>BOND
     1     1     2    1
     2     2     3    2
     3     3     4    1
     4     5     4    1
     5     5     6    1
     6     6     7    2
     7     6     8    1
     8     5     9    1
     9     9    10    1
    10    10    11    1
    11    12    11    1
    12    12    13    1
    13    13    14    2
    14    13    15    1
    15    12    16    1
    16    16    17    1
    17    17    18    1
    18    18    19    1
    19    18    20    1
    20    20    21    1
    21    21    22    1
    22    21    23    1
    23    23    24    1
    24    20    25    1
    25    10    26    1
    26    26    27    1
    27    26    28    1
    28    28    29    1
    29    29    30    1
    30    29    31    1
    31    31    32    1
    32    28    33    1
    33    33     5    1
    34    25    12    1
@<TRIPOS>SUBSTRUCTURE
     1 RES1        1 GROUP             0 ****  ****    0  
@<TRIPOS>MOLECULE
ligand_27
    33    34     1     0     0
SMALL
USER_CHARGES
****
Generated from the CSD

@<TRIPOS>ATOM
     1 C1     -10.4390   7.0930  10.1970   C.2       1 RES1   0.0000
     2 C2      -9.1670   6.5420  10.0840   C.2       1 RES1   0.0000
     3 C3      -8.8940   5.6520   9.0400   C.2       1 RES1   0.0000
     4 O4      -7.7300   4.9920   8.7460   O.3       1 RES1   0.0000
     5 C5      -6.8676   4.1771   9.5898   C.3       1 RES1   0.0000
     6 C6      -6.3659   4.9497  10.8288   C.2       1 RES1   0.0000
     7 O7      -6.9015   4.7346  11.9541   O.co2     1 RES1   0.0000
     8 O8      -5.4328   5.7488  10.6361   O.co2     1 RES1  -1.0000
     9 C9      -5.7388   3.6991   8.6878   C.3       1 RES1   0.0000
    10 C10     -6.1486   2.5954   7.7414   C.3       1 RES1   0.0000
    11 O11     -4.9538   2.1706   7.0711   O.3       1 RES1   0.0000
    12 C12     -4.9686   2.6140   5.6796   C.3       1 RES1   0.0000
    13 C13     -6.2635   2.1407   4.9875   C.2       1 RES1   0.0000
    14 O14     -6.7632   1.0656   5.4117   O.co2     1 RES1   0.0000
    15 O15     -6.7562   2.8489   4.0886   O.co2     1 RES1  -1.0000
    16 C16     -3.7429   2.1463   4.9167   C.3       1 RES1   0.0000
    17 C17     -2.4599   2.8814   5.3354   C.3       1 RES1   0.0000
    18 C18     -2.6383   4.4031   5.3327   C.3       1 RES1   0.0000
    19 O19     -2.6253   4.9459   4.0068   O.3       1 RES1   0.0000
    20 C20     -3.9158   4.7899   6.0935   C.3       1 RES1   0.0000
    21 C21     -4.2495   6.2812   6.0285   C.3       1 RES1   0.0000
    22 O22     -3.1269   7.0094   6.5112   O.3       1 RES1   0.0000
    23 C23     -5.4671   6.6359   6.8958   C.3       1 RES1   0.0000
    24 O24     -5.8131   8.0238   6.7067   O.3       1 RES1   0.0000
    25 O25     -5.0486   4.0643   5.6158   O.3       1 RES1   0.0000
    26 C26     -6.8524   1.4817   8.4839   C.3       1 RES1   0.0000
    27 O27     -5.9827   0.7465   9.3566   O.3       1 RES1   0.0000
    28 C28     -8.0380   2.1076   9.2034   C.3       1 RES1   0.0000
    29 C29     -8.9307   1.1448  10.0001   C.3       1 RES1   0.0000
    30 O30     -9.4141   0.0971   9.1580   O.3       1 RES1   0.0000
    31 C31    -10.1447   1.8649  10.6137   C.3       1 RES1   0.0000
    32 O32     -9.7224   2.7673  11.6521   O.3       1 RES1   0.0000
    33 O33     -7.5698   3.0805  10.1291   O.3       1 RES1   0.0000
@<TRIPOS>BOND
     1     1     2    1
     2     2     3    2
     3     3     4    1
     4     5     4    1
     5     5     6    1
     6     6     7    2
     7     6     8    1
     8     5     9    1
     9     9    10    1
    10    10    11    1
    11    12    11    1
    12    12    13    1
    13    13    14    2
    14    13    15    1
    15    12    16    1
    16    16    17    1
    17    17    18    1
    18    18    19    1
    19    18    20    1
    20    20    21    1
    21    21    22    1
    22    21    23    1
    23    23    24    1
    24    20    25    1
    25    10    26    1
    26    26    27    1
    27    26    28    1
    28    28    29    1
    29    29    30    1
    30    29    31    1
    31    31    32    1
    32    28    33    1
    33    33     5    1
    34    25    12    1
@<TRIPOS>SUBSTRUCTURE
     1 RES1        1 GROUP             0 ****  ****    0  
@<TRIPOS>MOLECULE
ligand_28
    33    34     1     0     0
SMALL
USER_CHARGES
****
Generated from the CSD

@<TRIPOS>ATOM
     1 C1     -10.4881   7.1713   9.9715   C.2       1 RES1   0.0000
     2 C2      -9.2093   6.6262   9.9288   C.2       1 RES1   0.0000
     3 C3      -8.9058   5.6609   8.9630   C.2       1 RES1   0.0000
     4 O4      -7.7300   4.9920   8.7460   O.3       1 RES1   0.0000
     5 C5      -6.3716   5.4943   8.5967   C.3       1 RES1   0.0000
     6 C6      -6.2716   6.5919   7.5155   C.2       1 RES1   0.0000
     7 O7      -7.1531   6.6551   6.6108   O.co2     1 RES1   0.0000
     8 O8      -5.3085   7.3724   7.6138   O.co2     1 RES1  -1.0000
     9 C9      -5.5117   4.2763   8.2910   C.3       1 RES1   0.0000
    10 C10     -5.2440   3.4082   9.4980   C.3       1 RES1   0.0000
    11 O11     -4.3197   2.3967   9.0739   O.3       1 RES1   0.0000
    12 C12     -4.9601   1.0843   9.0949   C.3       1 RES1   0.0000
    13 C13     -5.5435   0.8028  10.4949   C.2       1 RES1   0.0000
    14 O14     -6.7853   0.9656  10.6260   O.co2     1 RES1   0.0000
    15 O15     -4.7789   0.4039  11.3941   O.co2     1 RES1  -1.0000
    16 C16     -4.0125  -0.0220   8.6689   C.3       1 RES1   0.0000
    17 C17     -3.6931   0.0083   7.1659   C.3       1 RES1   0.0000
    18 C18     -4.9592   0.0934   6.3074   C.3       1 RES1   0.0000
    19 O19     -5.6441  -1.1626   6.2294   O.3       1 RES1   0.0000
    20 C20     -5.8777   1.2114   6.8242   C.3       1 RES1   0.0000
    21 C21     -7.2295   1.2830   6.1119   C.3       1 RES1   0.0000
    22 O22     -6.9907   1.3626   4.7119   O.3       1 RES1   0.0000
    23 C23     -8.0381   2.5183   6.5371   C.3       1 RES1   0.0000
    24 O24     -8.4215   2.3971   7.9227   O.3       1 RES1   0.0000
    25 O25     -6.1244   1.0799   8.2241   O.3       1 RES1   0.0000
    26 C26     -4.7407   4.2375  10.6581   C.3       1 RES1   0.0000
    27 O27     -3.4263   4.7711  10.4430   O.3       1 RES1   0.0000
    28 C28     -5.7882   5.3079  10.9263   C.3       1 RES1   0.0000
    29 C29     -5.5029   6.2538  12.1021   C.3       1 RES1   0.0000
    30 O30     -5.3470   5.5137  13.3139   O.3       1 RES1   0.0000
    31 C31     -6.6383   7.2727  12.3057   C.3       1 RES1   0.0000
    32 O32     -6.2819   8.2268  13.3223   O.3       1 RES1   0.0000
    33 O33     -5.9302   6.1302   9.7745   O.3       1 RES1   0.0000
@<TRIPOS>BOND
     1     1     2    1
     2     2     3    2
     3     3     4    1
     4     5     4    1
     5     5     6    1
     6     6     7    2
     7     6     8    1
     8     5     9    1
     9     9    10    1
    10    10    11    1
    11    12    11    1
    12    12    13    1
    13    13    14    2
    14    13    15    1
    15    12    16    1
    16    16    17    1
    17    17    18    1
    18    18    19    1
    19    18    20    1
    20    20    21    1
    21    21    22    1
    22    21    23    1
    23    23    24    1
    24    20    25    1
    25    10    26    1
    26    26    27    1
    27    26    28    1
    28    28    29    1
    29    29    30    1
    30    29    31    1
    31    31    32    1
    32    28    33    1
    33    33     5    1
    34    25    12    1
@<TRIPOS>SUBSTRUCTURE
     1 RES1        1 GROUP             0 ****  ****    0  
@<TRIPOS>MOLECULE
ligand_29
    33    34     1     0     0
SMALL
USER_CHARGES
****
Generated from the CSD

@<TRIPOS>ATOM
     1 C1     -10.5945   6.8933  10.1737   C.2       1 RES1   0.0000
     2 C2      -9.2957   6.4022  10.0942   C.2       1 RES1   0.0000
     3 C3      -8.9344   5.5858   9.0174   C.2       1 RES1   0.0000
     4 O4      -7.7300   4.9920   8.7460   O.3       1 RES1   0.0000
     5 C5      -6.8676   4.1771   9.5898   C.3       1 RES1   0.0000
     6 C6      -6.3659   4.9497  10.8288   C.2       1 RES1   0.0000
     7 O7      -6.2976   6.2119  10.7884   O.co2     1 RES1   0.0000
     8 O8      -6.0631   4.2610  11.8190   O.co2     1 RES1  -1.0000
     9 C9      -5.7388   3.6991   8.6878   C.3       1 RES1   0.0000
    10 C10     -6.1486   2.5954   7.7414   C.3       1 RES1   0.0000
    11 O11     -4.9538   2.1706   7.0711   O.3       1 RES1   0.0000
    12 C12     -5.0201   2.5117   5.6526   C.3       1 RES1   0.0000
    13 C13     -6.2956   1.9136   5.0238   C.2       1 RES1   0.0000
    14 O14     -7.2570   2.7075   4.8477   O.co2     1 RES1   0.0000
    15 O15     -6.2962   0.7112   4.6976   O.co2     1 RES1  -1.0000
    16 C16     -3.7816   2.0650   4.8978   C.3       1 RES1   0.0000
    17 C17     -2.5389   2.9035   5.2357   C.3       1 RES1   0.0000
    18 C18     -2.8102   4.4077   5.1300   C.3       1 RES1   0.0000
    19 O19     -2.8537   4.8542   3.7693   O.3       1 RES1   0.0000
    20 C20     -4.0955   4.7707   5.8895   C.3       1 RES1   0.0000
    21 C21     -4.5209   6.2310   5.7272   C.3       1 RES1   0.0000
    22 O22     -3.4169   7.0572   6.0764   O.3       1 RES1   0.0000
    23 C23     -5.7032   6.5898   6.6404   C.3       1 RES1   0.0000
    24 O24     -6.8815   5.8727   6.2174   O.3       1 RES1   0.0000
    25 O25     -5.1899   3.9464   5.4888   O.3       1 RES1   0.0000
    26 C26     -6.8524   1.4817   8.4839   C.3       1 RES1   0.0000
    27 O27     -5.9827   0.7465   9.3566   O.3       1 RES1   0.0000
    28 C28     -8.0380   2.1076   9.2034   C.3       1 RES1   0.0000
    29 C29     -8.9307   1.1448  10.0001   C.3       1 RES1   0.0000
    30 O30     -9.4519   0.1238   9.1478   O.3       1 RES1   0.0000
    31 C31    -10.1172   1.8739  10.6553   C.3       1 RES1   0.0000
    32 O32    -10.8537   0.9750  11.5039   O.3       1 RES1   0.0000
    33 O33     -7.5698   3.0805  10.1291   O.3       1 RES1   0.0000
@<TRIPOS>BOND
     1     1     2    1
     2     2     3    2
     3     3     4    1
     4     5     4    1
     5     5     6    1
     6     6     7    2
     7     6     8    1
     8     5     9    1
     9     9    10    1
    10    10    11    1
    11    12    11    1
    12    12    13    1
    13    13    14    2
    14    13    15    1
    15    12    16    1
    16    16    17    1
    17    17    18    1
    18    18    19    1
    19    18    20    1
    20    20    21    1
    21    21    22    1
    22    21    23    1
    23    23    24    1
    24    20    25    1
    25    10    26    1
    26    26    27    1
    27    26    28    1
    28    28    29    1
    29    29    30    1
    30    29    31    1
    31    31    32    1
    32    28    33    1
    33    33     5    1
    34    25    12    1
@<TRIPOS>SUBSTRUCTURE
     1 RES1        1 GROUP             0 ****  ****    0  
@<TRIPOS>MOLECULE
ligand_30
    33    34     1     0     0
SMALL
USER_CHARGES
****
Generated from the CSD

@<TRIPOS>ATOM
     1 C1     -10.4449   7.1034  10.1707   C.2       1 RES1   0.0000
     2 C2      -9.1720   6.5529  10.0659   C.2       1 RES1   0.0000
     3 C3      -8.8955   5.6533   9.0310   C.2       1 RES1   0.0000
     4 O4      -7.7300   4.9920   8.7460   O.3       1 RES1   0.0000
     5 C5      -6.3716   5.4943   8.5967   C.3       1 RES1   0.0000
     6 C6      -6.2716   6.5919   7.5155   C.2       1 RES1   0.0000
     7 O7      -6.1933   7.8044   7.8664   O.co2     1 RES1   0.0000
     8 O8      -6.2632   6.2000   6.3353   O.co2     1 RES1  -1.0000
     9 C9      -5.5117   4.2763   8.2910   C.3       1 RES1   0.0000
    10 C10     -5.2440   3.4082   9.4980   C.3       1 RES1   0.0000
    11 O11     -4.3197   2.3967   9.0739   O.3       1 RES1   0.0000
    12 C12     -4.9974   1.1084   8.9562   C.3       1 RES1   0.0000
    13 C13     -5.7228   0.7698  10.2749   C.2       1 RES1   0.0000
    14 O14     -6.9684   0.9536  10.2907   O.co2     1 RES1   0.0000
    15 O15     -5.0589   0.3092  11.2232   O.co2     1 RES1  -1.0000
    16 C16     -4.0456  -0.0049   8.5586   C.3       1 RES1   0.0000
    17 C17     -3.5803   0.0979   7.0975   C.3       1 RES1   0.0000
    18 C18     -4.7535   0.2749   6.1282   C.3       1 RES1   0.0000
    19 O19     -5.4641  -0.9501   5.9111   O.3       1 RES1   0.0000
    20 C20     -5.6848   1.3938   6.6194   C.3       1 RES1   0.0000
    21 C21     -6.9578   1.5522   5.7864   C.3       1 RES1   0.0000
    22 O22     -7.5036   2.8393   6.0489   O.3       1 RES1   0.0000
    23 C23     -8.0140   0.4953   6.1446   C.3       1 RES1   0.0000
    24 O24     -9.1755   0.6624   5.3052   O.3       1 RES1   0.0000
    25 O25     -6.0707   1.1932   7.9791   O.3       1 RES1   0.0000
    26 C26     -4.7407   4.2375  10.6581   C.3       1 RES1   0.0000
    27 O27     -3.4263   4.7711  10.4430   O.3       1 RES1   0.0000
    28 C28     -5.7882   5.3079  10.9263   C.3       1 RES1   0.0000
    29 C29     -5.5029   6.2538  12.1021   C.3       1 RES1   0.0000
    30 O30     -6.6755   6.9938  12.4455   O.3       1 RES1   0.0000
    31 C31     -4.3832   7.2566  11.7716   C.3       1 RES1   0.0000
    32 O32     -4.0793   8.0682  12.9203   O.3       1 RES1   0.0000
    33 O33     -5.9302   6.1302   9.7745   O.3       1 RES1   0.0000
@<TRIPOS>BOND
     1     1     2    1
     2     2     3    2
     3     3     4    1
     4     5     4    1
     5     5     6    1
     6     6     7    2
     7     6     8    1
     8     5     9    1
     9     9    10    1
    10    10    11    1
    11    12    11    1
    12    12    13    1
    13    13    14    2
    14    13    15    1
    15    12    16    1
    16    16    17    1
    17    17    18    1
    18    18    19    1
    19    18    20    1
    20    20    21    1
    21    21    22    1
    22    21    23    1
    23    23    24    1
    24    20    25    1
    25    10    26    1
    26    26    27    1
    27    26    28    1
    28    28    29    1
    29    29    30    1
    30    29    31    1
    31    31    32    1
    32    28    33    1
    33    33     5    1
    34    25    12    1
@<TRIPOS>SUBSTRUCTURE
     1 RES1        1 GROUP             0 ****  ****    0  
@<TRIPOS>MOLECULE
ligand_31
    33    34     1     0     0
SMALL
USER_CHARGES
****
Generated from the CSD

@<TRIPOS>ATOM
     1 C1     -10.4390   7.0930  10.1970   C.2       1 RES1   0.0000
     2 C2      -9.1670   6.5420  10.0840   C.2       1 RES1   0.0000
     3 C3      -8.8940   5.6520   9.0400   C.2       1 RES1   0.0000
     4 O4      -7.7300   4.9920   8.7460   O.3       1 RES1   0.0000
     5 C5      -6.8676   4.1771   9.5898   C.3       1 RES1   0.0000
     6 C6      -6.3659   4.9497  10.8288   C.2       1 RES1   0.0000
     7 O7      -6.9015   4.7346  11.9541   O.co2     1 RES1   0.0000
     8 O8      -5.4328   5.7488  10.6361   O.co2     1 RES1  -1.0000
     9 C9      -5.7388   3.6991   8.6878   C.3       1 RES1   0.0000
    10 C10     -6.1486   2.5954   7.7414   C.3       1 RES1   0.0000
    11 O11     -4.9538   2.1706   7.0711   O.3       1 RES1   0.0000
    12 C12     -4.9558   2.6377   5.6873   C.3       1 RES1   0.0000
    13 C13     -6.2531   2.1928   4.9808   C.2       1 RES1   0.0000
    14 O14     -7.1434   3.0723   4.8414   O.co2     1 RES1   0.0000
    15 O15     -6.3370   1.0222   4.5627   O.co2     1 RES1  -1.0000
    16 C16     -3.7322   2.1675   4.9225   C.3       1 RES1   0.0000
    17 C17     -2.4422   2.8790   5.3601   C.3       1 RES1   0.0000
    18 C18     -2.6013   4.4026   5.3824   C.3       1 RES1   0.0000
    19 O19     -2.5746   4.9677   4.0661   O.3       1 RES1   0.0000
    20 C20     -3.8777   4.7926   6.1435   C.3       1 RES1   0.0000
    21 C21     -4.1922   6.2890   6.1022   C.3       1 RES1   0.0000
    22 O22     -5.1022   6.5813   7.1557   O.3       1 RES1   0.0000
    23 C23     -4.8405   6.7034   4.7723   C.3       1 RES1   0.0000
    24 O24     -5.0789   8.1264   4.7683   O.3       1 RES1   0.0000
    25 O25     -5.0171   4.0898   5.6478   O.3       1 RES1   0.0000
    26 C26     -6.8524   1.4817   8.4839   C.3       1 RES1   0.0000
    27 O27     -5.9827   0.7465   9.3566   O.3       1 RES1   0.0000
    28 C28     -8.0380   2.1076   9.2034   C.3       1 RES1   0.0000
    29 C29     -8.9307   1.1448  10.0001   C.3       1 RES1   0.0000
    30 O30    -10.1568   1.7822  10.3621   O.3       1 RES1   0.0000
    31 C31     -8.2433   0.6611  11.2894   C.3       1 RES1   0.0000
    32 O32     -9.0670  -0.3052  11.9667   O.3       1 RES1   0.0000
    33 O33     -7.5698   3.0805  10.1291   O.3       1 RES1   0.0000
@<TRIPOS>BOND
     1     1     2    1
     2     2     3    2
     3     3     4    1
     4     5     4    1
     5     5     6    1
     6     6     7    2
     7     6     8    1
     8     5     9    1
     9     9    10    1
    10    10    11    1
    11    12    11    1
    12    12    13    1
    13    13    14    2
    14    13    15    1
    15    12    16    1
    16    16    17    1
    17    17    18    1
    18    18    19    1
    19    18    20    1
    20    20    21    1
    21    21    22    1
    22    21    23    1
    23    23    24    1
    24    20    25    1
    25    10    26    1
    26    26    27    1
    27    26    28    1
    28    28    29    1
    29    29    30    1
    30    29    31    1
    31    31    32    1
    32    28    33    1
    33    33     5    1
    34    25    12    1
@<TRIPOS>SUBSTRUCTURE
     1 RES1        1 GROUP             0 ****  ****    0  
@<TRIPOS>MOLECULE
ligand_32
    33    34     1     0     0
SMALL
USER_CHARGES
****
Generated from the CSD

@<TRIPOS>ATOM
     1 C1     -10.4390   7.0930  10.1970   C.2       1 RES1   0.0000
     2 C2      -9.1670   6.5420  10.0840   C.2       1 RES1   0.0000
     3 C3      -8.8940   5.6520   9.0400   C.2       1 RES1   0.0000
     4 O4      -7.7300   4.9920   8.7460   O.3       1 RES1   0.0000
     5 C5      -6.8676   4.1771   9.5898   C.3       1 RES1   0.0000
     6 C6      -6.3659   4.9497  10.8288   C.2       1 RES1   0.0000
     7 O7      -6.9015   4.7345  11.9541   O.co2     1 RES1   0.0000
     8 O8      -5.4328   5.7488  10.6361   O.co2     1 RES1  -1.0000
     9 C9      -5.7388   3.6991   8.6878   C.3       1 RES1   0.0000
    10 C10     -6.1486   2.5954   7.7414   C.3       1 RES1   0.0000
    11 O11     -4.9538   2.1706   7.0711   O.3       1 RES1   0.0000
    12 C12     -4.9938   2.5654   5.6656   C.3       1 RES1   0.0000
    13 C13     -6.2993   2.0660   5.0128   C.2       1 RES1   0.0000
    14 O14     -6.8776   2.8690   4.2341   O.co2     1 RES1   0.0000
    15 O15     -6.6867   0.9073   5.2569   O.co2     1 RES1  -1.0000
    16 C16     -3.7803   2.0738   4.8981   C.3       1 RES1   0.0000
    17 C17     -2.4921   2.8254   5.2687   C.3       1 RES1   0.0000
    18 C18     -2.6743   4.3457   5.2163   C.3       1 RES1   0.0000
    19 O19     -2.6855   4.8422   3.8724   O.3       1 RES1   0.0000
    20 C20     -3.9394   4.7563   5.9854   C.3       1 RES1   0.0000
    21 C21     -4.2778   6.2439   5.8745   C.3       1 RES1   0.0000
    22 O22     -3.1242   6.9908   6.2414   O.3       1 RES1   0.0000
    23 C23     -5.4308   6.6419   6.8087   C.3       1 RES1   0.0000
    24 O24     -6.6505   6.0031   6.3778   O.3       1 RES1   0.0000
    25 O25     -5.0784   4.0124   5.5528   O.3       1 RES1   0.0000
    26 C26     -6.8524   1.4817   8.4839   C.3       1 RES1   0.0000
    27 O27     -5.9827   0.7465   9.3566   O.3       1 RES1   0.0000
    28 C28     -8.0380   2.1076   9.2034   C.3       1 RES1   0.0000
    29 C29     -8.9307   1.1448  10.0001   C.3       1 RES1   0.0000
    30 O30     -9.4519   0.1238   9.1478   O.3       1 RES1   0.0000
    31 C31    -10.1172   1.8739  10.6553   C.3       1 RES1   0.0000
    32 O32    -10.9221   2.5247   9.6556   O.3       1 RES1   0.0000
    33 O33     -7.5698   3.0805  10.1291   O.3       1 RES1   0.0000
@<TRIPOS>BOND
     1     1     2    1
     2     2     3    2
     3     3     4    1
     4     5     4    1
     5     5     6    1
     6     6     7    2
     7     6     8    1
     8     5     9    1
     9     9    10    1
    10    10    11    1
    11    12    11    1
    12    12    13    1
    13    13    14    2
    14    13    15    1
    15    12    16    1
    16    16    17    1
    17    17    18    1
    18    18    19    1
    19    18    20    1
    20    20    21    1
    21    21    22    1
    22    21    23    1
    23    23    24    1
    24    20    25    1
    25    10    26    1
    26    26    27    1
    27    26    28    1
    28    28    29    1
    29    29    30    1
    30    29    31    1
    31    31    32    1
    32    28    33    1
    33    33     5    1
    34    25    12    1
@<TRIPOS>SUBSTRUCTURE
     1 RES1        1 GROUP             0 ****  ****    0  
@<TRIPOS>MOLECULE
ligand_33
    33    34     1     0     0
SMALL
USER_CHARGES
****
Generated from the CSD

@<TRIPOS>ATOM
     1 C1     -10.4891   7.2199   9.8783   C.2       1 RES1   0.0000
     2 C2      -9.2055   6.6852   9.8476   C.2       1 RES1   0.0000
     3 C3      -8.9088   5.6624   8.9407   C.2       1 RES1   0.0000
     4 O4      -7.7300   4.9920   8.7460   O.3       1 RES1   0.0000
     5 C5      -6.3716   5.4943   8.5967   C.3       1 RES1   0.0000
     6 C6      -6.2716   6.5919   7.5155   C.2       1 RES1   0.0000
     7 O7      -7.3200   7.1912   7.1396   O.co2     1 RES1   0.0000
     8 O8      -5.1316   6.8300   7.0796   O.co2     1 RES1  -1.0000
     9 C9      -5.5117   4.2763   8.2910   C.3       1 RES1   0.0000
    10 C10     -5.2440   3.4082   9.4980   C.3       1 RES1   0.0000
    11 O11     -4.3197   2.3967   9.0739   O.3       1 RES1   0.0000
    12 C12     -4.9811   1.0956   9.0221   C.3       1 RES1   0.0000
    13 C13     -5.6607   0.7936  10.3737   C.2       1 RES1   0.0000
    14 O14     -5.1095   1.2779  11.3970   O.co2     1 RES1   0.0000
    15 O15     -6.7155   0.1306  10.3795   O.co2     1 RES1  -1.0000
    16 C16     -4.0252  -0.0175   8.6341   C.3       1 RES1   0.0000
    17 C17     -3.6062   0.0404   7.1566   C.3       1 RES1   0.0000
    18 C18     -4.8110   0.1665   6.2186   C.3       1 RES1   0.0000
    19 O19     -5.5093  -1.0752   6.0664   O.3       1 RES1   0.0000
    20 C20     -5.7437   1.2889   6.6993   C.3       1 RES1   0.0000
    21 C21     -7.0439   1.3999   5.9012   C.3       1 RES1   0.0000
    22 O22     -6.7115   1.5019   4.5219   O.3       1 RES1   0.0000
    23 C23     -7.8568   2.6420   6.2974   C.3       1 RES1   0.0000
    24 O24     -8.3227   2.5071   7.6562   O.3       1 RES1   0.0000
    25 O25     -6.0849   1.1309   8.0765   O.3       1 RES1   0.0000
    26 C26     -4.7407   4.2375  10.6581   C.3       1 RES1   0.0000
    27 O27     -3.4263   4.7711  10.4430   O.3       1 RES1   0.0000
    28 C28     -5.7882   5.3079  10.9263   C.3       1 RES1   0.0000
    29 C29     -5.5029   6.2538  12.1021   C.3       1 RES1   0.0000
    30 O30     -5.2590   5.5090  13.2963   O.3       1 RES1   0.0000
    31 C31     -6.6795   7.2104  12.3658   C.3       1 RES1   0.0000
    32 O32     -7.8643   6.4685  12.7074   O.3       1 RES1   0.0000
    33 O33     -5.9302   6.1302   9.7745   O.3       1 RES1   0.0000
@<TRIPOS>BOND
     1     1     2    1
     2     2     3    2
     3     3     4    1
     4     5     4    1
     5     5     6    1
     6     6     7    2
     7     6     8    1
     8     5     9    1
     9     9    10    1
    10    10    11    1
    11    12    11    1
    12    12    13    1
    13    13    14    2
    14    13    15    1
    15    12    16    1
    16    16    17    1
    17    17    18    1
    18    18    19    1
    19    18    20    1
    20    20    21    1
    21    21    22    1
    22    21    23    1
    23    23    24    1
    24    20    25    1
    25    10    26    1
    26    26    27    1
    27    26    28    1
    28    28    29    1
    29    29    30    1
    30    29    31    1
    31    31    32    1
    32    28    33    1
    33    33     5    1
    34    25    12    1
@<TRIPOS>SUBSTRUCTURE
     1 RES1        1 GROUP             0 ****  ****    0  
@<TRIPOS>MOLECULE
ligand_34
    33    34     1     0     0
SMALL
USER_CHARGES
****
Generated from the CSD

@<TRIPOS>ATOM
     1 C1     -10.4384   7.0955  10.1945   C.2       1 RES1   0.0000
     2 C2      -9.1661   6.5451  10.0813   C.2       1 RES1   0.0000
     3 C3      -8.8941   5.6520   9.0397   C.2       1 RES1   0.0000
     4 O4      -7.7300   4.9920   8.7460   O.3       1 RES1   0.0000
     5 C5      -6.3716   5.4943   8.5967   C.3       1 RES1   0.0000
     6 C6      -6.2716   6.5919   7.5155   C.2       1 RES1   0.0000
     7 O7      -7.3201   7.1906   7.1390   O.co2     1 RES1   0.0000
     8 O8      -5.1315   6.8306   7.0802   O.co2     1 RES1  -1.0000
     9 C9      -5.5117   4.2763   8.2910   C.3       1 RES1   0.0000
    10 C10     -5.2440   3.4082   9.4980   C.3       1 RES1   0.0000
    11 O11     -4.3197   2.3967   9.0739   O.3       1 RES1   0.0000
    12 C12     -5.0029   1.1139   8.9310   C.3       1 RES1   0.0000
    13 C13     -5.7562   0.7680  10.2320   C.2       1 RES1   0.0000
    14 O14     -5.2593   1.2120  11.3005   O.co2     1 RES1   0.0000
    15 O15     -6.8127   0.1119  10.1569   O.co2     1 RES1  -1.0000
    16 C16     -4.0505  -0.0018   8.5419   C.3       1 RES1   0.0000
    17 C17     -3.5558   0.1113   7.0913   C.3       1 RES1   0.0000
    18 C18     -4.7086   0.3046   6.1008   C.3       1 RES1   0.0000
    19 O19     -5.4223  -0.9138   5.8585   O.3       1 RES1   0.0000
    20 C20     -5.6423   1.4249   6.5840   C.3       1 RES1   0.0000
    21 C21     -6.8978   1.5990   5.7276   C.3       1 RES1   0.0000
    22 O22     -7.4397   2.8877   5.9900   O.3       1 RES1   0.0000
    23 C23     -7.9679   0.5467   6.0563   C.3       1 RES1   0.0000
    24 O24     -9.1114   0.7285   5.1955   O.3       1 RES1   0.0000
    25 O25     -6.0562   1.2145   7.9339   O.3       1 RES1   0.0000
    26 C26     -4.7407   4.2375  10.6581   C.3       1 RES1   0.0000
    27 O27     -3.4263   4.7711  10.4430   O.3       1 RES1   0.0000
    28 C28     -5.7882   5.3079  10.9263   C.3       1 RES1   0.0000
    29 C29     -5.5029   6.2538  12.1021   C.3       1 RES1   0.0000
    30 O30     -6.6760   6.9924  12.4467   O.3       1 RES1   0.0000
    31 C31     -4.3846   7.2580  11.7708   C.3       1 RES1   0.0000
    32 O32     -4.0804   8.0695  12.9196   O.3       1 RES1   0.0000
    33 O33     -5.9302   6.1302   9.7745   O.3       1 RES1   0.0000
@<TRIPOS>BOND
     1     1     2    1
     2     2     3    2
     3     3     4    1
     4     5     4    1
     5     5     6    1
     6     6     7    2
     7     6     8    1
     8     5     9    1
     9     9    10    1
    10    10    11    1
    11    12    11    1
    12    12    13    1
    13    13    14    2
    14    13    15    1
    15    12    16    1
    16    16    17    1
    17    17    18    1
    18    18    19    1
    19    18    20    1
    20    20    21    1
    21    21    22    1
    22    21    23    1
    23    23    24    1
    24    20    25    1
    25    10    26    1
    26    26    27    1
    27    26    28    1
    28    28    29    1
    29    29    30    1
    30    29    31    1
    31    31    32    1
    32    28    33    1
    33    33     5    1
    34    25    12    1
@<TRIPOS>SUBSTRUCTURE
     1 RES1        1 GROUP             0 ****  ****    0  
@<TRIPOS>MOLECULE
ligand_35
    33    34     1     0     0
SMALL
USER_CHARGES
****
Generated from the CSD

@<TRIPOS>ATOM
     1 C1     -10.4642   7.0887  10.1555   C.2       1 RES1   0.0000
     2 C2      -9.1905   6.5376  10.0635   C.2       1 RES1   0.0000
     3 C3      -8.8989   5.6514   9.0213   C.2       1 RES1   0.0000
     4 O4      -7.7300   4.9920   8.7460   O.3       1 RES1   0.0000
     5 C5      -7.4344   3.5667   8.7160   C.3       1 RES1   0.0000
     6 C6      -7.7309   2.8814  10.0674   C.2       1 RES1   0.0000
     7 O7      -8.4871   3.4558  10.9027   O.co2     1 RES1   0.0000
     8 O8      -7.2001   1.7714  10.2475   O.co2     1 RES1  -1.0000
     9 C9      -5.9749   3.4558   8.2989   C.3       1 RES1   0.0000
    10 C10     -5.7467   3.7113   6.8277   C.3       1 RES1   0.0000
    11 O11     -4.3616   3.4349   6.5775   O.3       1 RES1   0.0000
    12 C12     -3.6389   4.6742   6.3044   C.3       1 RES1   0.0000
    13 C13     -4.3184   5.4393   5.1499   C.2       1 RES1   0.0000
    14 O14     -5.0437   6.4154   5.4769   O.co2     1 RES1   0.0000
    15 O15     -4.0916   5.0819   3.9782   O.co2     1 RES1  -1.0000
    16 C16     -2.1722   4.4272   6.0030   C.3       1 RES1   0.0000
    17 C17     -1.3676   4.0090   7.2438   C.3       1 RES1   0.0000
    18 C18     -1.5980   4.9539   8.4276   C.3       1 RES1   0.0000
    19 O19     -0.8932   6.1920   8.2754   O.3       1 RES1   0.0000
    20 C20     -3.1025   5.1782   8.6437   C.3       1 RES1   0.0000
    21 C21     -3.4271   6.2153   9.7202   C.3       1 RES1   0.0000
    22 O22     -2.7933   5.8147  10.9290   O.3       1 RES1   0.0000
    23 C23     -4.9380   6.3229   9.9773   C.3       1 RES1   0.0000
    24 O24     -5.1987   7.3889  10.9139   O.3       1 RES1   0.0000
    25 O25     -3.7497   5.5799   7.4364   O.3       1 RES1   0.0000
    26 C26     -6.6893   2.8832   5.9836   C.3       1 RES1   0.0000
    27 O27     -6.4072   1.4773   6.0354   O.3       1 RES1   0.0000
    28 C28     -8.1030   3.2299   6.4265   C.3       1 RES1   0.0000
    29 C29     -9.2402   2.5280   5.6697   C.3       1 RES1   0.0000
    30 O30     -9.1603   2.8101   4.2717   O.3       1 RES1   0.0000
    31 C31    -10.6243   2.9773   6.1710   C.3       1 RES1   0.0000
    32 O32    -11.6625   2.2045   5.5419   O.3       1 RES1   0.0000
    33 O33     -8.2652   2.8923   7.7986   O.3       1 RES1   0.0000
@<TRIPOS>BOND
     1     1     2    1
     2     2     3    2
     3     3     4    1
     4     5     4    1
     5     5     6    1
     6     6     7    2
     7     6     8    1
     8     5     9    1
     9     9    10    1
    10    10    11    1
    11    12    11    1
    12    12    13    1
    13    13    14    2
    14    13    15    1
    15    12    16    1
    16    16    17    1
    17    17    18    1
    18    18    19    1
    19    18    20    1
    20    20    21    1
    21    21    22    1
    22    21    23    1
    23    23    24    1
    24    20    25    1
    25    10    26    1
    26    26    27    1
    27    26    28    1
    28    28    29    1
    29    29    30    1
    30    29    31    1
    31    31    32    1
    32    28    33    1
    33    33     5    1
    34    25    12    1
@<TRIPOS>SUBSTRUCTURE
     1 RES1        1 GROUP             0 ****  ****    0  
@<TRIPOS>MOLECULE
ligand_36
    33    34     1     0     0
SMALL
USER_CHARGES
****
Generated from the CSD

@<TRIPOS>ATOM
     1 C1     -10.5468   7.0262  10.0825   C.2       1 RES1   0.0000
     2 C2      -9.2766   6.4602  10.0536   C.2       1 RES1   0.0000
     3 C3      -8.9098   5.6501   8.9740   C.2       1 RES1   0.0000
     4 O4      -7.7300   4.9920   8.7460   O.3       1 RES1   0.0000
     5 C5      -7.4344   3.5667   8.7160   C.3       1 RES1   0.0000
     6 C6      -5.9408   3.2868   8.4431   C.2       1 RES1   0.0000
     7 O7      -5.1848   2.9583   9.4023   O.co2     1 RES1   0.0000
     8 O8      -5.5696   3.3950   7.2612   O.co2     1 RES1  -1.0000
     9 C9      -8.3548   2.9757   7.6577   C.3       1 RES1   0.0000
    10 C10     -9.7901   2.8458   8.1105   C.3       1 RES1   0.0000
    11 O11    -10.4854   2.1547   7.0635   O.3       1 RES1   0.0000
    12 C12    -11.3997   3.0633   6.3769   C.3       1 RES1   0.0000
    13 C13    -12.3500   3.7266   7.3951   C.2       1 RES1   0.0000
    14 O14    -12.0755   4.9099   7.7272   O.co2     1 RES1   0.0000
    15 O15    -13.3376   3.0843   7.8004   O.co2     1 RES1  -1.0000
    16 C16    -12.1814   2.3667   5.2783   C.3       1 RES1   0.0000
    17 C17    -11.3157   2.0128   4.0589   C.3       1 RES1   0.0000
    18 C18    -10.4985   3.2102   3.5630   C.3       1 RES1   0.0000
    19 O19    -11.3013   4.1477   2.8355   O.3       1 RES1   0.0000
    20 C20     -9.7675   3.8780   4.7379   C.3       1 RES1   0.0000
    21 C21     -9.0326   5.1653   4.3605   C.3       1 RES1   0.0000
    22 O22     -8.1297   4.8679   3.3023   O.3       1 RES1   0.0000
    23 C23     -8.2278   5.7340   5.5393   C.3       1 RES1   0.0000
    24 O24     -7.6478   7.0017   5.1675   O.3       1 RES1   0.0000
    25 O25    -10.6637   4.1802   5.8071   O.3       1 RES1   0.0000
    26 C26     -9.8721   2.1502   9.4508   C.3       1 RES1   0.0000
    27 O27     -9.5070   0.7640   9.3913   O.3       1 RES1   0.0000
    28 C28     -9.0215   2.9554  10.4219   C.3       1 RES1   0.0000
    29 C29     -8.9882   2.4499  11.8717   C.3       1 RES1   0.0000
    30 O30    -10.3082   2.4009  12.4154   O.3       1 RES1   0.0000
    31 C31     -8.1315   3.3555  12.7743   C.3       1 RES1   0.0000
    32 O32     -8.0071   2.7829  14.0886   O.3       1 RES1   0.0000
    33 O33     -7.6729   2.9695   9.9703   O.3       1 RES1   0.0000
@<TRIPOS>BOND
     1     1     2    1
     2     2     3    2
     3     3     4    1
     4     5     4    1
     5     5     6    1
     6     6     7    2
     7     6     8    1
     8     5     9    1
     9     9    10    1
    10    10    11    1
    11    12    11    1
    12    12    13    1
    13    13    14    2
    14    13    15    1
    15    12    16    1
    16    16    17    1
    17    17    18    1
    18    18    19    1
    19    18    20    1
    20    20    21    1
    21    21    22    1
    22    21    23    1
    23    23    24    1
    24    20    25    1
    25    10    26    1
    26    26    27    1
    27    26    28    1
    28    28    29    1
    29    29    30    1
    30    29    31    1
    31    31    32    1
    32    28    33    1
    33    33     5    1
    34    25    12    1
@<TRIPOS>SUBSTRUCTURE
     1 RES1        1 GROUP             0 ****  ****    0  
@<TRIPOS>MOLECULE
ligand_37
    33    34     1     0     0
SMALL
USER_CHARGES
****
Generated from the CSD

@<TRIPOS>ATOM
     1 C1     -10.4449   7.1033  10.1707   C.2       1 RES1   0.0000
     2 C2      -9.1720   6.5528  10.0659   C.2       1 RES1   0.0000
     3 C3      -8.8955   5.6533   9.0310   C.2       1 RES1   0.0000
     4 O4      -7.7300   4.9920   8.7460   O.3       1 RES1   0.0000
     5 C5      -6.3716   5.4943   8.5967   C.3       1 RES1   0.0000
     6 C6      -6.2716   6.5919   7.5155   C.2       1 RES1   0.0000
     7 O7      -6.1933   7.8044   7.8664   O.co2     1 RES1   0.0000
     8 O8      -6.2632   6.2000   6.3353   O.co2     1 RES1  -1.0000
     9 C9      -5.5117   4.2763   8.2910   C.3       1 RES1   0.0000
    10 C10     -5.2440   3.4082   9.4980   C.3       1 RES1   0.0000
    11 O11     -4.3197   2.3967   9.0739   O.3       1 RES1   0.0000
    12 C12     -4.7275   1.0911   9.5857   C.3       1 RES1   0.0000
    13 C13     -4.8630   1.1438  11.1215   C.2       1 RES1   0.0000
    14 O14     -6.0249   1.3180  11.5744   O.co2     1 RES1   0.0000
    15 O15     -3.8440   0.9796  11.8193   O.co2     1 RES1  -1.0000
    16 C16     -3.7759  -0.0126   9.1620   C.3       1 RES1   0.0000
    17 C17     -3.8819  -0.3542   7.6674   C.3       1 RES1   0.0000
    18 C18     -5.3306  -0.5946   7.2306   C.3       1 RES1   0.0000
    19 O19     -5.8159  -1.8754   7.6510   O.3       1 RES1   0.0000
    20 C20     -6.2318   0.5465   7.7270   C.3       1 RES1   0.0000
    21 C21     -7.7205   0.3250   7.4544   C.3       1 RES1   0.0000
    22 O22     -7.8887   0.1020   6.0596   O.3       1 RES1   0.0000
    23 C23     -8.5656   1.5436   7.8561   C.3       1 RES1   0.0000
    24 O24     -9.9646   1.2558   7.6518   O.3       1 RES1   0.0000
    25 O25     -6.0693   0.7692   9.1277   O.3       1 RES1   0.0000
    26 C26     -4.7407   4.2375  10.6581   C.3       1 RES1   0.0000
    27 O27     -3.4263   4.7711  10.4430   O.3       1 RES1   0.0000
    28 C28     -5.7882   5.3079  10.9263   C.3       1 RES1   0.0000
    29 C29     -5.5029   6.2538  12.1021   C.3       1 RES1   0.0000
    30 O30     -6.6755   6.9939  12.4454   O.3       1 RES1   0.0000
    31 C31     -4.3831   7.2565  11.7716   C.3       1 RES1   0.0000
    32 O32     -4.0795   8.0685  12.9202   O.3       1 RES1   0.0000
    33 O33     -5.9302   6.1302   9.7745   O.3       1 RES1   0.0000
@<TRIPOS>BOND
     1     1     2    1
     2     2     3    2
     3     3     4    1
     4     5     4    1
     5     5     6    1
     6     6     7    2
     7     6     8    1
     8     5     9    1
     9     9    10    1
    10    10    11    1
    11    12    11    1
    12    12    13    1
    13    13    14    2
    14    13    15    1
    15    12    16    1
    16    16    17    1
    17    17    18    1
    18    18    19    1
    19    18    20    1
    20    20    21    1
    21    21    22    1
    22    21    23    1
    23    23    24    1
    24    20    25    1
    25    10    26    1
    26    26    27    1
    27    26    28    1
    28    28    29    1
    29    29    30    1
    30    29    31    1
    31    31    32    1
    32    28    33    1
    33    33     5    1
    34    25    12    1
@<TRIPOS>SUBSTRUCTURE
     1 RES1        1 GROUP             0 ****  ****    0  
@<TRIPOS>MOLECULE
ligand_38
    33    34     1     0     0
SMALL
USER_CHARGES
****
Generated from the CSD

@<TRIPOS>ATOM
     1 C1     -10.4390   7.0930  10.1970   C.2       1 RES1   0.0000
     2 C2      -9.1670   6.5420  10.0840   C.2       1 RES1   0.0000
     3 C3      -8.8940   5.6520   9.0400   C.2       1 RES1   0.0000
     4 O4      -7.7300   4.9920   8.7460   O.3       1 RES1   0.0000
     5 C5      -6.8676   4.1771   9.5898   C.3       1 RES1   0.0000
     6 C6      -6.3659   4.9497  10.8288   C.2       1 RES1   0.0000
     7 O7      -6.9015   4.7346  11.9541   O.co2     1 RES1   0.0000
     8 O8      -5.4328   5.7488  10.6361   O.co2     1 RES1  -1.0000
     9 C9      -5.7388   3.6991   8.6878   C.3       1 RES1   0.0000
    10 C10     -6.1486   2.5954   7.7414   C.3       1 RES1   0.0000
    11 O11     -4.9538   2.1706   7.0711   O.3       1 RES1   0.0000
    12 C12     -5.2070   2.0017   5.6427   C.3       1 RES1   0.0000
    13 C13     -6.3739   1.0163   5.4252   C.2       1 RES1   0.0000
    14 O14     -7.5082   1.5274   5.2311   O.co2     1 RES1   0.0000
    15 O15     -6.1330  -0.2060   5.4180   O.co2     1 RES1  -1.0000
    16 C16     -3.9682   1.5509   4.8910   C.3       1 RES1   0.0000
    17 C17     -2.9080   2.6563   4.7654   C.3       1 RES1   0.0000
    18 C18     -3.4997   3.9676   4.2384   C.3       1 RES1   0.0000
    19 O19     -3.7483   3.9197   2.8283   O.3       1 RES1   0.0000
    20 C20     -4.7660   4.3344   5.0275   C.3       1 RES1   0.0000
    21 C21     -5.5032   5.5593   4.4836   C.3       1 RES1   0.0000
    22 O22     -4.5872   6.6468   4.4412   O.3       1 RES1   0.0000
    23 C23     -6.6893   5.9586   5.3748   C.3       1 RES1   0.0000
    24 O24     -7.3952   7.0673   4.7796   O.3       1 RES1   0.0000
    25 O25     -5.6899   3.2469   5.0679   O.3       1 RES1   0.0000
    26 C26     -6.8524   1.4817   8.4839   C.3       1 RES1   0.0000
    27 O27     -5.9827   0.7465   9.3566   O.3       1 RES1   0.0000
    28 C28     -8.0380   2.1076   9.2034   C.3       1 RES1   0.0000
    29 C29     -8.9307   1.1448  10.0001   C.3       1 RES1   0.0000
    30 O30    -10.1565   1.7824  10.3625   O.3       1 RES1   0.0000
    31 C31     -8.2431   0.6606  11.2891   C.3       1 RES1   0.0000
    32 O32     -9.0670  -0.3052  11.9666   O.3       1 RES1   0.0000
    33 O33     -7.5698   3.0805  10.1291   O.3       1 RES1   0.0000
@<TRIPOS>BOND
     1     1     2    1
     2     2     3    2
     3     3     4    1
     4     5     4    1
     5     5     6    1
     6     6     7    2
     7     6     8    1
     8     5     9    1
     9     9    10    1
    10    10    11    1
    11    12    11    1
    12    12    13    1
    13    13    14    2
    14    13    15    1
    15    12    16    1
    16    16    17    1
    17    17    18    1
    18    18    19    1
    19    18    20    1
    20    20    21    1
    21    21    22    1
    22    21    23    1
    23    23    24    1
    24    20    25    1
    25    10    26    1
    26    26    27    1
    27    26    28    1
    28    28    29    1
    29    29    30    1
    30    29    31    1
    31    31    32    1
    32    28    33    1
    33    33     5    1
    34    25    12    1
@<TRIPOS>SUBSTRUCTURE
     1 RES1        1 GROUP             0 ****  ****    0  
@<TRIPOS>MOLECULE
ligand_39
    33    34     1     0     0
SMALL
USER_CHARGES
****
Generated from the CSD

@<TRIPOS>ATOM
     1 C1     -10.4881   7.1712   9.9718   C.2       1 RES1   0.0000
     2 C2      -9.2093   6.6260   9.9290   C.2       1 RES1   0.0000
     3 C3      -8.9058   5.6609   8.9631   C.2       1 RES1   0.0000
     4 O4      -7.7300   4.9920   8.7460   O.3       1 RES1   0.0000
     5 C5      -6.3716   5.4943   8.5967   C.3       1 RES1   0.0000
     6 C6      -6.2716   6.5919   7.5155   C.2       1 RES1   0.0000
     7 O7      -6.1933   7.8044   7.8664   O.co2     1 RES1   0.0000
     8 O8      -6.2632   6.2000   6.3353   O.co2     1 RES1  -1.0000
     9 C9      -5.5117   4.2763   8.2910   C.3       1 RES1   0.0000
    10 C10     -5.2440   3.4082   9.4980   C.3       1 RES1   0.0000
    11 O11     -4.3197   2.3967   9.0739   O.3       1 RES1   0.0000
    12 C12     -4.7275   1.0911   9.5857   C.3       1 RES1   0.0000
    13 C13     -4.8628   1.1438  11.1216   C.2       1 RES1   0.0000
    14 O14     -6.0246   1.3181  11.5746   O.co2     1 RES1   0.0000
    15 O15     -3.8437   0.9796  11.8193   O.co2     1 RES1  -1.0000
    16 C16     -3.7760  -0.0126   9.1619   C.3       1 RES1   0.0000
    17 C17     -3.8822  -0.3542   7.6673   C.3       1 RES1   0.0000
    18 C18     -5.3310  -0.5946   7.2307   C.3       1 RES1   0.0000
    19 O19     -5.8162  -1.8754   7.6512   O.3       1 RES1   0.0000
    20 C20     -6.2320   0.5465   7.7272   C.3       1 RES1   0.0000
    21 C21     -7.7208   0.3251   7.4548   C.3       1 RES1   0.0000
    22 O22     -8.3823   1.5805   7.5535   O.3       1 RES1   0.0000
    23 C23     -8.3538  -0.6379   8.4709   C.3       1 RES1   0.0000
    24 O24     -9.7445  -0.8441   8.1468   O.3       1 RES1   0.0000
    25 O25     -6.0694   0.7692   9.1279   O.3       1 RES1   0.0000
    26 C26     -4.7407   4.2375  10.6581   C.3       1 RES1   0.0000
    27 O27     -3.4263   4.7711  10.4430   O.3       1 RES1   0.0000
    28 C28     -5.7882   5.3079  10.9263   C.3       1 RES1   0.0000
    29 C29     -5.5029   6.2538  12.1021   C.3       1 RES1   0.0000
    30 O30     -5.3471   5.5137  13.3139   O.3       1 RES1   0.0000
    31 C31     -6.6383   7.2728  12.3056   C.3       1 RES1   0.0000
    32 O32     -6.2819   8.2269  13.3222   O.3       1 RES1   0.0000
    33 O33     -5.9302   6.1302   9.7745   O.3       1 RES1   0.0000
@<TRIPOS>BOND
     1     1     2    1
     2     2     3    2
     3     3     4    1
     4     5     4    1
     5     5     6    1
     6     6     7    2
     7     6     8    1
     8     5     9    1
     9     9    10    1
    10    10    11    1
    11    12    11    1
    12    12    13    1
    13    13    14    2
    14    13    15    1
    15    12    16    1
    16    16    17    1
    17    17    18    1
    18    18    19    1
    19    18    20    1
    20    20    21    1
    21    21    22    1
    22    21    23    1
    23    23    24    1
    24    20    25    1
    25    10    26    1
    26    26    27    1
    27    26    28    1
    28    28    29    1
    29    29    30    1
    30    29    31    1
    31    31    32    1
    32    28    33    1
    33    33     5    1
    34    25    12    1
@<TRIPOS>SUBSTRUCTURE
     1 RES1        1 GROUP             0 ****  ****    0  
@<TRIPOS>MOLECULE
ligand_40
    33    34     1     0     0
SMALL
USER_CHARGES
****
Generated from the CSD

@<TRIPOS>ATOM
     1 C1     -10.4390   7.0930  10.1970   C.2       1 RES1   0.0000
     2 C2      -9.1670   6.5420  10.0840   C.2       1 RES1   0.0000
     3 C3      -8.8940   5.6520   9.0400   C.2       1 RES1   0.0000
     4 O4      -7.7300   4.9920   8.7460   O.3       1 RES1   0.0000
     5 C5      -6.8676   4.1771   9.5898   C.3       1 RES1   0.0000
     6 C6      -6.3659   4.9497  10.8288   C.2       1 RES1   0.0000
     7 O7      -6.9015   4.7346  11.9541   O.co2     1 RES1   0.0000
     8 O8      -5.4328   5.7488  10.6361   O.co2     1 RES1  -1.0000
     9 C9      -5.7388   3.6991   8.6878   C.3       1 RES1   0.0000
    10 C10     -6.1486   2.5954   7.7414   C.3       1 RES1   0.0000
    11 O11     -4.9538   2.1706   7.0711   O.3       1 RES1   0.0000
    12 C12     -5.2070   2.0018   5.6427   C.3       1 RES1   0.0000
    13 C13     -6.3738   1.0163   5.4252   C.2       1 RES1   0.0000
    14 O14     -7.5082   1.5274   5.2312   O.co2     1 RES1   0.0000
    15 O15     -6.1329  -0.2060   5.4177   O.co2     1 RES1  -1.0000
    16 C16     -3.9681   1.5510   4.8909   C.3       1 RES1   0.0000
    17 C17     -2.9080   2.6565   4.7654   C.3       1 RES1   0.0000
    18 C18     -3.4997   3.9678   4.2385   C.3       1 RES1   0.0000
    19 O19     -3.7483   3.9199   2.8283   O.3       1 RES1   0.0000
    20 C20     -4.7660   4.3345   5.0276   C.3       1 RES1   0.0000
    21 C21     -5.5033   5.5594   4.4837   C.3       1 RES1   0.0000
    22 O22     -6.3679   6.0466   5.5028   O.3       1 RES1   0.0000
    23 C23     -6.3523   5.2179   3.2496   C.3       1 RES1   0.0000
    24 O24     -6.9929   6.4114   2.7528   O.3       1 RES1   0.0000
    25 O25     -5.6899   3.2469   5.0679   O.3       1 RES1   0.0000
    26 C26     -6.8524   1.4817   8.4839   C.3       1 RES1   0.0000
    27 O27     -5.9827   0.7465   9.3566   O.3       1 RES1   0.0000
    28 C28     -8.0380   2.1076   9.2034   C.3       1 RES1   0.0000
    29 C29     -8.9307   1.1448  10.0001   C.3       1 RES1   0.0000
    30 O30     -9.4519   0.1238   9.1478   O.3       1 RES1   0.0000
    31 C31    -10.1172   1.8739  10.6553   C.3       1 RES1   0.0000
    32 O32    -10.8537   0.9750  11.5039   O.3       1 RES1   0.0000
    33 O33     -7.5698   3.0805  10.1291   O.3       1 RES1   0.0000
@<TRIPOS>BOND
     1     1     2    1
     2     2     3    2
     3     3     4    1
     4     5     4    1
     5     5     6    1
     6     6     7    2
     7     6     8    1
     8     5     9    1
     9     9    10    1
    10    10    11    1
    11    12    11    1
    12    12    13    1
    13    13    14    2
    14    13    15    1
    15    12    16    1
    16    16    17    1
    17    17    18    1
    18    18    19    1
    19    18    20    1
    20    20    21    1
    21    21    22    1
    22    21    23    1
    23    23    24    1
    24    20    25    1
    25    10    26    1
    26    26    27    1
    27    26    28    1
    28    28    29    1
    29    29    30    1
    30    29    31    1
    31    31    32    1
    32    28    33    1
    33    33     5    1
    34    25    12    1
@<TRIPOS>SUBSTRUCTURE
     1 RES1        1 GROUP             0 ****  ****    0  
@<TRIPOS>MOLECULE
ligand_41
    33    34     1     0     0
SMALL
USER_CHARGES
****
Generated from the CSD

@<TRIPOS>ATOM
     1 C1     -10.5470   7.0263  10.0819   C.2       1 RES1   0.0000
     2 C2      -9.2769   6.4603  10.0533   C.2       1 RES1   0.0000
     3 C3      -8.9098   5.6501   8.9737   C.2       1 RES1   0.0000
     4 O4      -7.7300   4.9920   8.7460   O.3       1 RES1   0.0000
     5 C5      -7.4344   3.5667   8.7160   C.3       1 RES1   0.0000
     6 C6      -5.9408   3.2868   8.4431   C.2       1 RES1   0.0000
     7 O7      -5.0928   4.2073   8.6248   O.co2     1 RES1   0.0000
     8 O8      -5.6590   2.1372   8.0618   O.co2     1 RES1  -1.0000
     9 C9      -8.3548   2.9757   7.6577   C.3       1 RES1   0.0000
    10 C10     -9.7901   2.8458   8.1105   C.3       1 RES1   0.0000
    11 O11    -10.4854   2.1547   7.0635   O.3       1 RES1   0.0000
    12 C12    -11.3993   3.0634   6.3766   C.3       1 RES1   0.0000
    13 C13    -12.3493   3.7275   7.3946   C.2       1 RES1   0.0000
    14 O14    -12.0746   4.9109   7.7259   O.co2     1 RES1   0.0000
    15 O15    -13.3370   3.0856   7.8003   O.co2     1 RES1  -1.0000
    16 C16    -12.1814   2.3667   5.2783   C.3       1 RES1   0.0000
    17 C17    -11.3158   2.0121   4.0589   C.3       1 RES1   0.0000
    18 C18    -10.4981   3.2090   3.5626   C.3       1 RES1   0.0000
    19 O19    -11.3005   4.1465   2.8347   O.3       1 RES1   0.0000
    20 C20     -9.7668   3.8769   4.7372   C.3       1 RES1   0.0000
    21 C21     -9.0314   5.1638   4.3594   C.3       1 RES1   0.0000
    22 O22     -8.1288   4.8657   3.3012   O.3       1 RES1   0.0000
    23 C23     -8.2262   5.7324   5.5379   C.3       1 RES1   0.0000
    24 O24     -7.6458   6.9998   5.1658   O.3       1 RES1   0.0000
    25 O25    -10.6629   4.1799   5.8064   O.3       1 RES1   0.0000
    26 C26     -9.8721   2.1502   9.4508   C.3       1 RES1   0.0000
    27 O27     -9.5070   0.7640   9.3913   O.3       1 RES1   0.0000
    28 C28     -9.0215   2.9554  10.4219   C.3       1 RES1   0.0000
    29 C29     -8.9882   2.4499  11.8717   C.3       1 RES1   0.0000
    30 O30    -10.3082   2.4009  12.4154   O.3       1 RES1   0.0000
    31 C31     -8.1315   3.3555  12.7743   C.3       1 RES1   0.0000
    32 O32     -8.6435   4.7003  12.7690   O.3       1 RES1   0.0000
    33 O33     -7.6729   2.9695   9.9703   O.3       1 RES1   0.0000
@<TRIPOS>BOND
     1     1     2    1
     2     2     3    2
     3     3     4    1
     4     5     4    1
     5     5     6    1
     6     6     7    2
     7     6     8    1
     8     5     9    1
     9     9    10    1
    10    10    11    1
    11    12    11    1
    12    12    13    1
    13    13    14    2
    14    13    15    1
    15    12    16    1
    16    16    17    1
    17    17    18    1
    18    18    19    1
    19    18    20    1
    20    20    21    1
    21    21    22    1
    22    21    23    1
    23    23    24    1
    24    20    25    1
    25    10    26    1
    26    26    27    1
    27    26    28    1
    28    28    29    1
    29    29    30    1
    30    29    31    1
    31    31    32    1
    32    28    33    1
    33    33     5    1
    34    25    12    1
@<TRIPOS>SUBSTRUCTURE
     1 RES1        1 GROUP             0 ****  ****    0  
@<TRIPOS>MOLECULE
ligand_42
    33    34     1     0     0
SMALL
USER_CHARGES
****
Generated from the CSD

@<TRIPOS>ATOM
     1 C1     -10.5345   7.0703  10.0399   C.2       1 RES1   0.0000
     2 C2      -9.2281   6.6050   9.9342   C.2       1 RES1   0.0000
     3 C3      -8.9298   5.5986   9.0097   C.2       1 RES1   0.0000
     4 O4      -7.7300   4.9920   8.7460   O.3       1 RES1   0.0000
     5 C5      -6.8658   5.0768   7.5774   C.3       1 RES1   0.0000
     6 C6      -5.7131   4.0510   7.6292   C.2       1 RES1   0.0000
     7 O7      -5.7860   2.9986   6.9316   O.co2     1 RES1   0.0000
     8 O8      -4.7546   4.3400   8.3669   O.co2     1 RES1  -1.0000
     9 C9      -6.3794   6.5181   7.5266   C.3       1 RES1   0.0000
    10 C10     -7.4265   7.4916   7.0390   C.3       1 RES1   0.0000
    11 O11     -6.7744   8.7636   6.9197   O.3       1 RES1   0.0000
    12 C12     -7.1156   9.6163   8.0552   C.3       1 RES1   0.0000
    13 C13     -8.6465   9.6650   8.2390   C.2       1 RES1   0.0000
    14 O14     -9.0693   9.6082   9.4237   O.co2     1 RES1   0.0000
    15 O15     -9.3677   9.7906   7.2309   O.co2     1 RES1  -1.0000
    16 C16     -6.5408  11.0138   7.9147   C.3       1 RES1   0.0000
    17 C17     -5.0156  11.0557   8.0987   C.3       1 RES1   0.0000
    18 C18     -4.5671  10.3353   9.3744   C.3       1 RES1   0.0000
    19 O19     -4.8218  11.1120  10.5510   O.3       1 RES1   0.0000
    20 C20     -5.2183   8.9462   9.4572   C.3       1 RES1   0.0000
    21 C21     -4.9356   8.2052  10.7652   C.3       1 RES1   0.0000
    22 O22     -3.5270   8.1702  10.9607   O.3       1 RES1   0.0000
    23 C23     -5.4565   6.7602  10.7310   C.3       1 RES1   0.0000
    24 O24     -5.2641   6.1417  12.0202   O.3       1 RES1   0.0000
    25 O25     -6.6342   9.0221   9.2918   O.3       1 RES1   0.0000
    26 C26     -8.0514   7.0105   5.7487   C.3       1 RES1   0.0000
    27 O27     -7.1469   7.0449   4.6355   O.3       1 RES1   0.0000
    28 C28     -8.6195   5.6253   6.0199   C.3       1 RES1   0.0000
    29 C29     -9.3449   4.9502   4.8466   C.3       1 RES1   0.0000
    30 O30    -10.4280   5.7635   4.3927   O.3       1 RES1   0.0000
    31 C31     -9.9109   3.5738   5.2390   C.3       1 RES1   0.0000
    32 O32    -10.4615   2.9093   4.0875   O.3       1 RES1   0.0000
    33 O33     -7.5664   4.7479   6.3995   O.3       1 RES1   0.0000
@<TRIPOS>BOND
     1     1     2    1
     2     2     3    2
     3     3     4    1
     4     5     4    1
     5     5     6    1
     6     6     7    2
     7     6     8    1
     8     5     9    1
     9     9    10    1
    10    10    11    1
    11    12    11    1
    12    12    13    1
    13    13    14    2
    14    13    15    1
    15    12    16    1
    16    16    17    1
    17    17    18    1
    18    18    19    1
    19    18    20    1
    20    20    21    1
    21    21    22    1
    22    21    23    1
    23    23    24    1
    24    20    25    1
    25    10    26    1
    26    26    27    1
    27    26    28    1
    28    28    29    1
    29    29    30    1
    30    29    31    1
    31    31    32    1
    32    28    33    1
    33    33     5    1
    34    25    12    1
@<TRIPOS>SUBSTRUCTURE
     1 RES1        1 GROUP             0 ****  ****    0  
@<TRIPOS>MOLECULE
ligand_43
    33    34     1     0     0
SMALL
USER_CHARGES
****
Generated from the CSD

@<TRIPOS>ATOM
     1 C1     -10.5467   7.0261  10.0827   C.2       1 RES1   0.0000
     2 C2      -9.2766   6.4602  10.0538   C.2       1 RES1   0.0000
     3 C3      -8.9097   5.6501   8.9740   C.2       1 RES1   0.0000
     4 O4      -7.7300   4.9920   8.7460   O.3       1 RES1   0.0000
     5 C5      -7.4344   3.5667   8.7160   C.3       1 RES1   0.0000
     6 C6      -5.9408   3.2868   8.4431   C.2       1 RES1   0.0000
     7 O7      -5.0928   4.2073   8.6248   O.co2     1 RES1   0.0000
     8 O8      -5.6590   2.1372   8.0618   O.co2     1 RES1  -1.0000
     9 C9      -8.3548   2.9757   7.6577   C.3       1 RES1   0.0000
    10 C10     -9.7901   2.8458   8.1105   C.3       1 RES1   0.0000
    11 O11    -10.4854   2.1547   7.0635   O.3       1 RES1   0.0000
    12 C12    -11.3730   3.0718   6.3535   C.3       1 RES1   0.0000
    13 C13    -12.3119   3.7788   7.3527   C.2       1 RES1   0.0000
    14 O14    -12.6159   3.1307   8.3886   O.co2     1 RES1   0.0000
    15 O15    -12.6842   4.9418   7.1056   O.co2     1 RES1  -1.0000
    16 C16    -12.1659   2.3730   5.2644   C.3       1 RES1   0.0000
    17 C17    -11.3027   1.9733   4.0574   C.3       1 RES1   0.0000
    18 C18    -10.4532   3.1398   3.5427   C.3       1 RES1   0.0000
    19 O19    -11.2283   4.0822   2.7919   O.3       1 RES1   0.0000
    20 C20     -9.7121   3.8126   4.7083   C.3       1 RES1   0.0000
    21 C21     -8.9432   5.0735   4.3098   C.3       1 RES1   0.0000
    22 O22     -8.0441   4.7331   3.2613   O.3       1 RES1   0.0000
    23 C23     -8.1287   5.6439   5.4810   C.3       1 RES1   0.0000
    24 O24     -7.5213   6.8929   5.0902   O.3       1 RES1   0.0000
    25 O25    -10.6062   4.1584   5.7660   O.3       1 RES1   0.0000
    26 C26     -9.8721   2.1502   9.4508   C.3       1 RES1   0.0000
    27 O27     -9.5070   0.7640   9.3913   O.3       1 RES1   0.0000
    28 C28     -9.0215   2.9554  10.4219   C.3       1 RES1   0.0000
    29 C29     -8.9882   2.4499  11.8717   C.3       1 RES1   0.0000
    30 O30    -10.3082   2.4009  12.4154   O.3       1 RES1   0.0000
    31 C31     -8.1315   3.3555  12.7743   C.3       1 RES1   0.0000
    32 O32     -8.0071   2.7829  14.0886   O.3       1 RES1   0.0000
    33 O33     -7.6729   2.9695   9.9703   O.3       1 RES1   0.0000
@<TRIPOS>BOND
     1     1     2    1
     2     2     3    2
     3     3     4    1
     4     5     4    1
     5     5     6    1
     6     6     7    2
     7     6     8    1
     8     5     9    1
     9     9    10    1
    10    10    11    1
    11    12    11    1
    12    12    13    1
    13    13    14    2
    14    13    15    1
    15    12    16    1
    16    16    17    1
    17    17    18    1
    18    18    19    1
    19    18    20    1
    20    20    21    1
    21    21    22    1
    22    21    23    1
    23    23    24    1
    24    20    25    1
    25    10    26    1
    26    26    27    1
    27    26    28    1
    28    28    29    1
    29    29    30    1
    30    29    31    1
    31    31    32    1
    32    28    33    1
    33    33     5    1
    34    25    12    1
@<TRIPOS>SUBSTRUCTURE
     1 RES1        1 GROUP             0 ****  ****    0  
@<TRIPOS>MOLECULE
ligand_44
    33    34     1     0     0
SMALL
USER_CHARGES
****
Generated from the CSD

@<TRIPOS>ATOM
     1 C1     -10.4385   7.0956  10.1941   C.2       1 RES1   0.0000
     2 C2      -9.1662   6.5452  10.0811   C.2       1 RES1   0.0000
     3 C3      -8.8941   5.6521   9.0396   C.2       1 RES1   0.0000
     4 O4      -7.7300   4.9920   8.7460   O.3       1 RES1   0.0000
     5 C5      -6.3716   5.4943   8.5967   C.3       1 RES1   0.0000
     6 C6      -6.2716   6.5919   7.5155   C.2       1 RES1   0.0000
     7 O7      -7.3201   7.1906   7.1391   O.co2     1 RES1   0.0000
     8 O8      -5.1315   6.8306   7.0801   O.co2     1 RES1  -1.0000
     9 C9      -5.5117   4.2763   8.2910   C.3       1 RES1   0.0000
    10 C10     -5.2440   3.4082   9.4980   C.3       1 RES1   0.0000
    11 O11     -4.3197   2.3967   9.0739   O.3       1 RES1   0.0000
    12 C12     -4.7133   1.0952   9.6069   C.3       1 RES1   0.0000
    13 C13     -4.8326   1.1669  11.1432   C.2       1 RES1   0.0000
    14 O14     -5.9905   1.3419  11.6063   O.co2     1 RES1   0.0000
    15 O15     -3.8056   1.0161  11.8321   O.co2     1 RES1  -1.0000
    16 C16     -3.7590  -0.0077   9.1871   C.3       1 RES1   0.0000
    17 C17     -3.8787  -0.3693   7.6983   C.3       1 RES1   0.0000
    18 C18     -5.3304  -0.6248   7.2803   C.3       1 RES1   0.0000
    19 O19     -5.8026  -1.9032   7.7225   O.3       1 RES1   0.0000
    20 C20     -6.2338   0.5168   7.7717   C.3       1 RES1   0.0000
    21 C21     -7.7239   0.2821   7.5181   C.3       1 RES1   0.0000
    22 O22     -7.9050   0.0359   6.1288   O.3       1 RES1   0.0000
    23 C23     -8.5723   1.5019   7.9092   C.3       1 RES1   0.0000
    24 O24     -8.1255   2.6619   7.1768   O.3       1 RES1   0.0000
    25 O25     -6.0578   0.7586   9.1676   O.3       1 RES1   0.0000
    26 C26     -4.7407   4.2375  10.6581   C.3       1 RES1   0.0000
    27 O27     -3.4263   4.7711  10.4430   O.3       1 RES1   0.0000
    28 C28     -5.7882   5.3079  10.9263   C.3       1 RES1   0.0000
    29 C29     -5.5029   6.2538  12.1021   C.3       1 RES1   0.0000
    30 O30     -6.6760   6.9925  12.4466   O.3       1 RES1   0.0000
    31 C31     -4.3845   7.2579  11.7709   C.3       1 RES1   0.0000
    32 O32     -4.0801   8.0692  12.9198   O.3       1 RES1   0.0000
    33 O33     -5.9302   6.1302   9.7745   O.3       1 RES1   0.0000
@<TRIPOS>BOND
     1     1     2    1
     2     2     3    2
     3     3     4    1
     4     5     4    1
     5     5     6    1
     6     6     7    2
     7     6     8    1
     8     5     9    1
     9     9    10    1
    10    10    11    1
    11    12    11    1
    12    12    13    1
    13    13    14    2
    14    13    15    1
    15    12    16    1
    16    16    17    1
    17    17    18    1
    18    18    19    1
    19    18    20    1
    20    20    21    1
    21    21    22    1
    22    21    23    1
    23    23    24    1
    24    20    25    1
    25    10    26    1
    26    26    27    1
    27    26    28    1
    28    28    29    1
    29    29    30    1
    30    29    31    1
    31    31    32    1
    32    28    33    1
    33    33     5    1
    34    25    12    1
@<TRIPOS>SUBSTRUCTURE
     1 RES1        1 GROUP             0 ****  ****    0  
@<TRIPOS>MOLECULE
ligand_45
    33    34     1     0     0
SMALL
USER_CHARGES
****
Generated from the CSD

@<TRIPOS>ATOM
     1 C1     -10.4892   7.2198   9.8782   C.2       1 RES1   0.0000
     2 C2      -9.2057   6.6851   9.8476   C.2       1 RES1   0.0000
     3 C3      -8.9088   5.6625   8.9406   C.2       1 RES1   0.0000
     4 O4      -7.7300   4.9920   8.7460   O.3       1 RES1   0.0000
     5 C5      -6.3716   5.4943   8.5967   C.3       1 RES1   0.0000
     6 C6      -6.2716   6.5919   7.5155   C.2       1 RES1   0.0000
     7 O7      -7.3200   7.1912   7.1396   O.co2     1 RES1   0.0000
     8 O8      -5.1316   6.8300   7.0796   O.co2     1 RES1  -1.0000
     9 C9      -5.5117   4.2763   8.2910   C.3       1 RES1   0.0000
    10 C10     -5.2440   3.4082   9.4980   C.3       1 RES1   0.0000
    11 O11     -4.3197   2.3967   9.0739   O.3       1 RES1   0.0000
    12 C12     -4.7274   1.0911   9.5858   C.3       1 RES1   0.0000
    13 C13     -4.8625   1.1438  11.1217   C.2       1 RES1   0.0000
    14 O14     -6.0243   1.3181  11.5749   O.co2     1 RES1   0.0000
    15 O15     -3.8433   0.9797  11.8192   O.co2     1 RES1  -1.0000
    16 C16     -3.7760  -0.0127   9.1619   C.3       1 RES1   0.0000
    17 C17     -3.8824  -0.3542   7.6673   C.3       1 RES1   0.0000
    18 C18     -5.3313  -0.5946   7.2309   C.3       1 RES1   0.0000
    19 O19     -5.8164  -1.8754   7.6515   O.3       1 RES1   0.0000
    20 C20     -6.2322   0.5465   7.7275   C.3       1 RES1   0.0000
    21 C21     -7.7211   0.3251   7.4553   C.3       1 RES1   0.0000
    22 O22     -8.3826   1.5805   7.5541   O.3       1 RES1   0.0000
    23 C23     -8.3539  -0.6378   8.4716   C.3       1 RES1   0.0000
    24 O24     -9.7447  -0.8441   8.1476   O.3       1 RES1   0.0000
    25 O25     -6.0694   0.7692   9.1282   O.3       1 RES1   0.0000
    26 C26     -4.7407   4.2375  10.6581   C.3       1 RES1   0.0000
    27 O27     -3.4263   4.7711  10.4430   O.3       1 RES1   0.0000
    28 C28     -5.7882   5.3079  10.9263   C.3       1 RES1   0.0000
    29 C29     -5.5029   6.2538  12.1021   C.3       1 RES1   0.0000
    30 O30     -5.2590   5.5090  13.2963   O.3       1 RES1   0.0000
    31 C31     -6.6795   7.2103  12.3659   C.3       1 RES1   0.0000
    32 O32     -7.8642   6.4684  12.7075   O.3       1 RES1   0.0000
    33 O33     -5.9302   6.1302   9.7745   O.3       1 RES1   0.0000
@<TRIPOS>BOND
     1     1     2    1
     2     2     3    2
     3     3     4    1
     4     5     4    1
     5     5     6    1
     6     6     7    2
     7     6     8    1
     8     5     9    1
     9     9    10    1
    10    10    11    1
    11    12    11    1
    12    12    13    1
    13    13    14    2
    14    13    15    1
    15    12    16    1
    16    16    17    1
    17    17    18    1
    18    18    19    1
    19    18    20    1
    20    20    21    1
    21    21    22    1
    22    21    23    1
    23    23    24    1
    24    20    25    1
    25    10    26    1
    26    26    27    1
    27    26    28    1
    28    28    29    1
    29    29    30    1
    30    29    31    1
    31    31    32    1
    32    28    33    1
    33    33     5    1
    34    25    12    1
@<TRIPOS>SUBSTRUCTURE
     1 RES1        1 GROUP             0 ****  ****    0  
@<TRIPOS>MOLECULE
ligand_46
    33    34     1     0     0
SMALL
USER_CHARGES
****
Generated from the CSD

@<TRIPOS>ATOM
     1 C1     -10.4412   7.0996  10.1832   C.2       1 RES1   0.0000
     2 C2      -9.1686   6.5493  10.0737   C.2       1 RES1   0.0000
     3 C3      -8.8947   5.6526   9.0357   C.2       1 RES1   0.0000
     4 O4      -7.7300   4.9920   8.7460   O.3       1 RES1   0.0000
     5 C5      -6.3716   5.4943   8.5967   C.3       1 RES1   0.0000
     6 C6      -6.2716   6.5919   7.5155   C.2       1 RES1   0.0000
     7 O7      -7.3201   7.1906   7.1391   O.co2     1 RES1   0.0000
     8 O8      -5.1315   6.8306   7.0801   O.co2     1 RES1  -1.0000
     9 C9      -5.5117   4.2763   8.2910   C.3       1 RES1   0.0000
    10 C10     -5.2440   3.4082   9.4980   C.3       1 RES1   0.0000
    11 O11     -4.3197   2.3967   9.0739   O.3       1 RES1   0.0000
    12 C12     -4.7274   1.0911   9.5858   C.3       1 RES1   0.0000
    13 C13     -4.8627   1.1438  11.1216   C.2       1 RES1   0.0000
    14 O14     -6.0246   1.3180  11.5747   O.co2     1 RES1   0.0000
    15 O15     -3.8436   0.9798  11.8193   O.co2     1 RES1  -1.0000
    16 C16     -3.7759  -0.0126   9.1620   C.3       1 RES1   0.0000
    17 C17     -3.8821  -0.3542   7.6674   C.3       1 RES1   0.0000
    18 C18     -5.3309  -0.5947   7.2308   C.3       1 RES1   0.0000
    19 O19     -5.8161  -1.8755   7.6514   O.3       1 RES1   0.0000
    20 C20     -6.2320   0.5464   7.7273   C.3       1 RES1   0.0000
    21 C21     -7.7208   0.3250   7.4549   C.3       1 RES1   0.0000
    22 O22     -7.8892   0.1021   6.0601   O.3       1 RES1   0.0000
    23 C23     -8.5658   1.5436   7.8568   C.3       1 RES1   0.0000
    24 O24     -9.9648   1.2557   7.6527   O.3       1 RES1   0.0000
    25 O25     -6.0693   0.7692   9.1279   O.3       1 RES1   0.0000
    26 C26     -4.7407   4.2375  10.6581   C.3       1 RES1   0.0000
    27 O27     -3.4263   4.7711  10.4430   O.3       1 RES1   0.0000
    28 C28     -5.7882   5.3079  10.9263   C.3       1 RES1   0.0000
    29 C29     -5.5029   6.2538  12.1021   C.3       1 RES1   0.0000
    30 O30     -6.6535   7.0473  12.3971   O.3       1 RES1   0.0000
    31 C31     -4.3300   7.2038  11.8012   C.3       1 RES1   0.0000
    32 O32     -4.6236   8.0170  10.6508   O.3       1 RES1   0.0000
    33 O33     -5.9302   6.1302   9.7745   O.3       1 RES1   0.0000
@<TRIPOS>BOND
     1     1     2    1
     2     2     3    2
     3     3     4    1
     4     5     4    1
     5     5     6    1
     6     6     7    2
     7     6     8    1
     8     5     9    1
     9     9    10    1
    10    10    11    1
    11    12    11    1
    12    12    13    1
    13    13    14    2
    14    13    15    1
    15    12    16    1
    16    16    17    1
    17    17    18    1
    18    18    19    1
    19    18    20    1
    20    20    21    1
    21    21    22    1
    22    21    23    1
    23    23    24    1
    24    20    25    1
    25    10    26    1
    26    26    27    1
    27    26    28    1
    28    28    29    1
    29    29    30    1
    30    29    31    1
    31    31    32    1
    32    28    33    1
    33    33     5    1
    34    25    12    1
@<TRIPOS>SUBSTRUCTURE
     1 RES1        1 GROUP             0 ****  ****    0  
@<TRIPOS>MOLECULE
ligand_47
    33    34     1     0     0
SMALL
USER_CHARGES
****
Generated from the CSD

@<TRIPOS>ATOM
     1 C1     -10.4640   7.0887  10.1558   C.2       1 RES1   0.0000
     2 C2      -9.1903   6.5376  10.0637   C.2       1 RES1   0.0000
     3 C3      -8.8989   5.6514   9.0215   C.2       1 RES1   0.0000
     4 O4      -7.7300   4.9920   8.7460   O.3       1 RES1   0.0000
     5 C5      -7.4344   3.5667   8.7160   C.3       1 RES1   0.0000
     6 C6      -7.7309   2.8814  10.0674   C.2       1 RES1   0.0000
     7 O7      -8.4871   3.4558  10.9027   O.co2     1 RES1   0.0000
     8 O8      -7.2001   1.7714  10.2475   O.co2     1 RES1  -1.0000
     9 C9      -5.9749   3.4558   8.2989   C.3       1 RES1   0.0000
    10 C10     -5.7467   3.7113   6.8277   C.3       1 RES1   0.0000
    11 O11     -4.3616   3.4349   6.5775   O.3       1 RES1   0.0000
    12 C12     -3.6305   4.6779   6.3465   C.3       1 RES1   0.0000
    13 C13     -4.3190   5.4978   5.2359   C.2       1 RES1   0.0000
    14 O14     -4.4053   6.7391   5.4294   O.co2     1 RES1   0.0000
    15 O15     -4.7136   4.9077   4.2120   O.co2     1 RES1  -1.0000
    16 C16     -2.1708   4.4301   6.0132   C.3       1 RES1   0.0000
    17 C17     -1.3527   3.9520   7.2231   C.3       1 RES1   0.0000
    18 C18     -1.5565   4.8477   8.4492   C.3       1 RES1   0.0000
    19 O19     -0.8416   6.0844   8.3393   O.3       1 RES1   0.0000
    20 C20     -3.0554   5.0767   8.6969   C.3       1 RES1   0.0000
    21 C21     -3.3541   6.0700   9.8212   C.3       1 RES1   0.0000
    22 O22     -2.7039   5.6142  11.0014   O.3       1 RES1   0.0000
    23 C23     -4.8597   6.1779  10.1076   C.3       1 RES1   0.0000
    24 O24     -5.0969   7.2084  11.0891   O.3       1 RES1   0.0000
    25 O25     -3.7160   5.5355   7.5175   O.3       1 RES1   0.0000
    26 C26     -6.6893   2.8832   5.9836   C.3       1 RES1   0.0000
    27 O27     -6.4072   1.4773   6.0354   O.3       1 RES1   0.0000
    28 C28     -8.1030   3.2299   6.4265   C.3       1 RES1   0.0000
    29 C29     -9.2402   2.5280   5.6697   C.3       1 RES1   0.0000
    30 O30     -9.1603   2.8101   4.2717   O.3       1 RES1   0.0000
    31 C31    -10.6243   2.9773   6.1710   C.3       1 RES1   0.0000
    32 O32    -10.7786   4.3995   6.0149   O.3       1 RES1   0.0000
    33 O33     -8.2652   2.8923   7.7986   O.3       1 RES1   0.0000
@<TRIPOS>BOND
     1     1     2    1
     2     2     3    2
     3     3     4    1
     4     5     4    1
     5     5     6    1
     6     6     7    2
     7     6     8    1
     8     5     9    1
     9     9    10    1
    10    10    11    1
    11    12    11    1
    12    12    13    1
    13    13    14    2
    14    13    15    1
    15    12    16    1
    16    16    17    1
    17    17    18    1
    18    18    19    1
    19    18    20    1
    20    20    21    1
    21    21    22    1
    22    21    23    1
    23    23    24    1
    24    20    25    1
    25    10    26    1
    26    26    27    1
    27    26    28    1
    28    28    29    1
    29    29    30    1
    30    29    31    1
    31    31    32    1
    32    28    33    1
    33    33     5    1
    34    25    12    1
@<TRIPOS>SUBSTRUCTURE
     1 RES1        1 GROUP             0 ****  ****    0  
@<TRIPOS>MOLECULE
ligand_48
    33    34     1     0     0
SMALL
USER_CHARGES
****
Generated from the CSD

@<TRIPOS>ATOM
     1 C1     -10.5338   7.0706  10.0406   C.2       1 RES1   0.0000
     2 C2      -9.2276   6.6049   9.9349   C.2       1 RES1   0.0000
     3 C3      -8.9296   5.5989   9.0098   C.2       1 RES1   0.0000
     4 O4      -7.7300   4.9920   8.7460   O.3       1 RES1   0.0000
     5 C5      -6.8658   5.0768   7.5774   C.3       1 RES1   0.0000
     6 C6      -5.7131   4.0510   7.6292   C.2       1 RES1   0.0000
     7 O7      -5.8014   3.0557   8.4046   O.co2     1 RES1   0.0000
     8 O8      -4.7492   4.2706   6.8749   O.co2     1 RES1  -1.0000
     9 C9      -6.3794   6.5181   7.5266   C.3       1 RES1   0.0000
    10 C10     -7.4265   7.4916   7.0390   C.3       1 RES1   0.0000
    11 O11     -6.7744   8.7636   6.9197   O.3       1 RES1   0.0000
    12 C12     -7.1153   9.6162   8.0553   C.3       1 RES1   0.0000
    13 C13     -8.6462   9.6649   8.2394   C.2       1 RES1   0.0000
    14 O14     -9.0688   9.6081   9.4242   O.co2     1 RES1   0.0000
    15 O15     -9.3676   9.7906   7.2314   O.co2     1 RES1  -1.0000
    16 C16     -6.5405  11.0137   7.9149   C.3       1 RES1   0.0000
    17 C17     -5.0153  11.0555   8.0986   C.3       1 RES1   0.0000
    18 C18     -4.5667  10.3350   9.3742   C.3       1 RES1   0.0000
    19 O19     -4.8211  11.1115  10.5510   O.3       1 RES1   0.0000
    20 C20     -5.2179   8.9459   9.4570   C.3       1 RES1   0.0000
    21 C21     -4.9349   8.2047  10.7648   C.3       1 RES1   0.0000
    22 O22     -3.5264   8.1694  10.9600   O.3       1 RES1   0.0000
    23 C23     -5.4562   6.7598  10.7307   C.3       1 RES1   0.0000
    24 O24     -5.2637   6.1412  12.0198   O.3       1 RES1   0.0000
    25 O25     -6.6338   9.0218   9.2918   O.3       1 RES1   0.0000
    26 C26     -8.0514   7.0105   5.7487   C.3       1 RES1   0.0000
    27 O27     -7.1469   7.0449   4.6355   O.3       1 RES1   0.0000
    28 C28     -8.6195   5.6253   6.0199   C.3       1 RES1   0.0000
    29 C29     -9.3449   4.9502   4.8466   C.3       1 RES1   0.0000
    30 O30    -10.4280   5.7635   4.3927   O.3       1 RES1   0.0000
    31 C31     -9.9109   3.5738   5.2390   C.3       1 RES1   0.0000
    32 O32    -10.8338   3.7033   6.3356   O.3       1 RES1   0.0000
    33 O33     -7.5664   4.7479   6.3995   O.3       1 RES1   0.0000
@<TRIPOS>BOND
     1     1     2    1
     2     2     3    2
     3     3     4    1
     4     5     4    1
     5     5     6    1
     6     6     7    2
     7     6     8    1
     8     5     9    1
     9     9    10    1
    10    10    11    1
    11    12    11    1
    12    12    13    1
    13    13    14    2
    14    13    15    1
    15    12    16    1
    16    16    17    1
    17    17    18    1
    18    18    19    1
    19    18    20    1
    20    20    21    1
    21    21    22    1
    22    21    23    1
    23    23    24    1
    24    20    25    1
    25    10    26    1
    26    26    27    1
    27    26    28    1
    28    28    29    1
    29    29    30    1
    30    29    31    1
    31    31    32    1
    32    28    33    1
    33    33     5    1
    34    25    12    1
@<TRIPOS>SUBSTRUCTURE
     1 RES1        1 GROUP             0 ****  ****    0  
@<TRIPOS>MOLECULE
ligand_49
    33    34     1     0     0
SMALL
USER_CHARGES
****
Generated from the CSD

@<TRIPOS>ATOM
     1 C1     -10.5469   7.0262  10.0822   C.2       1 RES1   0.0000
     2 C2      -9.2768   6.4602  10.0535   C.2       1 RES1   0.0000
     3 C3      -8.9098   5.6501   8.9738   C.2       1 RES1   0.0000
     4 O4      -7.7300   4.9920   8.7460   O.3       1 RES1   0.0000
     5 C5      -7.4344   3.5667   8.7160   C.3       1 RES1   0.0000
     6 C6      -5.9408   3.2868   8.4431   C.2       1 RES1   0.0000
     7 O7      -5.1848   2.9584   9.4023   O.co2     1 RES1   0.0000
     8 O8      -5.5696   3.3949   7.2612   O.co2     1 RES1  -1.0000
     9 C9      -8.3548   2.9757   7.6577   C.3       1 RES1   0.0000
    10 C10     -9.7901   2.8458   8.1105   C.3       1 RES1   0.0000
    11 O11    -10.4854   2.1547   7.0635   O.3       1 RES1   0.0000
    12 C12    -11.3731   3.0717   6.3536   C.3       1 RES1   0.0000
    13 C13    -12.3120   3.7787   7.3529   C.2       1 RES1   0.0000
    14 O14    -12.6160   3.1305   8.3887   O.co2     1 RES1   0.0000
    15 O15    -12.6842   4.9418   7.1059   O.co2     1 RES1  -1.0000
    16 C16    -12.1660   2.3729   5.2646   C.3       1 RES1   0.0000
    17 C17    -11.3028   1.9734   4.0575   C.3       1 RES1   0.0000
    18 C18    -10.4534   3.1399   3.5427   C.3       1 RES1   0.0000
    19 O19    -11.2287   4.0823   2.7920   O.3       1 RES1   0.0000
    20 C20     -9.7123   3.8127   4.7083   C.3       1 RES1   0.0000
    21 C21     -8.9435   5.0736   4.3098   C.3       1 RES1   0.0000
    22 O22     -8.0448   4.7335   3.2610   O.3       1 RES1   0.0000
    23 C23     -8.1287   5.6439   5.4809   C.3       1 RES1   0.0000
    24 O24     -7.5214   6.8929   5.0900   O.3       1 RES1   0.0000
    25 O25    -10.6064   4.1585   5.7661   O.3       1 RES1   0.0000
    26 C26     -9.8721   2.1502   9.4508   C.3       1 RES1   0.0000
    27 O27     -9.5070   0.7640   9.3913   O.3       1 RES1   0.0000
    28 C28     -9.0215   2.9554  10.4219   C.3       1 RES1   0.0000
    29 C29     -8.9882   2.4499  11.8717   C.3       1 RES1   0.0000
    30 O30    -10.3082   2.4009  12.4154   O.3       1 RES1   0.0000
    31 C31     -8.1315   3.3555  12.7743   C.3       1 RES1   0.0000
    32 O32     -8.6435   4.7003  12.7690   O.3       1 RES1   0.0000
    33 O33     -7.6729   2.9695   9.9703   O.3       1 RES1   0.0000
@<TRIPOS>BOND
     1     1     2    1
     2     2     3    2
     3     3     4    1
     4     5     4    1
     5     5     6    1
     6     6     7    2
     7     6     8    1
     8     5     9    1
     9     9    10    1
    10    10    11    1
    11    12    11    1
    12    12    13    1
    13    13    14    2
    14    13    15    1
    15    12    16    1
    16    16    17    1
    17    17    18    1
    18    18    19    1
    19    18    20    1
    20    20    21    1
    21    21    22    1
    22    21    23    1
    23    23    24    1
    24    20    25    1
    25    10    26    1
    26    26    27    1
    27    26    28    1
    28    28    29    1
    29    29    30    1
    30    29    31    1
    31    31    32    1
    32    28    33    1
    33    33     5    1
    34    25    12    1
@<TRIPOS>SUBSTRUCTURE
     1 RES1        1 GROUP             0 ****  ****    0  
@<TRIPOS>MOLECULE
ligand_50
    33    34     1     0     0
SMALL
USER_CHARGES
****
Generated from the CSD

@<TRIPOS>ATOM
     1 C1     -10.4797   7.1589  10.0118   C.2       1 RES1   0.0000
     2 C2      -9.2019   6.6124   9.9565   C.2       1 RES1   0.0000
     3 C3      -8.9038   5.6597   8.9767   C.2       1 RES1   0.0000
     4 O4      -7.7300   4.9920   8.7460   O.3       1 RES1   0.0000
     5 C5      -6.3716   5.4943   8.5967   C.3       1 RES1   0.0000
     6 C6      -6.2716   6.5919   7.5155   C.2       1 RES1   0.0000
     7 O7      -7.3200   7.1909   7.1393   O.co2     1 RES1   0.0000
     8 O8      -5.1316   6.8303   7.0799   O.co2     1 RES1  -1.0000
     9 C9      -5.5117   4.2763   8.2910   C.3       1 RES1   0.0000
    10 C10     -5.2440   3.4082   9.4980   C.3       1 RES1   0.0000
    11 O11     -4.3197   2.3967   9.0739   O.3       1 RES1   0.0000
    12 C12     -4.9524   1.0812   9.1191   C.3       1 RES1   0.0000
    13 C13     -5.5191   0.8150  10.5290   C.2       1 RES1   0.0000
    14 O14     -4.8884   1.3275  11.4908   O.co2     1 RES1   0.0000
    15 O15     -6.5677   0.1511  10.6382   O.co2     1 RES1  -1.0000
    16 C16     -4.0032  -0.0254   8.6974   C.3       1 RES1   0.0000
    17 C17     -3.7002  -0.0132   7.1908   C.3       1 RES1   0.0000
    18 C18     -4.9760   0.0535   6.3451   C.3       1 RES1   0.0000
    19 O19     -5.6546  -1.2071   6.2910   O.3       1 RES1   0.0000
    20 C20     -5.8952   1.1732   6.8570   C.3       1 RES1   0.0000
    21 C21     -7.2549   1.2279   6.1586   C.3       1 RES1   0.0000
    22 O22     -7.0703   0.8610   4.7967   O.3       1 RES1   0.0000
    23 C23     -7.8671   2.6364   6.2027   C.3       1 RES1   0.0000
    24 O24     -7.0037   3.5654   5.5148   O.3       1 RES1   0.0000
    25 O25     -6.1260   1.0589   8.2611   O.3       1 RES1   0.0000
    26 C26     -4.7407   4.2375  10.6581   C.3       1 RES1   0.0000
    27 O27     -3.4263   4.7711  10.4430   O.3       1 RES1   0.0000
    28 C28     -5.7882   5.3079  10.9263   C.3       1 RES1   0.0000
    29 C29     -5.5029   6.2538  12.1021   C.3       1 RES1   0.0000
    30 O30     -5.3515   5.5141  13.3147   O.3       1 RES1   0.0000
    31 C31     -6.6361   7.2759  12.3026   C.3       1 RES1   0.0000
    32 O32     -6.2803   8.2282  13.3211   O.3       1 RES1   0.0000
    33 O33     -5.9302   6.1302   9.7745   O.3       1 RES1   0.0000
@<TRIPOS>BOND
     1     1     2    1
     2     2     3    2
     3     3     4    1
     4     5     4    1
     5     5     6    1
     6     6     7    2
     7     6     8    1
     8     5     9    1
     9     9    10    1
    10    10    11    1
    11    12    11    1
    12    12    13    1
    13    13    14    2
    14    13    15    1
    15    12    16    1
    16    16    17    1
    17    17    18    1
    18    18    19    1
    19    18    20    1
    20    20    21    1
    21    21    22    1
    22    21    23    1
    23    23    24    1
    24    20    25    1
    25    10    26    1
    26    26    27    1
    27    26    28    1
    28    28    29    1
    29    29    30    1
    30    29    31    1
    31    31    32    1
    32    28    33    1
    33    33     5    1
    34    25    12    1
@<TRIPOS>SUBSTRUCTURE
     1 RES1        1 GROUP             0 ****  ****    0  
@<TRIPOS>MOLECULE
ligand_51
    33    34     1     0     0
SMALL
USER_CHARGES
****
Generated from the CSD

@<TRIPOS>ATOM
     1 C1     -10.4390   7.0930  10.1970   C.2       1 RES1   0.0000
     2 C2      -9.1670   6.5420  10.0840   C.2       1 RES1   0.0000
     3 C3      -8.8940   5.6520   9.0400   C.2       1 RES1   0.0000
     4 O4      -7.7300   4.9920   8.7460   O.3       1 RES1   0.0000
     5 C5      -6.8676   4.1771   9.5898   C.3       1 RES1   0.0000
     6 C6      -6.3659   4.9497  10.8288   C.2       1 RES1   0.0000
     7 O7      -6.9014   4.7345  11.9542   O.co2     1 RES1   0.0000
     8 O8      -5.4329   5.7489  10.6360   O.co2     1 RES1  -1.0000
     9 C9      -5.7388   3.6991   8.6878   C.3       1 RES1   0.0000
    10 C10     -6.1486   2.5954   7.7414   C.3       1 RES1   0.0000
    11 O11     -4.9538   2.1706   7.0711   O.3       1 RES1   0.0000
    12 C12     -5.0564   2.4328   5.6380   C.3       1 RES1   0.0000
    13 C13     -6.3331   1.7787   5.0706   C.2       1 RES1   0.0000
    14 O14     -6.9913   2.4628   4.2434   O.co2     1 RES1   0.0000
    15 O15     -6.6214   0.6197   5.4254   O.co2     1 RES1  -1.0000
    16 C16     -3.8257   1.9680   4.8814   C.3       1 RES1   0.0000
    17 C17     -2.5923   2.8458   5.1462   C.3       1 RES1   0.0000
    18 C18     -2.8944   4.3369   4.9654   C.3       1 RES1   0.0000
    19 O19     -2.9749   4.7079   3.5839   O.3       1 RES1   0.0000
    20 C20     -4.1702   4.7176   5.7323   C.3       1 RES1   0.0000
    21 C21     -4.6267   6.1590   5.5007   C.3       1 RES1   0.0000
    22 O22     -3.4698   6.9759   5.3680   O.3       1 RES1   0.0000
    23 C23     -5.4646   6.6916   6.6732   C.3       1 RES1   0.0000
    24 O24     -4.6747   6.6835   7.8806   O.3       1 RES1   0.0000
    25 O25     -5.2568   3.8532   5.4008   O.3       1 RES1   0.0000
    26 C26     -6.8524   1.4817   8.4839   C.3       1 RES1   0.0000
    27 O27     -5.9827   0.7465   9.3566   O.3       1 RES1   0.0000
    28 C28     -8.0380   2.1076   9.2034   C.3       1 RES1   0.0000
    29 C29     -8.9307   1.1448  10.0001   C.3       1 RES1   0.0000
    30 O30     -9.4519   0.1238   9.1478   O.3       1 RES1   0.0000
    31 C31    -10.1172   1.8739  10.6553   C.3       1 RES1   0.0000
    32 O32    -10.8537   0.9750  11.5039   O.3       1 RES1   0.0000
    33 O33     -7.5698   3.0805  10.1291   O.3       1 RES1   0.0000
@<TRIPOS>BOND
     1     1     2    1
     2     2     3    2
     3     3     4    1
     4     5     4    1
     5     5     6    1
     6     6     7    2
     7     6     8    1
     8     5     9    1
     9     9    10    1
    10    10    11    1
    11    12    11    1
    12    12    13    1
    13    13    14    2
    14    13    15    1
    15    12    16    1
    16    16    17    1
    17    17    18    1
    18    18    19    1
    19    18    20    1
    20    20    21    1
    21    21    22    1
    22    21    23    1
    23    23    24    1
    24    20    25    1
    25    10    26    1
    26    26    27    1
    27    26    28    1
    28    28    29    1
    29    29    30    1
    30    29    31    1
    31    31    32    1
    32    28    33    1
    33    33     5    1
    34    25    12    1
@<TRIPOS>SUBSTRUCTURE
     1 RES1        1 GROUP             0 ****  ****    0  
@<TRIPOS>MOLECULE
ligand_52
    33    34     1     0     0
SMALL
USER_CHARGES
****
Generated from the CSD

@<TRIPOS>ATOM
     1 C1     -10.4478   7.1079  10.1583   C.2       1 RES1   0.0000
     2 C2      -9.1745   6.5577  10.0575   C.2       1 RES1   0.0000
     3 C3      -8.8962   5.6539   9.0267   C.2       1 RES1   0.0000
     4 O4      -7.7300   4.9920   8.7460   O.3       1 RES1   0.0000
     5 C5      -6.3716   5.4943   8.5967   C.3       1 RES1   0.0000
     6 C6      -6.2716   6.5919   7.5155   C.2       1 RES1   0.0000
     7 O7      -6.1933   7.8044   7.8664   O.co2     1 RES1   0.0000
     8 O8      -6.2632   6.2000   6.3353   O.co2     1 RES1  -1.0000
     9 C9      -5.5117   4.2763   8.2910   C.3       1 RES1   0.0000
    10 C10     -5.2440   3.4082   9.4980   C.3       1 RES1   0.0000
    11 O11     -4.3197   2.3967   9.0739   O.3       1 RES1   0.0000
    12 C12     -4.7132   1.0952   9.6069   C.3       1 RES1   0.0000
    13 C13     -4.8327   1.1670  11.1433   C.2       1 RES1   0.0000
    14 O14     -5.9906   1.3415  11.6063   O.co2     1 RES1   0.0000
    15 O15     -3.8056   1.0167  11.8322   O.co2     1 RES1  -1.0000
    16 C16     -3.7589  -0.0077   9.1873   C.3       1 RES1   0.0000
    17 C17     -3.8785  -0.3693   7.6985   C.3       1 RES1   0.0000
    18 C18     -5.3301  -0.6249   7.2805   C.3       1 RES1   0.0000
    19 O19     -5.8023  -1.9033   7.7227   O.3       1 RES1   0.0000
    20 C20     -6.2336   0.5166   7.7717   C.3       1 RES1   0.0000
    21 C21     -7.7237   0.2818   7.5180   C.3       1 RES1   0.0000
    22 O22     -7.9047   0.0356   6.1288   O.3       1 RES1   0.0000
    23 C23     -8.5722   1.5015   7.9091   C.3       1 RES1   0.0000
    24 O24     -8.1254   2.6615   7.1767   O.3       1 RES1   0.0000
    25 O25     -6.0577   0.7585   9.1676   O.3       1 RES1   0.0000
    26 C26     -4.7407   4.2375  10.6581   C.3       1 RES1   0.0000
    27 O27     -3.4263   4.7711  10.4430   O.3       1 RES1   0.0000
    28 C28     -5.7882   5.3079  10.9263   C.3       1 RES1   0.0000
    29 C29     -5.5029   6.2538  12.1021   C.3       1 RES1   0.0000
    30 O30     -6.6530   7.0485  12.3960   O.3       1 RES1   0.0000
    31 C31     -4.3289   7.2026  11.8018   C.3       1 RES1   0.0000
    32 O32     -4.6205   8.0155  10.6508   O.3       1 RES1   0.0000
    33 O33     -5.9302   6.1302   9.7745   O.3       1 RES1   0.0000
@<TRIPOS>BOND
     1     1     2    1
     2     2     3    2
     3     3     4    1
     4     5     4    1
     5     5     6    1
     6     6     7    2
     7     6     8    1
     8     5     9    1
     9     9    10    1
    10    10    11    1
    11    12    11    1
    12    12    13    1
    13    13    14    2
    14    13    15    1
    15    12    16    1
    16    16    17    1
    17    17    18    1
    18    18    19    1
    19    18    20    1
    20    20    21    1
    21    21    22    1
    22    21    23    1
    23    23    24    1
    24    20    25    1
    25    10    26    1
    26    26    27    1
    27    26    28    1
    28    28    29    1
    29    29    30    1
    30    29    31    1
    31    31    32    1
    32    28    33    1
    33    33     5    1
    34    25    12    1
@<TRIPOS>SUBSTRUCTURE
     1 RES1        1 GROUP             0 ****  ****    0  
@<TRIPOS>MOLECULE
ligand_53
    33    34     1     0     0
SMALL
USER_CHARGES
****
Generated from the CSD

@<TRIPOS>ATOM
     1 C1     -10.4390   7.0930  10.1970   C.2       1 RES1   0.0000
     2 C2      -9.1670   6.5420  10.0840   C.2       1 RES1   0.0000
     3 C3      -8.8940   5.6520   9.0400   C.2       1 RES1   0.0000
     4 O4      -7.7300   4.9920   8.7460   O.3       1 RES1   0.0000
     5 C5      -6.8676   4.1771   9.5898   C.3       1 RES1   0.0000
     6 C6      -6.3659   4.9497  10.8288   C.2       1 RES1   0.0000
     7 O7      -6.9015   4.7346  11.9541   O.co2     1 RES1   0.0000
     8 O8      -5.4328   5.7488  10.6361   O.co2     1 RES1  -1.0000
     9 C9      -5.7388   3.6991   8.6878   C.3       1 RES1   0.0000
    10 C10     -6.1486   2.5954   7.7414   C.3       1 RES1   0.0000
    11 O11     -4.9538   2.1706   7.0711   O.3       1 RES1   0.0000
    12 C12     -5.2134   1.9772   5.6469   C.3       1 RES1   0.0000
    13 C13     -6.3753   0.9814   5.4515   C.2       1 RES1   0.0000
    14 O14     -7.5141   1.4825   5.2575   O.co2     1 RES1   0.0000
    15 O15     -6.1268  -0.2394   5.4604   O.co2     1 RES1  -1.0000
    16 C16     -3.9757   1.5216   4.8961   C.3       1 RES1   0.0000
    17 C17     -2.9229   2.6312   4.7472   C.3       1 RES1   0.0000
    18 C18     -3.5252   3.9303   4.2022   C.3       1 RES1   0.0000
    19 O19     -3.7808   3.8581   2.7943   O.3       1 RES1   0.0000
    20 C20     -4.7896   4.3022   4.9919   C.3       1 RES1   0.0000
    21 C21     -5.5370   5.5138   4.4322   C.3       1 RES1   0.0000
    22 O22     -4.6267   6.6046   4.3631   O.3       1 RES1   0.0000
    23 C23     -6.7179   5.9233   5.3257   C.3       1 RES1   0.0000
    24 O24     -6.2449   6.2097   6.6584   O.3       1 RES1   0.0000
    25 O25     -5.7067   3.2100   5.0547   O.3       1 RES1   0.0000
    26 C26     -6.8524   1.4817   8.4839   C.3       1 RES1   0.0000
    27 O27     -5.9827   0.7465   9.3566   O.3       1 RES1   0.0000
    28 C28     -8.0380   2.1076   9.2034   C.3       1 RES1   0.0000
    29 C29     -8.9307   1.1448  10.0001   C.3       1 RES1   0.0000
    30 O30    -10.1229   1.8053  10.4278   O.3       1 RES1   0.0000
    31 C31     -8.2128   0.5972  11.2465   C.3       1 RES1   0.0000
    32 O32     -7.8396   1.6736  12.1257   O.3       1 RES1   0.0000
    33 O33     -7.5698   3.0805  10.1291   O.3       1 RES1   0.0000
@<TRIPOS>BOND
     1     1     2    1
     2     2     3    2
     3     3     4    1
     4     5     4    1
     5     5     6    1
     6     6     7    2
     7     6     8    1
     8     5     9    1
     9     9    10    1
    10    10    11    1
    11    12    11    1
    12    12    13    1
    13    13    14    2
    14    13    15    1
    15    12    16    1
    16    16    17    1
    17    17    18    1
    18    18    19    1
    19    18    20    1
    20    20    21    1
    21    21    22    1
    22    21    23    1
    23    23    24    1
    24    20    25    1
    25    10    26    1
    26    26    27    1
    27    26    28    1
    28    28    29    1
    29    29    30    1
    30    29    31    1
    31    31    32    1
    32    28    33    1
    33    33     5    1
    34    25    12    1
@<TRIPOS>SUBSTRUCTURE
     1 RES1        1 GROUP             0 ****  ****    0  
@<TRIPOS>MOLECULE
ligand_54
    33    34     1     0     0
SMALL
USER_CHARGES
****
Generated from the CSD

@<TRIPOS>ATOM
     1 C1     -10.4538   7.0749  10.1954   C.2       1 RES1   0.0000
     2 C2      -9.1791   6.5295  10.0854   C.2       1 RES1   0.0000
     3 C3      -8.8979   5.6459   9.0381   C.2       1 RES1   0.0000
     4 O4      -7.7300   4.9920   8.7460   O.3       1 RES1   0.0000
     5 C5      -6.8676   4.1771   9.5898   C.3       1 RES1   0.0000
     6 C6      -6.3659   4.9497  10.8288   C.2       1 RES1   0.0000
     7 O7      -6.2426   4.3429  11.9316   O.co2     1 RES1   0.0000
     8 O8      -6.0971   6.1512  10.6541   O.co2     1 RES1  -1.0000
     9 C9      -5.7388   3.6991   8.6878   C.3       1 RES1   0.0000
    10 C10     -6.1486   2.5954   7.7414   C.3       1 RES1   0.0000
    11 O11     -4.9538   2.1706   7.0711   O.3       1 RES1   0.0000
    12 C12     -5.2134   1.9771   5.6469   C.3       1 RES1   0.0000
    13 C13     -6.3755   0.9815   5.4516   C.2       1 RES1   0.0000
    14 O14     -7.5142   1.4827   5.2573   O.co2     1 RES1   0.0000
    15 O15     -6.1270  -0.2393   5.4608   O.co2     1 RES1  -1.0000
    16 C16     -3.9757   1.5214   4.8961   C.3       1 RES1   0.0000
    17 C17     -2.9228   2.6309   4.7471   C.3       1 RES1   0.0000
    18 C18     -3.5251   3.9300   4.2021   C.3       1 RES1   0.0000
    19 O19     -3.7806   3.8577   2.7942   O.3       1 RES1   0.0000
    20 C20     -4.7894   4.3020   4.9918   C.3       1 RES1   0.0000
    21 C21     -5.5367   5.5137   4.4320   C.3       1 RES1   0.0000
    22 O22     -4.6263   6.6044   4.3629   O.3       1 RES1   0.0000
    23 C23     -6.7176   5.9234   5.3255   C.3       1 RES1   0.0000
    24 O24     -6.2446   6.2099   6.6581   O.3       1 RES1   0.0000
    25 O25     -5.7066   3.2099   5.0546   O.3       1 RES1   0.0000
    26 C26     -6.8524   1.4817   8.4839   C.3       1 RES1   0.0000
    27 O27     -5.9827   0.7465   9.3566   O.3       1 RES1   0.0000
    28 C28     -8.0380   2.1076   9.2034   C.3       1 RES1   0.0000
    29 C29     -8.9307   1.1448  10.0001   C.3       1 RES1   0.0000
    30 O30    -10.1567   1.7822  10.3621   O.3       1 RES1   0.0000
    31 C31     -8.2433   0.6610  11.2893   C.3       1 RES1   0.0000
    32 O32     -9.0670  -0.3052  11.9667   O.3       1 RES1   0.0000
    33 O33     -7.5698   3.0805  10.1291   O.3       1 RES1   0.0000
@<TRIPOS>BOND
     1     1     2    1
     2     2     3    2
     3     3     4    1
     4     5     4    1
     5     5     6    1
     6     6     7    2
     7     6     8    1
     8     5     9    1
     9     9    10    1
    10    10    11    1
    11    12    11    1
    12    12    13    1
    13    13    14    2
    14    13    15    1
    15    12    16    1
    16    16    17    1
    17    17    18    1
    18    18    19    1
    19    18    20    1
    20    20    21    1
    21    21    22    1
    22    21    23    1
    23    23    24    1
    24    20    25    1
    25    10    26    1
    26    26    27    1
    27    26    28    1
    28    28    29    1
    29    29    30    1
    30    29    31    1
    31    31    32    1
    32    28    33    1
    33    33     5    1
    34    25    12    1
@<TRIPOS>SUBSTRUCTURE
     1 RES1        1 GROUP             0 ****  ****    0  
@<TRIPOS>MOLECULE
ligand_55
    33    34     1     0     0
SMALL
USER_CHARGES
****
Generated from the CSD

@<TRIPOS>ATOM
     1 C1     -10.4538   7.0749  10.1954   C.2       1 RES1   0.0000
     2 C2      -9.1791   6.5295  10.0854   C.2       1 RES1   0.0000
     3 C3      -8.8979   5.6459   9.0381   C.2       1 RES1   0.0000
     4 O4      -7.7300   4.9920   8.7460   O.3       1 RES1   0.0000
     5 C5      -6.8676   4.1771   9.5898   C.3       1 RES1   0.0000
     6 C6      -6.3659   4.9497  10.8288   C.2       1 RES1   0.0000
     7 O7      -6.2426   4.3429  11.9316   O.co2     1 RES1   0.0000
     8 O8      -6.0971   6.1512  10.6541   O.co2     1 RES1  -1.0000
     9 C9      -5.7388   3.6991   8.6878   C.3       1 RES1   0.0000
    10 C10     -6.1486   2.5954   7.7414   C.3       1 RES1   0.0000
    11 O11     -4.9538   2.1706   7.0711   O.3       1 RES1   0.0000
    12 C12     -5.2070   2.0018   5.6427   C.3       1 RES1   0.0000
    13 C13     -6.3738   1.0163   5.4252   C.2       1 RES1   0.0000
    14 O14     -7.5082   1.5273   5.2312   O.co2     1 RES1   0.0000
    15 O15     -6.1328  -0.2060   5.4177   O.co2     1 RES1  -1.0000
    16 C16     -3.9681   1.5510   4.8909   C.3       1 RES1   0.0000
    17 C17     -2.9080   2.6565   4.7654   C.3       1 RES1   0.0000
    18 C18     -3.4998   3.9678   4.2385   C.3       1 RES1   0.0000
    19 O19     -3.7483   3.9199   2.8283   O.3       1 RES1   0.0000
    20 C20     -4.7661   4.3345   5.0275   C.3       1 RES1   0.0000
    21 C21     -5.5033   5.5594   4.4837   C.3       1 RES1   0.0000
    22 O22     -6.3680   6.0465   5.5027   O.3       1 RES1   0.0000
    23 C23     -6.3523   5.2179   3.2495   C.3       1 RES1   0.0000
    24 O24     -6.9930   6.4114   2.7527   O.3       1 RES1   0.0000
    25 O25     -5.6899   3.2469   5.0679   O.3       1 RES1   0.0000
    26 C26     -6.8524   1.4817   8.4839   C.3       1 RES1   0.0000
    27 O27     -5.9827   0.7465   9.3566   O.3       1 RES1   0.0000
    28 C28     -8.0380   2.1076   9.2034   C.3       1 RES1   0.0000
    29 C29     -8.9307   1.1448  10.0001   C.3       1 RES1   0.0000
    30 O30     -9.4519   0.1238   9.1478   O.3       1 RES1   0.0000
    31 C31    -10.1172   1.8739  10.6553   C.3       1 RES1   0.0000
    32 O32    -10.9221   2.5247   9.6556   O.3       1 RES1   0.0000
    33 O33     -7.5698   3.0805  10.1291   O.3       1 RES1   0.0000
@<TRIPOS>BOND
     1     1     2    1
     2     2     3    2
     3     3     4    1
     4     5     4    1
     5     5     6    1
     6     6     7    2
     7     6     8    1
     8     5     9    1
     9     9    10    1
    10    10    11    1
    11    12    11    1
    12    12    13    1
    13    13    14    2
    14    13    15    1
    15    12    16    1
    16    16    17    1
    17    17    18    1
    18    18    19    1
    19    18    20    1
    20    20    21    1
    21    21    22    1
    22    21    23    1
    23    23    24    1
    24    20    25    1
    25    10    26    1
    26    26    27    1
    27    26    28    1
    28    28    29    1
    29    29    30    1
    30    29    31    1
    31    31    32    1
    32    28    33    1
    33    33     5    1
    34    25    12    1
@<TRIPOS>SUBSTRUCTURE
     1 RES1        1 GROUP             0 ****  ****    0  
@<TRIPOS>MOLECULE
ligand_56
    33    34     1     0     0
SMALL
USER_CHARGES
****
Generated from the CSD

@<TRIPOS>ATOM
     1 C1     -10.4541   7.0745  10.1954   C.2       1 RES1   0.0000
     2 C2      -9.1794   6.5292  10.0854   C.2       1 RES1   0.0000
     3 C3      -8.8980   5.6458   9.0381   C.2       1 RES1   0.0000
     4 O4      -7.7300   4.9920   8.7460   O.3       1 RES1   0.0000
     5 C5      -6.8676   4.1771   9.5898   C.3       1 RES1   0.0000
     6 C6      -6.3659   4.9497  10.8288   C.2       1 RES1   0.0000
     7 O7      -6.2427   4.3429  11.9316   O.co2     1 RES1   0.0000
     8 O8      -6.0970   6.1512  10.6541   O.co2     1 RES1  -1.0000
     9 C9      -5.7388   3.6991   8.6878   C.3       1 RES1   0.0000
    10 C10     -6.1486   2.5954   7.7414   C.3       1 RES1   0.0000
    11 O11     -4.9538   2.1706   7.0711   O.3       1 RES1   0.0000
    12 C12     -5.2070   2.0018   5.6427   C.3       1 RES1   0.0000
    13 C13     -6.3739   1.0165   5.4252   C.2       1 RES1   0.0000
    14 O14     -7.5082   1.5276   5.2308   O.co2     1 RES1   0.0000
    15 O15     -6.1332  -0.2059   5.4181   O.co2     1 RES1  -1.0000
    16 C16     -3.9682   1.5509   4.8910   C.3       1 RES1   0.0000
    17 C17     -2.9079   2.6562   4.7655   C.3       1 RES1   0.0000
    18 C18     -3.4995   3.9676   4.2385   C.3       1 RES1   0.0000
    19 O19     -3.7481   3.9197   2.8283   O.3       1 RES1   0.0000
    20 C20     -4.7658   4.3344   5.0275   C.3       1 RES1   0.0000
    21 C21     -5.5029   5.5594   4.4837   C.3       1 RES1   0.0000
    22 O22     -4.5868   6.6468   4.4412   O.3       1 RES1   0.0000
    23 C23     -6.6889   5.9589   5.3750   C.3       1 RES1   0.0000
    24 O24     -7.3947   7.0676   4.7798   O.3       1 RES1   0.0000
    25 O25     -5.6898   3.2470   5.0679   O.3       1 RES1   0.0000
    26 C26     -6.8524   1.4817   8.4839   C.3       1 RES1   0.0000
    27 O27     -5.9827   0.7465   9.3566   O.3       1 RES1   0.0000
    28 C28     -8.0380   2.1076   9.2034   C.3       1 RES1   0.0000
    29 C29     -8.9307   1.1448  10.0001   C.3       1 RES1   0.0000
    30 O30    -10.1230   1.8052  10.4277   O.3       1 RES1   0.0000
    31 C31     -8.2128   0.5973  11.2465   C.3       1 RES1   0.0000
    32 O32     -7.8400   1.6737  12.1259   O.3       1 RES1   0.0000
    33 O33     -7.5698   3.0805  10.1291   O.3       1 RES1   0.0000
@<TRIPOS>BOND
     1     1     2    1
     2     2     3    2
     3     3     4    1
     4     5     4    1
     5     5     6    1
     6     6     7    2
     7     6     8    1
     8     5     9    1
     9     9    10    1
    10    10    11    1
    11    12    11    1
    12    12    13    1
    13    13    14    2
    14    13    15    1
    15    12    16    1
    16    16    17    1
    17    17    18    1
    18    18    19    1
    19    18    20    1
    20    20    21    1
    21    21    22    1
    22    21    23    1
    23    23    24    1
    24    20    25    1
    25    10    26    1
    26    26    27    1
    27    26    28    1
    28    28    29    1
    29    29    30    1
    30    29    31    1
    31    31    32    1
    32    28    33    1
    33    33     5    1
    34    25    12    1
@<TRIPOS>SUBSTRUCTURE
     1 RES1        1 GROUP             0 ****  ****    0  
@<TRIPOS>MOLECULE
ligand_57
    33    34     1     0     0
SMALL
USER_CHARGES
****
Generated from the CSD

@<TRIPOS>ATOM
     1 C1     -10.5946   6.8931  10.1736   C.2       1 RES1   0.0000
     2 C2      -9.2958   6.4021  10.0942   C.2       1 RES1   0.0000
     3 C3      -8.9345   5.5858   9.0174   C.2       1 RES1   0.0000
     4 O4      -7.7300   4.9920   8.7460   O.3       1 RES1   0.0000
     5 C5      -6.8676   4.1771   9.5898   C.3       1 RES1   0.0000
     6 C6      -6.3659   4.9497  10.8288   C.2       1 RES1   0.0000
     7 O7      -6.2976   6.2119  10.7884   O.co2     1 RES1   0.0000
     8 O8      -6.0631   4.2610  11.8190   O.co2     1 RES1  -1.0000
     9 C9      -5.7388   3.6991   8.6878   C.3       1 RES1   0.0000
    10 C10     -6.1486   2.5954   7.7414   C.3       1 RES1   0.0000
    11 O11     -4.9538   2.1706   7.0711   O.3       1 RES1   0.0000
    12 C12     -5.0779   2.3826   5.6314   C.3       1 RES1   0.0000
    13 C13     -6.3306   1.6586   5.0962   C.2       1 RES1   0.0000
    14 O14     -7.3481   2.3737   4.8994   O.co2     1 RES1   0.0000
    15 O15     -6.2617   0.4375   4.8584   O.co2     1 RES1  -1.0000
    16 C16     -3.8347   1.9450   4.8790   C.3       1 RES1   0.0000
    17 C17     -2.6369   2.8810   5.1051   C.3       1 RES1   0.0000
    18 C18     -3.0021   4.3518   4.8801   C.3       1 RES1   0.0000
    19 O19     -3.1083   4.6750   3.4883   O.3       1 RES1   0.0000
    20 C20     -4.2867   4.7038   5.6458   C.3       1 RES1   0.0000
    21 C21     -4.8045   6.1170   5.3729   C.3       1 RES1   0.0000
    22 O22     -3.6835   6.9772   5.2091   O.3       1 RES1   0.0000
    23 C23     -5.6591   6.6498   6.5333   C.3       1 RES1   0.0000
    24 O24     -4.8638   6.7144   7.7353   O.3       1 RES1   0.0000
    25 O25     -5.3390   3.7852   5.3513   O.3       1 RES1   0.0000
    26 C26     -6.8524   1.4817   8.4839   C.3       1 RES1   0.0000
    27 O27     -5.9827   0.7465   9.3566   O.3       1 RES1   0.0000
    28 C28     -8.0380   2.1076   9.2034   C.3       1 RES1   0.0000
    29 C29     -8.9307   1.1448  10.0001   C.3       1 RES1   0.0000
    30 O30     -9.4519   0.1238   9.1478   O.3       1 RES1   0.0000
    31 C31    -10.1172   1.8739  10.6553   C.3       1 RES1   0.0000
    32 O32    -10.9221   2.5247   9.6556   O.3       1 RES1   0.0000
    33 O33     -7.5698   3.0805  10.1291   O.3       1 RES1   0.0000
@<TRIPOS>BOND
     1     1     2    1
     2     2     3    2
     3     3     4    1
     4     5     4    1
     5     5     6    1
     6     6     7    2
     7     6     8    1
     8     5     9    1
     9     9    10    1
    10    10    11    1
    11    12    11    1
    12    12    13    1
    13    13    14    2
    14    13    15    1
    15    12    16    1
    16    16    17    1
    17    17    18    1
    18    18    19    1
    19    18    20    1
    20    20    21    1
    21    21    22    1
    22    21    23    1
    23    23    24    1
    24    20    25    1
    25    10    26    1
    26    26    27    1
    27    26    28    1
    28    28    29    1
    29    29    30    1
    30    29    31    1
    31    31    32    1
    32    28    33    1
    33    33     5    1
    34    25    12    1
@<TRIPOS>SUBSTRUCTURE
     1 RES1        1 GROUP             0 ****  ****    0  
@<TRIPOS>MOLECULE
ligand_58
    33    34     1     0     0
SMALL
USER_CHARGES
****
Generated from the CSD

@<TRIPOS>ATOM
     1 C1     -10.4955   7.2223   9.8578   C.2       1 RES1   0.0000
     2 C2      -9.2119   6.6874   9.8357   C.2       1 RES1   0.0000
     3 C3      -8.9098   5.6629   8.9325   C.2       1 RES1   0.0000
     4 O4      -7.7300   4.9920   8.7460   O.3       1 RES1   0.0000
     5 C5      -6.3716   5.4943   8.5967   C.3       1 RES1   0.0000
     6 C6      -6.2716   6.5919   7.5155   C.2       1 RES1   0.0000
     7 O7      -7.1531   6.6551   6.6108   O.co2     1 RES1   0.0000
     8 O8      -5.3085   7.3724   7.6138   O.co2     1 RES1  -1.0000
     9 C9      -5.5117   4.2763   8.2910   C.3       1 RES1   0.0000
    10 C10     -5.2440   3.4082   9.4980   C.3       1 RES1   0.0000
    11 O11     -4.3197   2.3967   9.0739   O.3       1 RES1   0.0000
    12 C12     -4.9126   1.0711   9.2298   C.3       1 RES1   0.0000
    13 C13     -5.3679   0.8637  10.6891   C.2       1 RES1   0.0000
    14 O14     -6.5965   1.0172  10.9184   O.co2     1 RES1   0.0000
    15 O15     -4.5214   0.5281  11.5394   O.co2     1 RES1  -1.0000
    16 C16     -3.9678  -0.0335   8.7935   C.3       1 RES1   0.0000
    17 C17     -3.7757  -0.0906   7.2698   C.3       1 RES1   0.0000
    18 C18     -5.1110  -0.0956   6.5186   C.3       1 RES1   0.0000
    19 O19     -5.7583  -1.3725   6.5764   O.3       1 RES1   0.0000
    20 C20     -6.0196   1.0273   7.0420   C.3       1 RES1   0.0000
    21 C21     -7.4276   1.0159   6.4443   C.3       1 RES1   0.0000
    22 O22     -7.3309   0.6026   5.0866   O.3       1 RES1   0.0000
    23 C23     -8.0794   2.4067   6.4827   C.3       1 RES1   0.0000
    24 O24     -7.2958   3.3343   5.7035   O.3       1 RES1   0.0000
    25 O25     -6.1445   0.9789   8.4632   O.3       1 RES1   0.0000
    26 C26     -4.7407   4.2375  10.6581   C.3       1 RES1   0.0000
    27 O27     -3.4263   4.7711  10.4430   O.3       1 RES1   0.0000
    28 C28     -5.7882   5.3079  10.9263   C.3       1 RES1   0.0000
    29 C29     -5.5029   6.2538  12.1021   C.3       1 RES1   0.0000
    30 O30     -5.2622   5.5091  13.2970   O.3       1 RES1   0.0000
    31 C31     -6.6781   7.2127  12.3636   C.3       1 RES1   0.0000
    32 O32     -7.8647   6.4732  12.7040   O.3       1 RES1   0.0000
    33 O33     -5.9302   6.1302   9.7745   O.3       1 RES1   0.0000
@<TRIPOS>BOND
     1     1     2    1
     2     2     3    2
     3     3     4    1
     4     5     4    1
     5     5     6    1
     6     6     7    2
     7     6     8    1
     8     5     9    1
     9     9    10    1
    10    10    11    1
    11    12    11    1
    12    12    13    1
    13    13    14    2
    14    13    15    1
    15    12    16    1
    16    16    17    1
    17    17    18    1
    18    18    19    1
    19    18    20    1
    20    20    21    1
    21    21    22    1
    22    21    23    1
    23    23    24    1
    24    20    25    1
    25    10    26    1
    26    26    27    1
    27    26    28    1
    28    28    29    1
    29    29    30    1
    30    29    31    1
    31    31    32    1
    32    28    33    1
    33    33     5    1
    34    25    12    1
@<TRIPOS>SUBSTRUCTURE
     1 RES1        1 GROUP             0 ****  ****    0  
@<TRIPOS>MOLECULE
ligand_59
    33    34     1     0     0
SMALL
USER_CHARGES
****
Generated from the CSD

@<TRIPOS>ATOM
     1 C1     -10.5118   7.1841   9.8927   C.2       1 RES1   0.0000
     2 C2      -9.2323   6.6389   9.8811   C.2       1 RES1   0.0000
     3 C3      -8.9099   5.6629   8.9324   C.2       1 RES1   0.0000
     4 O4      -7.7300   4.9920   8.7460   O.3       1 RES1   0.0000
     5 C5      -6.3716   5.4943   8.5967   C.3       1 RES1   0.0000
     6 C6      -6.2716   6.5919   7.5155   C.2       1 RES1   0.0000
     7 O7      -7.1531   6.6551   6.6108   O.co2     1 RES1   0.0000
     8 O8      -5.3085   7.3724   7.6138   O.co2     1 RES1  -1.0000
     9 C9      -5.5117   4.2763   8.2910   C.3       1 RES1   0.0000
    10 C10     -5.2440   3.4082   9.4980   C.3       1 RES1   0.0000
    11 O11     -4.3197   2.3967   9.0739   O.3       1 RES1   0.0000
    12 C12     -4.9973   1.1083   8.9563   C.3       1 RES1   0.0000
    13 C13     -5.7224   0.7698  10.2753   C.2       1 RES1   0.0000
    14 O14     -6.9680   0.9533  10.2913   O.co2     1 RES1   0.0000
    15 O15     -5.0582   0.3093  11.2235   O.co2     1 RES1  -1.0000
    16 C16     -4.0456  -0.0049   8.5585   C.3       1 RES1   0.0000
    17 C17     -3.5806   0.0979   7.0974   C.3       1 RES1   0.0000
    18 C18     -4.7541   0.2748   6.1283   C.3       1 RES1   0.0000
    19 O19     -5.4647  -0.9502   5.9115   O.3       1 RES1   0.0000
    20 C20     -5.6853   1.3937   6.6198   C.3       1 RES1   0.0000
    21 C21     -6.9586   1.5520   5.7871   C.3       1 RES1   0.0000
    22 O22     -7.5048   2.8388   6.0502   O.3       1 RES1   0.0000
    23 C23     -8.0143   0.4946   6.1450   C.3       1 RES1   0.0000
    24 O24     -9.1762   0.6619   5.3062   O.3       1 RES1   0.0000
    25 O25     -6.0709   1.1931   7.9796   O.3       1 RES1   0.0000
    26 C26     -4.7407   4.2375  10.6581   C.3       1 RES1   0.0000
    27 O27     -3.4263   4.7711  10.4430   O.3       1 RES1   0.0000
    28 C28     -5.7882   5.3079  10.9263   C.3       1 RES1   0.0000
    29 C29     -5.5029   6.2538  12.1021   C.3       1 RES1   0.0000
    30 O30     -5.3540   5.5143  13.3151   O.3       1 RES1   0.0000
    31 C31     -6.6348   7.2775  12.3010   C.3       1 RES1   0.0000
    32 O32     -6.6417   8.2351  11.2268   O.3       1 RES1   0.0000
    33 O33     -5.9302   6.1302   9.7745   O.3       1 RES1   0.0000
@<TRIPOS>BOND
     1     1     2    1
     2     2     3    2
     3     3     4    1
     4     5     4    1
     5     5     6    1
     6     6     7    2
     7     6     8    1
     8     5     9    1
     9     9    10    1
    10    10    11    1
    11    12    11    1
    12    12    13    1
    13    13    14    2
    14    13    15    1
    15    12    16    1
    16    16    17    1
    17    17    18    1
    18    18    19    1
    19    18    20    1
    20    20    21    1
    21    21    22    1
    22    21    23    1
    23    23    24    1
    24    20    25    1
    25    10    26    1
    26    26    27    1
    27    26    28    1
    28    28    29    1
    29    29    30    1
    30    29    31    1
    31    31    32    1
    32    28    33    1
    33    33     5    1
    34    25    12    1
@<TRIPOS>SUBSTRUCTURE
     1 RES1        1 GROUP             0 ****  ****    0  
@<TRIPOS>MOLECULE
ligand_60
    33    34     1     0     0
SMALL
USER_CHARGES
****
Generated from the CSD

@<TRIPOS>ATOM
     1 C1     -10.4390   7.0930  10.1970   C.2       1 RES1   0.0000
     2 C2      -9.1670   6.5420  10.0840   C.2       1 RES1   0.0000
     3 C3      -8.8940   5.6520   9.0400   C.2       1 RES1   0.0000
     4 O4      -7.7300   4.9920   8.7460   O.3       1 RES1   0.0000
     5 C5      -6.8676   4.1771   9.5898   C.3       1 RES1   0.0000
     6 C6      -6.3659   4.9497  10.8288   C.2       1 RES1   0.0000
     7 O7      -6.9015   4.7346  11.9541   O.co2     1 RES1   0.0000
     8 O8      -5.4328   5.7488  10.6361   O.co2     1 RES1  -1.0000
     9 C9      -5.7388   3.6991   8.6878   C.3       1 RES1   0.0000
    10 C10     -6.1486   2.5954   7.7414   C.3       1 RES1   0.0000
    11 O11     -4.9538   2.1706   7.0711   O.3       1 RES1   0.0000
    12 C12     -4.9437   2.6597   5.6950   C.3       1 RES1   0.0000
    13 C13     -6.2452   2.2463   4.9772   C.2       1 RES1   0.0000
    14 O14     -6.7803   1.1740   5.3638   O.co2     1 RES1   0.0000
    15 O15     -6.7081   2.9958   4.0962   O.co2     1 RES1  -1.0000
    16 C16     -3.7248   2.1829   4.9268   C.3       1 RES1   0.0000
    17 C17     -2.4255   2.8671   5.3799   C.3       1 RES1   0.0000
    18 C18     -2.5612   4.3925   5.4261   C.3       1 RES1   0.0000
    19 O19     -2.5211   4.9780   4.1191   O.3       1 RES1   0.0000
    20 C20     -3.8341   4.7901   6.1891   C.3       1 RES1   0.0000
    21 C21     -4.1252   6.2917   6.1708   C.3       1 RES1   0.0000
    22 O22     -5.0331   6.5814   7.2268   O.3       1 RES1   0.0000
    23 C23     -4.7638   6.7369   4.8462   C.3       1 RES1   0.0000
    24 O24     -4.9797   8.1633   4.8639   O.3       1 RES1   0.0000
    25 O25     -4.9824   4.1130   5.6785   O.3       1 RES1   0.0000
    26 C26     -6.8524   1.4817   8.4839   C.3       1 RES1   0.0000
    27 O27     -5.9827   0.7465   9.3566   O.3       1 RES1   0.0000
    28 C28     -8.0380   2.1076   9.2034   C.3       1 RES1   0.0000
    29 C29     -8.9307   1.1448  10.0001   C.3       1 RES1   0.0000
    30 O30     -9.4139   0.0970   9.1580   O.3       1 RES1   0.0000
    31 C31    -10.1447   1.8649  10.6136   C.3       1 RES1   0.0000
    32 O32     -9.7227   2.7672  11.6521   O.3       1 RES1   0.0000
    33 O33     -7.5698   3.0805  10.1291   O.3       1 RES1   0.0000
@<TRIPOS>BOND
     1     1     2    1
     2     2     3    2
     3     3     4    1
     4     5     4    1
     5     5     6    1
     6     6     7    2
     7     6     8    1
     8     5     9    1
     9     9    10    1
    10    10    11    1
    11    12    11    1
    12    12    13    1
    13    13    14    2
    14    13    15    1
    15    12    16    1
    16    16    17    1
    17    17    18    1
    18    18    19    1
    19    18    20    1
    20    20    21    1
    21    21    22    1
    22    21    23    1
    23    23    24    1
    24    20    25    1
    25    10    26    1
    26    26    27    1
    27    26    28    1
    28    28    29    1
    29    29    30    1
    30    29    31    1
    31    31    32    1
    32    28    33    1
    33    33     5    1
    34    25    12    1
@<TRIPOS>SUBSTRUCTURE
     1 RES1        1 GROUP             0 ****  ****    0  
@<TRIPOS>MOLECULE
ligand_61
    33    34     1     0     0
SMALL
USER_CHARGES
****
Generated from the CSD

@<TRIPOS>ATOM
     1 C1     -10.4449   7.1034  10.1706   C.2       1 RES1   0.0000
     2 C2      -9.1720   6.5529  10.0658   C.2       1 RES1   0.0000
     3 C3      -8.8955   5.6533   9.0310   C.2       1 RES1   0.0000
     4 O4      -7.7300   4.9920   8.7460   O.3       1 RES1   0.0000
     5 C5      -6.3716   5.4943   8.5967   C.3       1 RES1   0.0000
     6 C6      -6.2716   6.5919   7.5155   C.2       1 RES1   0.0000
     7 O7      -7.1531   6.6551   6.6108   O.co2     1 RES1   0.0000
     8 O8      -5.3085   7.3724   7.6138   O.co2     1 RES1  -1.0000
     9 C9      -5.5117   4.2763   8.2910   C.3       1 RES1   0.0000
    10 C10     -5.2440   3.4082   9.4980   C.3       1 RES1   0.0000
    11 O11     -4.3197   2.3967   9.0739   O.3       1 RES1   0.0000
    12 C12     -4.9601   1.0843   9.0949   C.3       1 RES1   0.0000
    13 C13     -5.5436   0.8028  10.4949   C.2       1 RES1   0.0000
    14 O14     -6.7853   0.9654  10.6259   O.co2     1 RES1   0.0000
    15 O15     -4.7789   0.4041  11.3941   O.co2     1 RES1  -1.0000
    16 C16     -4.0125  -0.0220   8.6689   C.3       1 RES1   0.0000
    17 C17     -3.6930   0.0083   7.1660   C.3       1 RES1   0.0000
    18 C18     -4.9592   0.0933   6.3075   C.3       1 RES1   0.0000
    19 O19     -5.6440  -1.1627   6.2295   O.3       1 RES1   0.0000
    20 C20     -5.8776   1.2113   6.8242   C.3       1 RES1   0.0000
    21 C21     -7.2294   1.2829   6.1119   C.3       1 RES1   0.0000
    22 O22     -6.9905   1.3625   4.7119   O.3       1 RES1   0.0000
    23 C23     -8.0381   2.5182   6.5370   C.3       1 RES1   0.0000
    24 O24     -8.4215   2.3971   7.9226   O.3       1 RES1   0.0000
    25 O25     -6.1244   1.0799   8.2241   O.3       1 RES1   0.0000
    26 C26     -4.7407   4.2375  10.6581   C.3       1 RES1   0.0000
    27 O27     -3.4263   4.7711  10.4430   O.3       1 RES1   0.0000
    28 C28     -5.7882   5.3079  10.9263   C.3       1 RES1   0.0000
    29 C29     -5.5029   6.2538  12.1021   C.3       1 RES1   0.0000
    30 O30     -6.6755   6.9939  12.4454   O.3       1 RES1   0.0000
    31 C31     -4.3831   7.2566  11.7716   C.3       1 RES1   0.0000
    32 O32     -4.0793   8.0683  12.9203   O.3       1 RES1   0.0000
    33 O33     -5.9302   6.1302   9.7745   O.3       1 RES1   0.0000
@<TRIPOS>BOND
     1     1     2    1
     2     2     3    2
     3     3     4    1
     4     5     4    1
     5     5     6    1
     6     6     7    2
     7     6     8    1
     8     5     9    1
     9     9    10    1
    10    10    11    1
    11    12    11    1
    12    12    13    1
    13    13    14    2
    14    13    15    1
    15    12    16    1
    16    16    17    1
    17    17    18    1
    18    18    19    1
    19    18    20    1
    20    20    21    1
    21    21    22    1
    22    21    23    1
    23    23    24    1
    24    20    25    1
    25    10    26    1
    26    26    27    1
    27    26    28    1
    28    28    29    1
    29    29    30    1
    30    29    31    1
    31    31    32    1
    32    28    33    1
    33    33     5    1
    34    25    12    1
@<TRIPOS>SUBSTRUCTURE
     1 RES1        1 GROUP             0 ****  ****    0  
@<TRIPOS>MOLECULE
ligand_62
    33    34     1     0     0
SMALL
USER_CHARGES
****
Generated from the CSD

@<TRIPOS>ATOM
     1 C1     -10.5945   6.8932  10.1737   C.2       1 RES1   0.0000
     2 C2      -9.2957   6.4021  10.0943   C.2       1 RES1   0.0000
     3 C3      -8.9344   5.5858   9.0174   C.2       1 RES1   0.0000
     4 O4      -7.7300   4.9920   8.7460   O.3       1 RES1   0.0000
     5 C5      -6.8676   4.1771   9.5898   C.3       1 RES1   0.0000
     6 C6      -6.3659   4.9497  10.8288   C.2       1 RES1   0.0000
     7 O7      -6.2976   6.2119  10.7884   O.co2     1 RES1   0.0000
     8 O8      -6.0631   4.2610  11.8190   O.co2     1 RES1  -1.0000
     9 C9      -5.7388   3.6991   8.6878   C.3       1 RES1   0.0000
    10 C10     -6.1486   2.5954   7.7414   C.3       1 RES1   0.0000
    11 O11     -4.9538   2.1706   7.0711   O.3       1 RES1   0.0000
    12 C12     -5.0202   2.5116   5.6526   C.3       1 RES1   0.0000
    13 C13     -6.2955   1.9132   5.0238   C.2       1 RES1   0.0000
    14 O14     -7.2571   2.7069   4.8475   O.co2     1 RES1   0.0000
    15 O15     -6.2959   0.7107   4.6978   O.co2     1 RES1  -1.0000
    16 C16     -3.7816   2.0651   4.8978   C.3       1 RES1   0.0000
    17 C17     -2.5390   2.9039   5.2357   C.3       1 RES1   0.0000
    18 C18     -2.8106   4.4080   5.1298   C.3       1 RES1   0.0000
    19 O19     -2.8542   4.8544   3.7691   O.3       1 RES1   0.0000
    20 C20     -4.0960   4.7708   5.8893   C.3       1 RES1   0.0000
    21 C21     -4.5217   6.2310   5.7268   C.3       1 RES1   0.0000
    22 O22     -3.4178   7.0574   6.0760   O.3       1 RES1   0.0000
    23 C23     -5.7041   6.5897   6.6400   C.3       1 RES1   0.0000
    24 O24     -6.8823   5.8723   6.2170   O.3       1 RES1   0.0000
    25 O25     -5.1902   3.9462   5.4886   O.3       1 RES1   0.0000
    26 C26     -6.8524   1.4817   8.4839   C.3       1 RES1   0.0000
    27 O27     -5.9827   0.7465   9.3566   O.3       1 RES1   0.0000
    28 C28     -8.0380   2.1076   9.2034   C.3       1 RES1   0.0000
    29 C29     -8.9307   1.1448  10.0001   C.3       1 RES1   0.0000
    30 O30    -10.1567   1.7823  10.3622   O.3       1 RES1   0.0000
    31 C31     -8.2432   0.6609  11.2893   C.3       1 RES1   0.0000
    32 O32     -9.0670  -0.3053  11.9666   O.3       1 RES1   0.0000
    33 O33     -7.5698   3.0805  10.1291   O.3       1 RES1   0.0000
@<TRIPOS>BOND
     1     1     2    1
     2     2     3    2
     3     3     4    1
     4     5     4    1
     5     5     6    1
     6     6     7    2
     7     6     8    1
     8     5     9    1
     9     9    10    1
    10    10    11    1
    11    12    11    1
    12    12    13    1
    13    13    14    2
    14    13    15    1
    15    12    16    1
    16    16    17    1
    17    17    18    1
    18    18    19    1
    19    18    20    1
    20    20    21    1
    21    21    22    1
    22    21    23    1
    23    23    24    1
    24    20    25    1
    25    10    26    1
    26    26    27    1
    27    26    28    1
    28    28    29    1
    29    29    30    1
    30    29    31    1
    31    31    32    1
    32    28    33    1
    33    33     5    1
    34    25    12    1
@<TRIPOS>SUBSTRUCTURE
     1 RES1        1 GROUP             0 ****  ****    0  
@<TRIPOS>MOLECULE
ligand_63
    33    34     1     0     0
SMALL
USER_CHARGES
****
Generated from the CSD

@<TRIPOS>ATOM
     1 C1     -10.4797   7.1593  10.0110   C.2       1 RES1   0.0000
     2 C2      -9.2019   6.6129   9.9559   C.2       1 RES1   0.0000
     3 C3      -8.9038   5.6597   8.9765   C.2       1 RES1   0.0000
     4 O4      -7.7300   4.9920   8.7460   O.3       1 RES1   0.0000
     5 C5      -6.3716   5.4943   8.5967   C.3       1 RES1   0.0000
     6 C6      -6.2716   6.5919   7.5155   C.2       1 RES1   0.0000
     7 O7      -7.3200   7.1909   7.1393   O.co2     1 RES1   0.0000
     8 O8      -5.1316   6.8303   7.0799   O.co2     1 RES1  -1.0000
     9 C9      -5.5117   4.2763   8.2910   C.3       1 RES1   0.0000
    10 C10     -5.2440   3.4082   9.4980   C.3       1 RES1   0.0000
    11 O11     -4.3197   2.3967   9.0739   O.3       1 RES1   0.0000
    12 C12     -5.0366   1.1821   8.6949   C.3       1 RES1   0.0000
    13 C13     -6.2177   0.9427   9.6579   C.2       1 RES1   0.0000
    14 O14     -7.3626   1.2327   9.2211   O.co2     1 RES1   0.0000
    15 O15     -5.9868   0.4529  10.7799   O.co2     1 RES1  -1.0000
    16 C16     -4.1236  -0.0292   8.6437   C.3       1 RES1   0.0000
    17 C17     -3.1564  -0.0004   7.4497   C.3       1 RES1   0.0000
    18 C18     -3.8784   0.2776   6.1273   C.3       1 RES1   0.0000
    19 O19     -4.5838  -0.8725   5.6451   O.3       1 RES1   0.0000
    20 C20     -4.8055   1.4940   6.2734   C.3       1 RES1   0.0000
    21 C21     -5.6711   1.7661   5.0420   C.3       1 RES1   0.0000
    22 O22     -4.8205   1.8164   3.9030   O.3       1 RES1   0.0000
    23 C23     -6.4180   3.1045   5.1491   C.3       1 RES1   0.0000
    24 O24     -5.4704   4.1801   5.3128   O.3       1 RES1   0.0000
    25 O25     -5.6725   1.3581   7.3993   O.3       1 RES1   0.0000
    26 C26     -4.7407   4.2375  10.6581   C.3       1 RES1   0.0000
    27 O27     -3.4263   4.7711  10.4430   O.3       1 RES1   0.0000
    28 C28     -5.7882   5.3079  10.9263   C.3       1 RES1   0.0000
    29 C29     -5.5029   6.2538  12.1021   C.3       1 RES1   0.0000
    30 O30     -5.3515   5.5141  13.3147   O.3       1 RES1   0.0000
    31 C31     -6.6361   7.2758  12.3026   C.3       1 RES1   0.0000
    32 O32     -6.2804   8.2281  13.3211   O.3       1 RES1   0.0000
    33 O33     -5.9302   6.1302   9.7745   O.3       1 RES1   0.0000
@<TRIPOS>BOND
     1     1     2    1
     2     2     3    2
     3     3     4    1
     4     5     4    1
     5     5     6    1
     6     6     7    2
     7     6     8    1
     8     5     9    1
     9     9    10    1
    10    10    11    1
    11    12    11    1
    12    12    13    1
    13    13    14    2
    14    13    15    1
    15    12    16    1
    16    16    17    1
    17    17    18    1
    18    18    19    1
    19    18    20    1
    20    20    21    1
    21    21    22    1
    22    21    23    1
    23    23    24    1
    24    20    25    1
    25    10    26    1
    26    26    27    1
    27    26    28    1
    28    28    29    1
    29    29    30    1
    30    29    31    1
    31    31    32    1
    32    28    33    1
    33    33     5    1
    34    25    12    1
@<TRIPOS>SUBSTRUCTURE
     1 RES1        1 GROUP             0 ****  ****    0  
@<TRIPOS>MOLECULE
ligand_64
    33    34     1     0     0
SMALL
USER_CHARGES
****
Generated from the CSD

@<TRIPOS>ATOM
     1 C1     -10.4798   7.1589  10.0116   C.2       1 RES1   0.0000
     2 C2      -9.2020   6.6124   9.9565   C.2       1 RES1   0.0000
     3 C3      -8.9038   5.6597   8.9766   C.2       1 RES1   0.0000
     4 O4      -7.7300   4.9920   8.7460   O.3       1 RES1   0.0000
     5 C5      -6.3716   5.4943   8.5967   C.3       1 RES1   0.0000
     6 C6      -6.2716   6.5919   7.5155   C.2       1 RES1   0.0000
     7 O7      -7.3200   7.1909   7.1393   O.co2     1 RES1   0.0000
     8 O8      -5.1316   6.8303   7.0799   O.co2     1 RES1  -1.0000
     9 C9      -5.5117   4.2763   8.2910   C.3       1 RES1   0.0000
    10 C10     -5.2440   3.4082   9.4980   C.3       1 RES1   0.0000
    11 O11     -4.3197   2.3967   9.0739   O.3       1 RES1   0.0000
    12 C12     -4.7446   1.0865   9.5594   C.3       1 RES1   0.0000
    13 C13     -4.7934   1.0841  11.1013   C.2       1 RES1   0.0000
    14 O14     -5.8208   0.5805  11.6272   O.co2     1 RES1   0.0000
    15 O15     -3.8201   1.5382  11.7327   O.co2     1 RES1  -1.0000
    16 C16     -3.8573  -0.0310   9.0424   C.3       1 RES1   0.0000
    17 C17     -4.0574  -0.3106   7.5445   C.3       1 RES1   0.0000
    18 C18     -5.5356  -0.4857   7.1815   C.3       1 RES1   0.0000
    19 O19     -6.0419  -1.7650   7.5811   O.3       1 RES1   0.0000
    20 C20     -6.3672   0.6646   7.7696   C.3       1 RES1   0.0000
    21 C21     -7.8756   0.5034   7.5733   C.3       1 RES1   0.0000
    22 O22     -8.1250   0.3068   6.1868   O.3       1 RES1   0.0000
    23 C23     -8.6510   1.7473   8.0340   C.3       1 RES1   0.0000
    24 O24     -8.6087   1.8432   9.4730   O.3       1 RES1   0.0000
    25 O25     -6.1201   0.8273   9.1661   O.3       1 RES1   0.0000
    26 C26     -4.7407   4.2375  10.6581   C.3       1 RES1   0.0000
    27 O27     -3.4263   4.7711  10.4430   O.3       1 RES1   0.0000
    28 C28     -5.7882   5.3079  10.9263   C.3       1 RES1   0.0000
    29 C29     -5.5029   6.2538  12.1021   C.3       1 RES1   0.0000
    30 O30     -5.3513   5.5141  13.3146   O.3       1 RES1   0.0000
    31 C31     -6.6362   7.2757  12.3028   C.3       1 RES1   0.0000
    32 O32     -6.2803   8.2283  13.3210   O.3       1 RES1   0.0000
    33 O33     -5.9302   6.1302   9.7745   O.3       1 RES1   0.0000
@<TRIPOS>BOND
     1     1     2    1
     2     2     3    2
     3     3     4    1
     4     5     4    1
     5     5     6    1
     6     6     7    2
     7     6     8    1
     8     5     9    1
     9     9    10    1
    10    10    11    1
    11    12    11    1
    12    12    13    1
    13    13    14    2
    14    13    15    1
    15    12    16    1
    16    16    17    1
    17    17    18    1
    18    18    19    1
    19    18    20    1
    20    20    21    1
    21    21    22    1
    22    21    23    1
    23    23    24    1
    24    20    25    1
    25    10    26    1
    26    26    27    1
    27    26    28    1
    28    28    29    1
    29    29    30    1
    30    29    31    1
    31    31    32    1
    32    28    33    1
    33    33     5    1
    34    25    12    1
@<TRIPOS>SUBSTRUCTURE
     1 RES1        1 GROUP             0 ****  ****    0  
@<TRIPOS>MOLECULE
ligand_65
    33    34     1     0     0
SMALL
USER_CHARGES
****
Generated from the CSD

@<TRIPOS>ATOM
     1 C1     -10.5117   7.1842   9.8926   C.2       1 RES1   0.0000
     2 C2      -9.2323   6.6390   9.8810   C.2       1 RES1   0.0000
     3 C3      -8.9099   5.6629   8.9324   C.2       1 RES1   0.0000
     4 O4      -7.7300   4.9920   8.7460   O.3       1 RES1   0.0000
     5 C5      -6.3716   5.4943   8.5967   C.3       1 RES1   0.0000
     6 C6      -6.2716   6.5919   7.5155   C.2       1 RES1   0.0000
     7 O7      -7.1531   6.6551   6.6108   O.co2     1 RES1   0.0000
     8 O8      -5.3085   7.3724   7.6138   O.co2     1 RES1  -1.0000
     9 C9      -5.5117   4.2763   8.2910   C.3       1 RES1   0.0000
    10 C10     -5.2440   3.4082   9.4980   C.3       1 RES1   0.0000
    11 O11     -4.3197   2.3967   9.0739   O.3       1 RES1   0.0000
    12 C12     -4.7274   1.0911   9.5858   C.3       1 RES1   0.0000
    13 C13     -4.8626   1.1438  11.1216   C.2       1 RES1   0.0000
    14 O14     -6.0245   1.3181  11.5748   O.co2     1 RES1   0.0000
    15 O15     -3.8435   0.9796  11.8192   O.co2     1 RES1  -1.0000
    16 C16     -3.7760  -0.0127   9.1619   C.3       1 RES1   0.0000
    17 C17     -3.8823  -0.3542   7.6673   C.3       1 RES1   0.0000
    18 C18     -5.3311  -0.5946   7.2308   C.3       1 RES1   0.0000
    19 O19     -5.8163  -1.8754   7.6513   O.3       1 RES1   0.0000
    20 C20     -6.2321   0.5465   7.7274   C.3       1 RES1   0.0000
    21 C21     -7.7210   0.3251   7.4551   C.3       1 RES1   0.0000
    22 O22     -7.8895   0.1025   6.0603   O.3       1 RES1   0.0000
    23 C23     -8.5660   1.5436   7.8573   C.3       1 RES1   0.0000
    24 O24     -9.9650   1.2559   7.6533   O.3       1 RES1   0.0000
    25 O25     -6.0694   0.7692   9.1280   O.3       1 RES1   0.0000
    26 C26     -4.7407   4.2375  10.6581   C.3       1 RES1   0.0000
    27 O27     -3.4263   4.7711  10.4430   O.3       1 RES1   0.0000
    28 C28     -5.7882   5.3079  10.9263   C.3       1 RES1   0.0000
    29 C29     -5.5029   6.2538  12.1021   C.3       1 RES1   0.0000
    30 O30     -5.3542   5.5143  13.3151   O.3       1 RES1   0.0000
    31 C31     -6.6347   7.2777  12.3008   C.3       1 RES1   0.0000
    32 O32     -6.6414   8.2352  11.2266   O.3       1 RES1   0.0000
    33 O33     -5.9302   6.1302   9.7745   O.3       1 RES1   0.0000
@<TRIPOS>BOND
     1     1     2    1
     2     2     3    2
     3     3     4    1
     4     5     4    1
     5     5     6    1
     6     6     7    2
     7     6     8    1
     8     5     9    1
     9     9    10    1
    10    10    11    1
    11    12    11    1
    12    12    13    1
    13    13    14    2
    14    13    15    1
    15    12    16    1
    16    16    17    1
    17    17    18    1
    18    18    19    1
    19    18    20    1
    20    20    21    1
    21    21    22    1
    22    21    23    1
    23    23    24    1
    24    20    25    1
    25    10    26    1
    26    26    27    1
    27    26    28    1
    28    28    29    1
    29    29    30    1
    30    29    31    1
    31    31    32    1
    32    28    33    1
    33    33     5    1
    34    25    12    1
@<TRIPOS>SUBSTRUCTURE
     1 RES1        1 GROUP             0 ****  ****    0  
@<TRIPOS>MOLECULE
ligand_66
    33    34     1     0     0
SMALL
USER_CHARGES
****
Generated from the CSD

@<TRIPOS>ATOM
     1 C1     -10.4643   7.0886  10.1553   C.2       1 RES1   0.0000
     2 C2      -9.1906   6.5375  10.0634   C.2       1 RES1   0.0000
     3 C3      -8.8989   5.6514   9.0212   C.2       1 RES1   0.0000
     4 O4      -7.7300   4.9920   8.7460   O.3       1 RES1   0.0000
     5 C5      -7.4344   3.5667   8.7160   C.3       1 RES1   0.0000
     6 C6      -7.7309   2.8814  10.0674   C.2       1 RES1   0.0000
     7 O7      -8.4871   3.4558  10.9027   O.co2     1 RES1   0.0000
     8 O8      -7.2001   1.7714  10.2475   O.co2     1 RES1  -1.0000
     9 C9      -5.9749   3.4558   8.2989   C.3       1 RES1   0.0000
    10 C10     -5.7467   3.7113   6.8277   C.3       1 RES1   0.0000
    11 O11     -4.3616   3.4349   6.5775   O.3       1 RES1   0.0000
    12 C12     -3.6389   4.6742   6.3044   C.3       1 RES1   0.0000
    13 C13     -4.3184   5.4394   5.1500   C.2       1 RES1   0.0000
    14 O14     -5.0437   6.4154   5.4770   O.co2     1 RES1   0.0000
    15 O15     -4.0915   5.0819   3.9783   O.co2     1 RES1  -1.0000
    16 C16     -2.1721   4.4272   6.0031   C.3       1 RES1   0.0000
    17 C17     -1.3676   4.0090   7.2439   C.3       1 RES1   0.0000
    18 C18     -1.5981   4.9538   8.4278   C.3       1 RES1   0.0000
    19 O19     -0.8933   6.1919   8.2757   O.3       1 RES1   0.0000
    20 C20     -3.1026   5.1781   8.6438   C.3       1 RES1   0.0000
    21 C21     -3.4272   6.2152   9.7203   C.3       1 RES1   0.0000
    22 O22     -2.7937   5.8144  10.9292   O.3       1 RES1   0.0000
    23 C23     -4.9382   6.3230   9.9771   C.3       1 RES1   0.0000
    24 O24     -5.1989   7.3888  10.9141   O.3       1 RES1   0.0000
    25 O25     -3.7498   5.5798   7.4365   O.3       1 RES1   0.0000
    26 C26     -6.6893   2.8832   5.9836   C.3       1 RES1   0.0000
    27 O27     -6.4072   1.4773   6.0354   O.3       1 RES1   0.0000
    28 C28     -8.1030   3.2299   6.4265   C.3       1 RES1   0.0000
    29 C29     -9.2402   2.5280   5.6697   C.3       1 RES1   0.0000
    30 O30    -10.4922   3.1543   5.9537   O.3       1 RES1   0.0000
    31 C31     -9.3504   1.0413   6.0524   C.3       1 RES1   0.0000
    32 O32    -10.3644   0.3926   5.2638   O.3       1 RES1   0.0000
    33 O33     -8.2652   2.8923   7.7986   O.3       1 RES1   0.0000
@<TRIPOS>BOND
     1     1     2    1
     2     2     3    2
     3     3     4    1
     4     5     4    1
     5     5     6    1
     6     6     7    2
     7     6     8    1
     8     5     9    1
     9     9    10    1
    10    10    11    1
    11    12    11    1
    12    12    13    1
    13    13    14    2
    14    13    15    1
    15    12    16    1
    16    16    17    1
    17    17    18    1
    18    18    19    1
    19    18    20    1
    20    20    21    1
    21    21    22    1
    22    21    23    1
    23    23    24    1
    24    20    25    1
    25    10    26    1
    26    26    27    1
    27    26    28    1
    28    28    29    1
    29    29    30    1
    30    29    31    1
    31    31    32    1
    32    28    33    1
    33    33     5    1
    34    25    12    1
@<TRIPOS>SUBSTRUCTURE
     1 RES1        1 GROUP             0 ****  ****    0  
@<TRIPOS>MOLECULE
ligand_67
    33    34     1     0     0
SMALL
USER_CHARGES
****
Generated from the CSD

@<TRIPOS>ATOM
     1 C1     -10.5467   7.0262  10.0826   C.2       1 RES1   0.0000
     2 C2      -9.2766   6.4602  10.0537   C.2       1 RES1   0.0000
     3 C3      -8.9098   5.6501   8.9740   C.2       1 RES1   0.0000
     4 O4      -7.7300   4.9920   8.7460   O.3       1 RES1   0.0000
     5 C5      -7.4344   3.5667   8.7160   C.3       1 RES1   0.0000
     6 C6      -5.9408   3.2868   8.4431   C.2       1 RES1   0.0000
     7 O7      -5.1848   2.9583   9.4023   O.co2     1 RES1   0.0000
     8 O8      -5.5696   3.3950   7.2612   O.co2     1 RES1  -1.0000
     9 C9      -8.3548   2.9757   7.6577   C.3       1 RES1   0.0000
    10 C10     -9.7901   2.8458   8.1105   C.3       1 RES1   0.0000
    11 O11    -10.4854   2.1547   7.0635   O.3       1 RES1   0.0000
    12 C12    -11.3997   3.0633   6.3769   C.3       1 RES1   0.0000
    13 C13    -12.3498   3.7268   7.3951   C.2       1 RES1   0.0000
    14 O14    -12.0753   4.9101   7.7269   O.co2     1 RES1   0.0000
    15 O15    -13.3374   3.0845   7.8005   O.co2     1 RES1  -1.0000
    16 C16    -12.1815   2.3667   5.2784   C.3       1 RES1   0.0000
    17 C17    -11.3158   2.0126   4.0589   C.3       1 RES1   0.0000
    18 C18    -10.4986   3.2099   3.5629   C.3       1 RES1   0.0000
    19 O19    -11.3013   4.1474   2.8353   O.3       1 RES1   0.0000
    20 C20     -9.7675   3.8777   4.7377   C.3       1 RES1   0.0000
    21 C21     -9.0324   5.1650   4.3602   C.3       1 RES1   0.0000
    22 O22     -8.1298   4.8675   3.3019   O.3       1 RES1   0.0000
    23 C23     -8.2274   5.7336   5.5389   C.3       1 RES1   0.0000
    24 O24     -7.6473   7.0012   5.1670   O.3       1 RES1   0.0000
    25 O25    -10.6636   4.1801   5.8070   O.3       1 RES1   0.0000
    26 C26     -9.8721   2.1502   9.4508   C.3       1 RES1   0.0000
    27 O27     -9.5070   0.7640   9.3913   O.3       1 RES1   0.0000
    28 C28     -9.0215   2.9554  10.4219   C.3       1 RES1   0.0000
    29 C29     -8.9882   2.4499  11.8717   C.3       1 RES1   0.0000
    30 O30     -8.4269   3.4401  12.7347   O.3       1 RES1   0.0000
    31 C31     -8.1536   1.1643  12.0108   C.3       1 RES1   0.0000
    32 O32     -8.2144   0.6684  13.3602   O.3       1 RES1   0.0000
    33 O33     -7.6729   2.9695   9.9703   O.3       1 RES1   0.0000
@<TRIPOS>BOND
     1     1     2    1
     2     2     3    2
     3     3     4    1
     4     5     4    1
     5     5     6    1
     6     6     7    2
     7     6     8    1
     8     5     9    1
     9     9    10    1
    10    10    11    1
    11    12    11    1
    12    12    13    1
    13    13    14    2
    14    13    15    1
    15    12    16    1
    16    16    17    1
    17    17    18    1
    18    18    19    1
    19    18    20    1
    20    20    21    1
    21    21    22    1
    22    21    23    1
    23    23    24    1
    24    20    25    1
    25    10    26    1
    26    26    27    1
    27    26    28    1
    28    28    29    1
    29    29    30    1
    30    29    31    1
    31    31    32    1
    32    28    33    1
    33    33     5    1
    34    25    12    1
@<TRIPOS>SUBSTRUCTURE
     1 RES1        1 GROUP             0 ****  ****    0  
@<TRIPOS>MOLECULE
ligand_68
    33    34     1     0     0
SMALL
USER_CHARGES
****
Generated from the CSD

@<TRIPOS>ATOM
     1 C1     -10.4643   7.0886  10.1553   C.2       1 RES1   0.0000
     2 C2      -9.1906   6.5375  10.0634   C.2       1 RES1   0.0000
     3 C3      -8.8989   5.6514   9.0212   C.2       1 RES1   0.0000
     4 O4      -7.7300   4.9920   8.7460   O.3       1 RES1   0.0000
     5 C5      -7.4344   3.5667   8.7160   C.3       1 RES1   0.0000
     6 C6      -7.7309   2.8814  10.0674   C.2       1 RES1   0.0000
     7 O7      -8.4871   3.4558  10.9027   O.co2     1 RES1   0.0000
     8 O8      -7.2001   1.7714  10.2475   O.co2     1 RES1  -1.0000
     9 C9      -5.9749   3.4558   8.2989   C.3       1 RES1   0.0000
    10 C10     -5.7467   3.7113   6.8277   C.3       1 RES1   0.0000
    11 O11     -4.3616   3.4349   6.5775   O.3       1 RES1   0.0000
    12 C12     -3.6265   4.6792   6.3677   C.3       1 RES1   0.0000
    13 C13     -4.3014   5.5116   5.2580   C.2       1 RES1   0.0000
    14 O14     -5.0095   6.4808   5.6387   O.co2     1 RES1   0.0000
    15 O15     -4.0875   5.2103   4.0682   O.co2     1 RES1  -1.0000
    16 C16     -2.1634   4.4330   6.0481   C.3       1 RES1   0.0000
    17 C17     -1.3595   3.9411   7.2619   C.3       1 RES1   0.0000
    18 C18     -1.5758   4.8243   8.4950   C.3       1 RES1   0.0000
    19 O19     -0.8582   6.0611   8.4060   O.3       1 RES1   0.0000
    20 C20     -3.0771   5.0528   8.7284   C.3       1 RES1   0.0000
    21 C21     -3.3870   6.0347   9.8595   C.3       1 RES1   0.0000
    22 O22     -4.7381   5.8401  10.2595   O.3       1 RES1   0.0000
    23 C23     -3.2186   7.4956   9.4144   C.3       1 RES1   0.0000
    24 O24     -3.4820   8.3775  10.5254   O.3       1 RES1   0.0000
    25 O25     -3.7239   5.5247   7.5465   O.3       1 RES1   0.0000
    26 C26     -6.6893   2.8832   5.9836   C.3       1 RES1   0.0000
    27 O27     -6.4072   1.4773   6.0354   O.3       1 RES1   0.0000
    28 C28     -8.1030   3.2299   6.4265   C.3       1 RES1   0.0000
    29 C29     -9.2402   2.5280   5.6697   C.3       1 RES1   0.0000
    30 O30     -9.1603   2.8101   4.2717   O.3       1 RES1   0.0000
    31 C31    -10.6243   2.9773   6.1710   C.3       1 RES1   0.0000
    32 O32    -11.6625   2.2045   5.5419   O.3       1 RES1   0.0000
    33 O33     -8.2652   2.8923   7.7986   O.3       1 RES1   0.0000
@<TRIPOS>BOND
     1     1     2    1
     2     2     3    2
     3     3     4    1
     4     5     4    1
     5     5     6    1
     6     6     7    2
     7     6     8    1
     8     5     9    1
     9     9    10    1
    10    10    11    1
    11    12    11    1
    12    12    13    1
    13    13    14    2
    14    13    15    1
    15    12    16    1
    16    16    17    1
    17    17    18    1
    18    18    19    1
    19    18    20    1
    20    20    21    1
    21    21    22    1
    22    21    23    1
    23    23    24    1
    24    20    25    1
    25    10    26    1
    26    26    27    1
    27    26    28    1
    28    28    29    1
    29    29    30    1
    30    29    31    1
    31    31    32    1
    32    28    33    1
    33    33     5    1
    34    25    12    1
@<TRIPOS>SUBSTRUCTURE
     1 RES1        1 GROUP             0 ****  ****    0  
@<TRIPOS>MOLECULE
ligand_69
    33    34     1     0     0
SMALL
USER_CHARGES
****
Generated from the CSD

@<TRIPOS>ATOM
     1 C1     -10.5472   7.0260  10.0819   C.2       1 RES1   0.0000
     2 C2      -9.2770   6.4600  10.0534   C.2       1 RES1   0.0000
     3 C3      -8.9098   5.6501   8.9737   C.2       1 RES1   0.0000
     4 O4      -7.7300   4.9920   8.7460   O.3       1 RES1   0.0000
     5 C5      -7.4344   3.5667   8.7160   C.3       1 RES1   0.0000
     6 C6      -5.9408   3.2868   8.4431   C.2       1 RES1   0.0000
     7 O7      -5.1848   2.9583   9.4023   O.co2     1 RES1   0.0000
     8 O8      -5.5696   3.3950   7.2612   O.co2     1 RES1  -1.0000
     9 C9      -8.3548   2.9757   7.6577   C.3       1 RES1   0.0000
    10 C10     -9.7901   2.8458   8.1105   C.3       1 RES1   0.0000
    11 O11    -10.4854   2.1547   7.0635   O.3       1 RES1   0.0000
    12 C12    -11.3528   3.0776   6.3364   C.3       1 RES1   0.0000
    13 C13    -12.2879   3.8109   7.3202   C.2       1 RES1   0.0000
    14 O14    -11.9730   4.9942   7.6137   O.co2     1 RES1   0.0000
    15 O15    -13.3025   3.2199   7.7366   O.co2     1 RES1  -1.0000
    16 C16    -12.1486   2.3790   5.2492   C.3       1 RES1   0.0000
    17 C17    -11.2828   1.9518   4.0535   C.3       1 RES1   0.0000
    18 C18    -10.4109   3.0987   3.5321   C.3       1 RES1   0.0000
    19 O19    -11.1652   4.0447   2.7647   O.3       1 RES1   0.0000
    20 C20     -9.6680   3.7730   4.6957   C.3       1 RES1   0.0000
    21 C21     -8.8761   5.0168   4.2888   C.3       1 RES1   0.0000
    22 O22     -7.9208   5.2884   5.3071   O.3       1 RES1   0.0000
    23 C23     -9.7812   6.2483   4.1320   C.3       1 RES1   0.0000
    24 O24     -8.9944   7.3814   3.7092   O.3       1 RES1   0.0000
    25 O25    -10.5644   4.1451   5.7425   O.3       1 RES1   0.0000
    26 C26     -9.8721   2.1502   9.4508   C.3       1 RES1   0.0000
    27 O27     -9.5070   0.7640   9.3913   O.3       1 RES1   0.0000
    28 C28     -9.0215   2.9554  10.4219   C.3       1 RES1   0.0000
    29 C29     -8.9882   2.4499  11.8717   C.3       1 RES1   0.0000
    30 O30    -10.3082   2.4009  12.4154   O.3       1 RES1   0.0000
    31 C31     -8.1315   3.3555  12.7743   C.3       1 RES1   0.0000
    32 O32     -8.0071   2.7829  14.0886   O.3       1 RES1   0.0000
    33 O33     -7.6729   2.9695   9.9703   O.3       1 RES1   0.0000
@<TRIPOS>BOND
     1     1     2    1
     2     2     3    2
     3     3     4    1
     4     5     4    1
     5     5     6    1
     6     6     7    2
     7     6     8    1
     8     5     9    1
     9     9    10    1
    10    10    11    1
    11    12    11    1
    12    12    13    1
    13    13    14    2
    14    13    15    1
    15    12    16    1
    16    16    17    1
    17    17    18    1
    18    18    19    1
    19    18    20    1
    20    20    21    1
    21    21    22    1
    22    21    23    1
    23    23    24    1
    24    20    25    1
    25    10    26    1
    26    26    27    1
    27    26    28    1
    28    28    29    1
    29    29    30    1
    30    29    31    1
    31    31    32    1
    32    28    33    1
    33    33     5    1
    34    25    12    1
@<TRIPOS>SUBSTRUCTURE
     1 RES1        1 GROUP             0 ****  ****    0  
@<TRIPOS>MOLECULE
ligand_70
    33    34     1     0     0
SMALL
USER_CHARGES
****
Generated from the CSD

@<TRIPOS>ATOM
     1 C1     -10.4880   7.1712   9.9719   C.2       1 RES1   0.0000
     2 C2      -9.2092   6.6261   9.9290   C.2       1 RES1   0.0000
     3 C3      -8.9057   5.6609   8.9631   C.2       1 RES1   0.0000
     4 O4      -7.7300   4.9920   8.7460   O.3       1 RES1   0.0000
     5 C5      -6.3716   5.4943   8.5967   C.3       1 RES1   0.0000
     6 C6      -6.2716   6.5919   7.5155   C.2       1 RES1   0.0000
     7 O7      -5.8016   6.3023   6.3776   O.co2     1 RES1   0.0000
     8 O8      -6.6821   7.7200   7.8397   O.co2     1 RES1  -1.0000
     9 C9      -5.5117   4.2763   8.2910   C.3       1 RES1   0.0000
    10 C10     -5.2440   3.4082   9.4980   C.3       1 RES1   0.0000
    11 O11     -4.3197   2.3967   9.0739   O.3       1 RES1   0.0000
    12 C12     -4.9810   1.0956   9.0224   C.3       1 RES1   0.0000
    13 C13     -5.6602   0.7936  10.3742   C.2       1 RES1   0.0000
    14 O14     -5.1086   1.2780  11.3973   O.co2     1 RES1   0.0000
    15 O15     -6.7150   0.1306  10.3804   O.co2     1 RES1  -1.0000
    16 C16     -4.0251  -0.0175   8.6342   C.3       1 RES1   0.0000
    17 C17     -3.6066   0.0403   7.1566   C.3       1 RES1   0.0000
    18 C18     -4.8117   0.1663   6.2189   C.3       1 RES1   0.0000
    19 O19     -5.5099  -1.0755   6.0671   O.3       1 RES1   0.0000
    20 C20     -5.7443   1.2886   6.6998   C.3       1 RES1   0.0000
    21 C21     -7.0447   1.3995   5.9021   C.3       1 RES1   0.0000
    22 O22     -6.7127   1.5015   4.5227   O.3       1 RES1   0.0000
    23 C23     -7.8577   2.6414   6.2985   C.3       1 RES1   0.0000
    24 O24     -8.3232   2.5064   7.6574   O.3       1 RES1   0.0000
    25 O25     -6.0851   1.1307   8.0771   O.3       1 RES1   0.0000
    26 C26     -4.7407   4.2375  10.6581   C.3       1 RES1   0.0000
    27 O27     -3.4263   4.7711  10.4430   O.3       1 RES1   0.0000
    28 C28     -5.7882   5.3079  10.9263   C.3       1 RES1   0.0000
    29 C29     -5.5029   6.2538  12.1021   C.3       1 RES1   0.0000
    30 O30     -5.3471   5.5137  13.3139   O.3       1 RES1   0.0000
    31 C31     -6.6383   7.2728  12.3056   C.3       1 RES1   0.0000
    32 O32     -6.2819   8.2268  13.3223   O.3       1 RES1   0.0000
    33 O33     -5.9302   6.1302   9.7745   O.3       1 RES1   0.0000
@<TRIPOS>BOND
     1     1     2    1
     2     2     3    2
     3     3     4    1
     4     5     4    1
     5     5     6    1
     6     6     7    2
     7     6     8    1
     8     5     9    1
     9     9    10    1
    10    10    11    1
    11    12    11    1
    12    12    13    1
    13    13    14    2
    14    13    15    1
    15    12    16    1
    16    16    17    1
    17    17    18    1
    18    18    19    1
    19    18    20    1
    20    20    21    1
    21    21    22    1
    22    21    23    1
    23    23    24    1
    24    20    25    1
    25    10    26    1
    26    26    27    1
    27    26    28    1
    28    28    29    1
    29    29    30    1
    30    29    31    1
    31    31    32    1
    32    28    33    1
    33    33     5    1
    34    25    12    1
@<TRIPOS>SUBSTRUCTURE
     1 RES1        1 GROUP             0 ****  ****    0  
@<TRIPOS>MOLECULE
ligand_71
    33    34     1     0     0
SMALL
USER_CHARGES
****
Generated from the CSD

@<TRIPOS>ATOM
     1 C1     -10.4183   7.1279  10.1845   C.2       1 RES1   0.0000
     2 C2      -9.1471   6.5766  10.0646   C.2       1 RES1   0.0000
     3 C3      -8.8903   5.6577   9.0417   C.2       1 RES1   0.0000
     4 O4      -7.7300   4.9920   8.7460   O.3       1 RES1   0.0000
     5 C5      -6.8676   4.1771   9.5898   C.3       1 RES1   0.0000
     6 C6      -6.3659   4.9497  10.8288   C.2       1 RES1   0.0000
     7 O7      -5.1933   5.4235  10.8328   O.co2     1 RES1   0.0000
     8 O8      -7.1750   5.0689  11.7655   O.co2     1 RES1  -1.0000
     9 C9      -5.7388   3.6991   8.6878   C.3       1 RES1   0.0000
    10 C10     -6.1486   2.5954   7.7414   C.3       1 RES1   0.0000
    11 O11     -4.9538   2.1706   7.0711   O.3       1 RES1   0.0000
    12 C12     -4.9871   2.5786   5.6692   C.3       1 RES1   0.0000
    13 C13     -6.2869   2.0807   5.0041   C.2       1 RES1   0.0000
    14 O14     -6.7661   1.0049   5.4497   O.co2     1 RES1   0.0000
    15 O15     -6.8029   2.7713   4.1047   O.co2     1 RES1  -1.0000
    16 C16     -3.7673   2.0988   4.9042   C.3       1 RES1   0.0000
    17 C17     -2.4840   2.8514   5.2895   C.3       1 RES1   0.0000
    18 C18     -2.6716   4.3716   5.2504   C.3       1 RES1   0.0000
    19 O19     -2.6768   4.8807   3.9112   O.3       1 RES1   0.0000
    20 C20     -3.9426   4.7702   6.0160   C.3       1 RES1   0.0000
    21 C21     -4.2859   6.2575   5.9172   C.3       1 RES1   0.0000
    22 O22     -3.1405   7.0050   6.3079   O.3       1 RES1   0.0000
    23 C23     -5.4530   6.6403   6.8402   C.3       1 RES1   0.0000
    24 O24     -6.6635   5.9989   6.3876   O.3       1 RES1   0.0000
    25 O25     -5.0764   4.0263   5.5697   O.3       1 RES1   0.0000
    26 C26     -6.8524   1.4817   8.4839   C.3       1 RES1   0.0000
    27 O27     -5.9827   0.7465   9.3566   O.3       1 RES1   0.0000
    28 C28     -8.0380   2.1076   9.2034   C.3       1 RES1   0.0000
    29 C29     -8.9307   1.1448  10.0001   C.3       1 RES1   0.0000
    30 O30     -9.4519   0.1238   9.1478   O.3       1 RES1   0.0000
    31 C31    -10.1172   1.8739  10.6553   C.3       1 RES1   0.0000
    32 O32    -10.8537   0.9750  11.5039   O.3       1 RES1   0.0000
    33 O33     -7.5698   3.0805  10.1291   O.3       1 RES1   0.0000
@<TRIPOS>BOND
     1     1     2    1
     2     2     3    2
     3     3     4    1
     4     5     4    1
     5     5     6    1
     6     6     7    2
     7     6     8    1
     8     5     9    1
     9     9    10    1
    10    10    11    1
    11    12    11    1
    12    12    13    1
    13    13    14    2
    14    13    15    1
    15    12    16    1
    16    16    17    1
    17    17    18    1
    18    18    19    1
    19    18    20    1
    20    20    21    1
    21    21    22    1
    22    21    23    1
    23    23    24    1
    24    20    25    1
    25    10    26    1
    26    26    27    1
    27    26    28    1
    28    28    29    1
    29    29    30    1
    30    29    31    1
    31    31    32    1
    32    28    33    1
    33    33     5    1
    34    25    12    1
@<TRIPOS>SUBSTRUCTURE
     1 RES1        1 GROUP             0 ****  ****    0  
@<TRIPOS>MOLECULE
ligand_72
    33    34     1     0     0
SMALL
USER_CHARGES
****
Generated from the CSD

@<TRIPOS>ATOM
     1 C1     -10.5945   6.8933  10.1736   C.2       1 RES1   0.0000
     2 C2      -9.2957   6.4022  10.0942   C.2       1 RES1   0.0000
     3 C3      -8.9345   5.5858   9.0174   C.2       1 RES1   0.0000
     4 O4      -7.7300   4.9920   8.7460   O.3       1 RES1   0.0000
     5 C5      -6.8676   4.1771   9.5898   C.3       1 RES1   0.0000
     6 C6      -6.3659   4.9497  10.8288   C.2       1 RES1   0.0000
     7 O7      -6.2976   6.2119  10.7884   O.co2     1 RES1   0.0000
     8 O8      -6.0631   4.2611  11.8190   O.co2     1 RES1  -1.0000
     9 C9      -5.7388   3.6991   8.6878   C.3       1 RES1   0.0000
    10 C10     -6.1486   2.5954   7.7414   C.3       1 RES1   0.0000
    11 O11     -4.9538   2.1706   7.0711   O.3       1 RES1   0.0000
    12 C12     -4.8225   2.8547   5.7875   C.3       1 RES1   0.0000
    13 C13     -6.2047   2.9885   5.1156   C.2       1 RES1   0.0000
    14 O14     -6.7456   4.1242   5.1712   O.co2     1 RES1   0.0000
    15 O15     -6.6877   1.9975   4.5352   O.co2     1 RES1  -1.0000
    16 C16     -3.8360   2.1601   4.8668   C.3       1 RES1   0.0000
    17 C17     -2.3764   2.3248   5.3187   C.3       1 RES1   0.0000
    18 C18     -2.0211   3.7876   5.6040   C.3       1 RES1   0.0000
    19 O19     -1.8292   4.5413   4.4007   O.3       1 RES1   0.0000
    20 C20     -3.0840   4.4255   6.5117   C.3       1 RES1   0.0000
    21 C21     -2.8852   5.9246   6.7415   C.3       1 RES1   0.0000
    22 O22     -1.5471   6.1342   7.1762   O.3       1 RES1   0.0000
    23 C23     -3.8360   6.4720   7.8172   C.3       1 RES1   0.0000
    24 O24     -3.6252   5.7675   9.0586   O.3       1 RES1   0.0000
    25 O25     -4.3996   4.2305   5.9929   O.3       1 RES1   0.0000
    26 C26     -6.8524   1.4817   8.4839   C.3       1 RES1   0.0000
    27 O27     -5.9827   0.7465   9.3566   O.3       1 RES1   0.0000
    28 C28     -8.0380   2.1076   9.2034   C.3       1 RES1   0.0000
    29 C29     -8.9307   1.1448  10.0001   C.3       1 RES1   0.0000
    30 O30     -9.4519   0.1238   9.1478   O.3       1 RES1   0.0000
    31 C31    -10.1172   1.8739  10.6553   C.3       1 RES1   0.0000
    32 O32    -10.8537   0.9750  11.5039   O.3       1 RES1   0.0000
    33 O33     -7.5698   3.0805  10.1291   O.3       1 RES1   0.0000
@<TRIPOS>BOND
     1     1     2    1
     2     2     3    2
     3     3     4    1
     4     5     4    1
     5     5     6    1
     6     6     7    2
     7     6     8    1
     8     5     9    1
     9     9    10    1
    10    10    11    1
    11    12    11    1
    12    12    13    1
    13    13    14    2
    14    13    15    1
    15    12    16    1
    16    16    17    1
    17    17    18    1
    18    18    19    1
    19    18    20    1
    20    20    21    1
    21    21    22    1
    22    21    23    1
    23    23    24    1
    24    20    25    1
    25    10    26    1
    26    26    27    1
    27    26    28    1
    28    28    29    1
    29    29    30    1
    30    29    31    1
    31    31    32    1
    32    28    33    1
    33    33     5    1
    34    25    12    1
@<TRIPOS>SUBSTRUCTURE
     1 RES1        1 GROUP             0 ****  ****    0  
@<TRIPOS>MOLECULE
ligand_73
    33    34     1     0     0
SMALL
USER_CHARGES
****
Generated from the CSD

@<TRIPOS>ATOM
     1 C1     -10.4449   7.1034  10.1706   C.2       1 RES1   0.0000
     2 C2      -9.1720   6.5529  10.0658   C.2       1 RES1   0.0000
     3 C3      -8.8955   5.6533   9.0310   C.2       1 RES1   0.0000
     4 O4      -7.7300   4.9920   8.7460   O.3       1 RES1   0.0000
     5 C5      -6.3716   5.4943   8.5967   C.3       1 RES1   0.0000
     6 C6      -6.2716   6.5919   7.5155   C.2       1 RES1   0.0000
     7 O7      -6.1933   7.8044   7.8664   O.co2     1 RES1   0.0000
     8 O8      -6.2632   6.2000   6.3353   O.co2     1 RES1  -1.0000
     9 C9      -5.5117   4.2763   8.2910   C.3       1 RES1   0.0000
    10 C10     -5.2440   3.4082   9.4980   C.3       1 RES1   0.0000
    11 O11     -4.3197   2.3967   9.0739   O.3       1 RES1   0.0000
    12 C12     -4.7275   1.0911   9.5857   C.3       1 RES1   0.0000
    13 C13     -4.8629   1.1437  11.1215   C.2       1 RES1   0.0000
    14 O14     -6.0248   1.3181  11.5745   O.co2     1 RES1   0.0000
    15 O15     -3.8439   0.9795  11.8193   O.co2     1 RES1  -1.0000
    16 C16     -3.7760  -0.0127   9.1619   C.3       1 RES1   0.0000
    17 C17     -3.8821  -0.3541   7.6673   C.3       1 RES1   0.0000
    18 C18     -5.3309  -0.5945   7.2306   C.3       1 RES1   0.0000
    19 O19     -5.8161  -1.8753   7.6510   O.3       1 RES1   0.0000
    20 C20     -6.2319   0.5466   7.7271   C.3       1 RES1   0.0000
    21 C21     -7.7207   0.3251   7.4546   C.3       1 RES1   0.0000
    22 O22     -8.3822   1.5806   7.5532   O.3       1 RES1   0.0000
    23 C23     -8.3538  -0.6378   8.4707   C.3       1 RES1   0.0000
    24 O24     -9.7444  -0.8441   8.1465   O.3       1 RES1   0.0000
    25 O25     -6.0694   0.7692   9.1278   O.3       1 RES1   0.0000
    26 C26     -4.7407   4.2375  10.6581   C.3       1 RES1   0.0000
    27 O27     -3.4263   4.7711  10.4430   O.3       1 RES1   0.0000
    28 C28     -5.7882   5.3079  10.9263   C.3       1 RES1   0.0000
    29 C29     -5.5029   6.2538  12.1021   C.3       1 RES1   0.0000
    30 O30     -6.6755   6.9939  12.4454   O.3       1 RES1   0.0000
    31 C31     -4.3831   7.2566  11.7716   C.3       1 RES1   0.0000
    32 O32     -4.0794   8.0683  12.9203   O.3       1 RES1   0.0000
    33 O33     -5.9302   6.1302   9.7745   O.3       1 RES1   0.0000
@<TRIPOS>BOND
     1     1     2    1
     2     2     3    2
     3     3     4    1
     4     5     4    1
     5     5     6    1
     6     6     7    2
     7     6     8    1
     8     5     9    1
     9     9    10    1
    10    10    11    1
    11    12    11    1
    12    12    13    1
    13    13    14    2
    14    13    15    1
    15    12    16    1
    16    16    17    1
    17    17    18    1
    18    18    19    1
    19    18    20    1
    20    20    21    1
    21    21    22    1
    22    21    23    1
    23    23    24    1
    24    20    25    1
    25    10    26    1
    26    26    27    1
    27    26    28    1
    28    28    29    1
    29    29    30    1
    30    29    31    1
    31    31    32    1
    32    28    33    1
    33    33     5    1
    34    25    12    1
@<TRIPOS>SUBSTRUCTURE
     1 RES1        1 GROUP             0 ****  ****    0  
@<TRIPOS>MOLECULE
ligand_74
    33    34     1     0     0
SMALL
USER_CHARGES
****
Generated from the CSD

@<TRIPOS>ATOM
     1 C1     -10.4390   7.0930  10.1970   C.2       1 RES1   0.0000
     2 C2      -9.1670   6.5420  10.0840   C.2       1 RES1   0.0000
     3 C3      -8.8940   5.6520   9.0400   C.2       1 RES1   0.0000
     4 O4      -7.7300   4.9920   8.7460   O.3       1 RES1   0.0000
     5 C5      -6.8676   4.1771   9.5898   C.3       1 RES1   0.0000
     6 C6      -6.3659   4.9497  10.8288   C.2       1 RES1   0.0000
     7 O7      -6.9015   4.7346  11.9541   O.co2     1 RES1   0.0000
     8 O8      -5.4328   5.7488  10.6361   O.co2     1 RES1  -1.0000
     9 C9      -5.7388   3.6991   8.6878   C.3       1 RES1   0.0000
    10 C10     -6.1486   2.5954   7.7414   C.3       1 RES1   0.0000
    11 O11     -4.9538   2.1706   7.0711   O.3       1 RES1   0.0000
    12 C12     -5.2070   2.0018   5.6427   C.3       1 RES1   0.0000
    13 C13     -6.3738   1.0163   5.4251   C.2       1 RES1   0.0000
    14 O14     -7.5082   1.5273   5.2312   O.co2     1 RES1   0.0000
    15 O15     -6.1328  -0.2060   5.4177   O.co2     1 RES1  -1.0000
    16 C16     -3.9681   1.5511   4.8909   C.3       1 RES1   0.0000
    17 C17     -2.9080   2.6566   4.7654   C.3       1 RES1   0.0000
    18 C18     -3.4998   3.9679   4.2385   C.3       1 RES1   0.0000
    19 O19     -3.7484   3.9200   2.8284   O.3       1 RES1   0.0000
    20 C20     -4.7661   4.3345   5.0276   C.3       1 RES1   0.0000
    21 C21     -5.5034   5.5595   4.4838   C.3       1 RES1   0.0000
    22 O22     -6.3680   6.0466   5.5029   O.3       1 RES1   0.0000
    23 C23     -6.3525   5.2179   3.2497   C.3       1 RES1   0.0000
    24 O24     -6.9931   6.4114   2.7528   O.3       1 RES1   0.0000
    25 O25     -5.6900   3.2469   5.0679   O.3       1 RES1   0.0000
    26 C26     -6.8524   1.4817   8.4839   C.3       1 RES1   0.0000
    27 O27     -5.9827   0.7465   9.3566   O.3       1 RES1   0.0000
    28 C28     -8.0380   2.1076   9.2034   C.3       1 RES1   0.0000
    29 C29     -8.9307   1.1448  10.0001   C.3       1 RES1   0.0000
    30 O30    -10.1567   1.7822  10.3621   O.3       1 RES1   0.0000
    31 C31     -8.2433   0.6610  11.2893   C.3       1 RES1   0.0000
    32 O32     -9.0670  -0.3052  11.9667   O.3       1 RES1   0.0000
    33 O33     -7.5698   3.0805  10.1291   O.3       1 RES1   0.0000
@<TRIPOS>BOND
     1     1     2    1
     2     2     3    2
     3     3     4    1
     4     5     4    1
     5     5     6    1
     6     6     7    2
     7     6     8    1
     8     5     9    1
     9     9    10    1
    10    10    11    1
    11    12    11    1
    12    12    13    1
    13    13    14    2
    14    13    15    1
    15    12    16    1
    16    16    17    1
    17    17    18    1
    18    18    19    1
    19    18    20    1
    20    20    21    1
    21    21    22    1
    22    21    23    1
    23    23    24    1
    24    20    25    1
    25    10    26    1
    26    26    27    1
    27    26    28    1
    28    28    29    1
    29    29    30    1
    30    29    31    1
    31    31    32    1
    32    28    33    1
    33    33     5    1
    34    25    12    1
@<TRIPOS>SUBSTRUCTURE
     1 RES1        1 GROUP             0 ****  ****    0  
@<TRIPOS>MOLECULE
ligand_75
    33    34     1     0     0
SMALL
USER_CHARGES
****
Generated from the CSD

@<TRIPOS>ATOM
     1 C1     -10.4390   7.0930  10.1970   C.2       1 RES1   0.0000
     2 C2      -9.1670   6.5420  10.0840   C.2       1 RES1   0.0000
     3 C3      -8.8940   5.6520   9.0400   C.2       1 RES1   0.0000
     4 O4      -7.7300   4.9920   8.7460   O.3       1 RES1   0.0000
     5 C5      -6.8676   4.1771   9.5898   C.3       1 RES1   0.0000
     6 C6      -6.3659   4.9497  10.8288   C.2       1 RES1   0.0000
     7 O7      -6.9015   4.7346  11.9541   O.co2     1 RES1   0.0000
     8 O8      -5.4328   5.7488  10.6361   O.co2     1 RES1  -1.0000
     9 C9      -5.7388   3.6991   8.6878   C.3       1 RES1   0.0000
    10 C10     -6.1486   2.5954   7.7414   C.3       1 RES1   0.0000
    11 O11     -4.9538   2.1706   7.0711   O.3       1 RES1   0.0000
    12 C12     -5.1989   2.0322   5.6380   C.3       1 RES1   0.0000
    13 C13     -6.2967   0.9774   5.3885   C.2       1 RES1   0.0000
    14 O14     -7.1992   1.2932   4.5691   O.co2     1 RES1   0.0000
    15 O15     -6.2162  -0.1210   5.9708   O.co2     1 RES1  -1.0000
    16 C16     -3.9343   1.6916   4.8712   C.3       1 RES1   0.0000
    17 C17     -2.9519   2.8701   4.7818   C.3       1 RES1   0.0000
    18 C18     -3.6327   4.1548   4.2988   C.3       1 RES1   0.0000
    19 O19     -3.8813   4.1366   2.8879   O.3       1 RES1   0.0000
    20 C20     -4.9189   4.4084   5.1002   C.3       1 RES1   0.0000
    21 C21     -5.7390   5.5977   4.5975   C.3       1 RES1   0.0000
    22 O22     -4.8899   6.7383   4.5581   O.3       1 RES1   0.0000
    23 C23     -6.9263   5.9086   5.5218   C.3       1 RES1   0.0000
    24 O24     -7.9206   4.8697   5.4047   O.3       1 RES1   0.0000
    25 O25     -5.7667   3.2599   5.1050   O.3       1 RES1   0.0000
    26 C26     -6.8524   1.4817   8.4839   C.3       1 RES1   0.0000
    27 O27     -5.9827   0.7465   9.3566   O.3       1 RES1   0.0000
    28 C28     -8.0380   2.1076   9.2034   C.3       1 RES1   0.0000
    29 C29     -8.9307   1.1448  10.0001   C.3       1 RES1   0.0000
    30 O30     -9.4519   0.1238   9.1478   O.3       1 RES1   0.0000
    31 C31    -10.1172   1.8739  10.6553   C.3       1 RES1   0.0000
    32 O32    -10.9221   2.5247   9.6556   O.3       1 RES1   0.0000
    33 O33     -7.5698   3.0805  10.1291   O.3       1 RES1   0.0000
@<TRIPOS>BOND
     1     1     2    1
     2     2     3    2
     3     3     4    1
     4     5     4    1
     5     5     6    1
     6     6     7    2
     7     6     8    1
     8     5     9    1
     9     9    10    1
    10    10    11    1
    11    12    11    1
    12    12    13    1
    13    13    14    2
    14    13    15    1
    15    12    16    1
    16    16    17    1
    17    17    18    1
    18    18    19    1
    19    18    20    1
    20    20    21    1
    21    21    22    1
    22    21    23    1
    23    23    24    1
    24    20    25    1
    25    10    26    1
    26    26    27    1
    27    26    28    1
    28    28    29    1
    29    29    30    1
    30    29    31    1
    31    31    32    1
    32    28    33    1
    33    33     5    1
    34    25    12    1
@<TRIPOS>SUBSTRUCTURE
     1 RES1        1 GROUP             0 ****  ****    0  
@<TRIPOS>MOLECULE
ligand_76
    33    34     1     0     0
SMALL
USER_CHARGES
****
Generated from the CSD

@<TRIPOS>ATOM
     1 C1     -10.5116   7.1844   9.8925   C.2       1 RES1   0.0000
     2 C2      -9.2321   6.6393   9.8808   C.2       1 RES1   0.0000
     3 C3      -8.9099   5.6629   8.9324   C.2       1 RES1   0.0000
     4 O4      -7.7300   4.9920   8.7460   O.3       1 RES1   0.0000
     5 C5      -6.3716   5.4943   8.5967   C.3       1 RES1   0.0000
     6 C6      -6.2716   6.5919   7.5155   C.2       1 RES1   0.0000
     7 O7      -6.1933   7.8044   7.8664   O.co2     1 RES1   0.0000
     8 O8      -6.2632   6.2000   6.3353   O.co2     1 RES1  -1.0000
     9 C9      -5.5117   4.2763   8.2910   C.3       1 RES1   0.0000
    10 C10     -5.2440   3.4082   9.4980   C.3       1 RES1   0.0000
    11 O11     -4.3197   2.3967   9.0739   O.3       1 RES1   0.0000
    12 C12     -4.7321   1.0898   9.5787   C.3       1 RES1   0.0000
    13 C13     -4.8147   1.1196  11.1188   C.2       1 RES1   0.0000
    14 O14     -5.8562   0.6326  11.6322   O.co2     1 RES1   0.0000
    15 O15     -3.8529   1.5816  11.7621   O.co2     1 RES1  -1.0000
    16 C16     -3.8143  -0.0224   9.1055   C.3       1 RES1   0.0000
    17 C17     -3.9765  -0.3377   7.6101   C.3       1 RES1   0.0000
    18 C18     -5.4431  -0.5471   7.2192   C.3       1 RES1   0.0000
    19 O19     -5.9356  -1.8264   7.6357   O.3       1 RES1   0.0000
    20 C20     -6.3074   0.6004   7.7640   C.3       1 RES1   0.0000
    21 C21     -7.8081   0.4080   7.5388   C.3       1 RES1   0.0000
    22 O22     -8.0207   0.1508   6.1560   O.3       1 RES1   0.0000
    23 C23     -8.6125   1.6575   7.9290   C.3       1 RES1   0.0000
    24 O24     -8.1693   2.7866   7.1478   O.3       1 RES1   0.0000
    25 O25     -6.0939   0.7975   9.1616   O.3       1 RES1   0.0000
    26 C26     -4.7407   4.2375  10.6581   C.3       1 RES1   0.0000
    27 O27     -3.4263   4.7711  10.4430   O.3       1 RES1   0.0000
    28 C28     -5.7882   5.3079  10.9263   C.3       1 RES1   0.0000
    29 C29     -5.5029   6.2538  12.1021   C.3       1 RES1   0.0000
    30 O30     -5.3544   5.5143  13.3152   O.3       1 RES1   0.0000
    31 C31     -6.6346   7.2778  12.3007   C.3       1 RES1   0.0000
    32 O32     -6.6410   8.2354  11.2265   O.3       1 RES1   0.0000
    33 O33     -5.9302   6.1302   9.7745   O.3       1 RES1   0.0000
@<TRIPOS>BOND
     1     1     2    1
     2     2     3    2
     3     3     4    1
     4     5     4    1
     5     5     6    1
     6     6     7    2
     7     6     8    1
     8     5     9    1
     9     9    10    1
    10    10    11    1
    11    12    11    1
    12    12    13    1
    13    13    14    2
    14    13    15    1
    15    12    16    1
    16    16    17    1
    17    17    18    1
    18    18    19    1
    19    18    20    1
    20    20    21    1
    21    21    22    1
    22    21    23    1
    23    23    24    1
    24    20    25    1
    25    10    26    1
    26    26    27    1
    27    26    28    1
    28    28    29    1
    29    29    30    1
    30    29    31    1
    31    31    32    1
    32    28    33    1
    33    33     5    1
    34    25    12    1
@<TRIPOS>SUBSTRUCTURE
     1 RES1        1 GROUP             0 ****  ****    0  
@<TRIPOS>MOLECULE
ligand_77
    33    34     1     0     0
SMALL
USER_CHARGES
****
Generated from the CSD

@<TRIPOS>ATOM
     1 C1     -10.4390   7.0930  10.1970   C.2       1 RES1   0.0000
     2 C2      -9.1670   6.5420  10.0840   C.2       1 RES1   0.0000
     3 C3      -8.8940   5.6520   9.0400   C.2       1 RES1   0.0000
     4 O4      -7.7300   4.9920   8.7460   O.3       1 RES1   0.0000
     5 C5      -6.8676   4.1771   9.5898   C.3       1 RES1   0.0000
     6 C6      -6.3659   4.9497  10.8288   C.2       1 RES1   0.0000
     7 O7      -6.9015   4.7346  11.9541   O.co2     1 RES1   0.0000
     8 O8      -5.4328   5.7488  10.6361   O.co2     1 RES1  -1.0000
     9 C9      -5.7388   3.6991   8.6878   C.3       1 RES1   0.0000
    10 C10     -6.1486   2.5954   7.7414   C.3       1 RES1   0.0000
    11 O11     -4.9538   2.1706   7.0711   O.3       1 RES1   0.0000
    12 C12     -5.2049   2.0099   5.6413   C.3       1 RES1   0.0000
    13 C13     -6.3331   0.9826   5.4146   C.2       1 RES1   0.0000
    14 O14     -7.2411   1.3182   4.6093   O.co2     1 RES1   0.0000
    15 O15     -6.2707  -0.1155   5.9998   O.co2     1 RES1  -1.0000
    16 C16     -3.9518   1.6172   4.8806   C.3       1 RES1   0.0000
    17 C17     -2.9359   2.7647   4.7662   C.3       1 RES1   0.0000
    18 C18     -3.5799   4.0584   4.2575   C.3       1 RES1   0.0000
    19 O19     -3.8310   4.0185   2.8475   O.3       1 RES1   0.0000
    20 C20     -4.8570   4.3655   5.0546   C.3       1 RES1   0.0000
    21 C21     -5.6431   5.5676   4.5283   C.3       1 RES1   0.0000
    22 O22     -4.7551   6.6753   4.4398   O.3       1 RES1   0.0000
    23 C23     -6.8027   5.9488   5.4613   C.3       1 RES1   0.0000
    24 O24     -6.2896   6.2700   6.7710   O.3       1 RES1   0.0000
    25 O25     -5.7377   3.2424   5.0837   O.3       1 RES1   0.0000
    26 C26     -6.8524   1.4817   8.4839   C.3       1 RES1   0.0000
    27 O27     -5.9827   0.7465   9.3566   O.3       1 RES1   0.0000
    28 C28     -8.0380   2.1076   9.2034   C.3       1 RES1   0.0000
    29 C29     -8.9307   1.1448  10.0001   C.3       1 RES1   0.0000
    30 O30     -9.4140   0.0971   9.1580   O.3       1 RES1   0.0000
    31 C31    -10.1447   1.8649  10.6137   C.3       1 RES1   0.0000
    32 O32     -9.7225   2.7672  11.6521   O.3       1 RES1   0.0000
    33 O33     -7.5698   3.0805  10.1291   O.3       1 RES1   0.0000
@<TRIPOS>BOND
     1     1     2    1
     2     2     3    2
     3     3     4    1
     4     5     4    1
     5     5     6    1
     6     6     7    2
     7     6     8    1
     8     5     9    1
     9     9    10    1
    10    10    11    1
    11    12    11    1
    12    12    13    1
    13    13    14    2
    14    13    15    1
    15    12    16    1
    16    16    17    1
    17    17    18    1
    18    18    19    1
    19    18    20    1
    20    20    21    1
    21    21    22    1
    22    21    23    1
    23    23    24    1
    24    20    25    1
    25    10    26    1
    26    26    27    1
    27    26    28    1
    28    28    29    1
    29    29    30    1
    30    29    31    1
    31    31    32    1
    32    28    33    1
    33    33     5    1
    34    25    12    1
@<TRIPOS>SUBSTRUCTURE
     1 RES1        1 GROUP             0 ****  ****    0  
@<TRIPOS>MOLECULE
ligand_78
    33    34     1     0     0
SMALL
USER_CHARGES
****
Generated from the CSD

@<TRIPOS>ATOM
     1 C1     -10.4955   7.2223   9.8578   C.2       1 RES1   0.0000
     2 C2      -9.2119   6.6874   9.8357   C.2       1 RES1   0.0000
     3 C3      -8.9098   5.6629   8.9325   C.2       1 RES1   0.0000
     4 O4      -7.7300   4.9920   8.7460   O.3       1 RES1   0.0000
     5 C5      -6.3716   5.4943   8.5967   C.3       1 RES1   0.0000
     6 C6      -6.2716   6.5919   7.5155   C.2       1 RES1   0.0000
     7 O7      -6.1933   7.8044   7.8664   O.co2     1 RES1   0.0000
     8 O8      -6.2632   6.2000   6.3353   O.co2     1 RES1  -1.0000
     9 C9      -5.5117   4.2763   8.2910   C.3       1 RES1   0.0000
    10 C10     -5.2440   3.4082   9.4980   C.3       1 RES1   0.0000
    11 O11     -4.3197   2.3967   9.0739   O.3       1 RES1   0.0000
    12 C12     -4.7446   1.0865   9.5593   C.3       1 RES1   0.0000
    13 C13     -4.7933   1.0839  11.1012   C.2       1 RES1   0.0000
    14 O14     -5.8207   0.5804  11.6271   O.co2     1 RES1   0.0000
    15 O15     -3.8200   1.5380  11.7326   O.co2     1 RES1  -1.0000
    16 C16     -3.8575  -0.0310   9.0421   C.3       1 RES1   0.0000
    17 C17     -4.0577  -0.3105   7.5443   C.3       1 RES1   0.0000
    18 C18     -5.5359  -0.4854   7.1813   C.3       1 RES1   0.0000
    19 O19     -6.0423  -1.7647   7.5809   O.3       1 RES1   0.0000
    20 C20     -6.3674   0.6649   7.7696   C.3       1 RES1   0.0000
    21 C21     -7.8758   0.5038   7.5734   C.3       1 RES1   0.0000
    22 O22     -8.1253   0.3077   6.1868   O.3       1 RES1   0.0000
    23 C23     -8.6511   1.7475   8.0345   C.3       1 RES1   0.0000
    24 O24     -8.6090   1.8429   9.4735   O.3       1 RES1   0.0000
    25 O25     -6.1202   0.8274   9.1661   O.3       1 RES1   0.0000
    26 C26     -4.7407   4.2375  10.6581   C.3       1 RES1   0.0000
    27 O27     -3.4263   4.7711  10.4430   O.3       1 RES1   0.0000
    28 C28     -5.7882   5.3079  10.9263   C.3       1 RES1   0.0000
    29 C29     -5.5029   6.2538  12.1021   C.3       1 RES1   0.0000
    30 O30     -5.2622   5.5091  13.2970   O.3       1 RES1   0.0000
    31 C31     -6.6781   7.2126  12.3637   C.3       1 RES1   0.0000
    32 O32     -7.8647   6.4731  12.7040   O.3       1 RES1   0.0000
    33 O33     -5.9302   6.1302   9.7745   O.3       1 RES1   0.0000
@<TRIPOS>BOND
     1     1     2    1
     2     2     3    2
     3     3     4    1
     4     5     4    1
     5     5     6    1
     6     6     7    2
     7     6     8    1
     8     5     9    1
     9     9    10    1
    10    10    11    1
    11    12    11    1
    12    12    13    1
    13    13    14    2
    14    13    15    1
    15    12    16    1
    16    16    17    1
    17    17    18    1
    18    18    19    1
    19    18    20    1
    20    20    21    1
    21    21    22    1
    22    21    23    1
    23    23    24    1
    24    20    25    1
    25    10    26    1
    26    26    27    1
    27    26    28    1
    28    28    29    1
    29    29    30    1
    30    29    31    1
    31    31    32    1
    32    28    33    1
    33    33     5    1
    34    25    12    1
@<TRIPOS>SUBSTRUCTURE
     1 RES1        1 GROUP             0 ****  ****    0  
@<TRIPOS>MOLECULE
ligand_79
    33    34     1     0     0
SMALL
USER_CHARGES
****
Generated from the CSD

@<TRIPOS>ATOM
     1 C1     -10.4539   7.0747  10.1954   C.2       1 RES1   0.0000
     2 C2      -9.1792   6.5294  10.0854   C.2       1 RES1   0.0000
     3 C3      -8.8980   5.6458   9.0381   C.2       1 RES1   0.0000
     4 O4      -7.7300   4.9920   8.7460   O.3       1 RES1   0.0000
     5 C5      -6.8676   4.1771   9.5898   C.3       1 RES1   0.0000
     6 C6      -6.3659   4.9497  10.8288   C.2       1 RES1   0.0000
     7 O7      -6.2427   4.3429  11.9316   O.co2     1 RES1   0.0000
     8 O8      -6.0971   6.1512  10.6541   O.co2     1 RES1  -1.0000
     9 C9      -5.7388   3.6991   8.6878   C.3       1 RES1   0.0000
    10 C10     -6.1486   2.5954   7.7414   C.3       1 RES1   0.0000
    11 O11     -4.9538   2.1706   7.0711   O.3       1 RES1   0.0000
    12 C12     -5.1988   2.0322   5.6380   C.3       1 RES1   0.0000
    13 C13     -6.2966   0.9775   5.3885   C.2       1 RES1   0.0000
    14 O14     -7.1992   1.2932   4.5692   O.co2     1 RES1   0.0000
    15 O15     -6.2161  -0.1211   5.9707   O.co2     1 RES1  -1.0000
    16 C16     -3.9342   1.6917   4.8712   C.3       1 RES1   0.0000
    17 C17     -2.9519   2.8702   4.7819   C.3       1 RES1   0.0000
    18 C18     -3.6328   4.1549   4.2989   C.3       1 RES1   0.0000
    19 O19     -3.8813   4.1368   2.8880   O.3       1 RES1   0.0000
    20 C20     -4.9189   4.4085   5.1002   C.3       1 RES1   0.0000
    21 C21     -5.7390   5.5978   4.5976   C.3       1 RES1   0.0000
    22 O22     -4.8900   6.7384   4.5583   O.3       1 RES1   0.0000
    23 C23     -6.9264   5.9085   5.5219   C.3       1 RES1   0.0000
    24 O24     -7.9206   4.8695   5.4048   O.3       1 RES1   0.0000
    25 O25     -5.7667   3.2600   5.1050   O.3       1 RES1   0.0000
    26 C26     -6.8524   1.4817   8.4839   C.3       1 RES1   0.0000
    27 O27     -5.9827   0.7465   9.3566   O.3       1 RES1   0.0000
    28 C28     -8.0380   2.1076   9.2034   C.3       1 RES1   0.0000
    29 C29     -8.9307   1.1448  10.0001   C.3       1 RES1   0.0000
    30 O30     -9.4519   0.1238   9.1478   O.3       1 RES1   0.0000
    31 C31    -10.1172   1.8739  10.6553   C.3       1 RES1   0.0000
    32 O32    -10.8537   0.9750  11.5039   O.3       1 RES1   0.0000
    33 O33     -7.5698   3.0805  10.1291   O.3       1 RES1   0.0000
@<TRIPOS>BOND
     1     1     2    1
     2     2     3    2
     3     3     4    1
     4     5     4    1
     5     5     6    1
     6     6     7    2
     7     6     8    1
     8     5     9    1
     9     9    10    1
    10    10    11    1
    11    12    11    1
    12    12    13    1
    13    13    14    2
    14    13    15    1
    15    12    16    1
    16    16    17    1
    17    17    18    1
    18    18    19    1
    19    18    20    1
    20    20    21    1
    21    21    22    1
    22    21    23    1
    23    23    24    1
    24    20    25    1
    25    10    26    1
    26    26    27    1
    27    26    28    1
    28    28    29    1
    29    29    30    1
    30    29    31    1
    31    31    32    1
    32    28    33    1
    33    33     5    1
    34    25    12    1
@<TRIPOS>SUBSTRUCTURE
     1 RES1        1 GROUP             0 ****  ****    0  
@<TRIPOS>MOLECULE
ligand_80
    33    34     1     0     0
SMALL
USER_CHARGES
****
Generated from the CSD

@<TRIPOS>ATOM
     1 C1     -10.4540   7.0747  10.1954   C.2       1 RES1   0.0000
     2 C2      -9.1793   6.5294  10.0854   C.2       1 RES1   0.0000
     3 C3      -8.8980   5.6458   9.0381   C.2       1 RES1   0.0000
     4 O4      -7.7300   4.9920   8.7460   O.3       1 RES1   0.0000
     5 C5      -6.8676   4.1771   9.5898   C.3       1 RES1   0.0000
     6 C6      -6.3659   4.9497  10.8288   C.2       1 RES1   0.0000
     7 O7      -6.2427   4.3429  11.9316   O.co2     1 RES1   0.0000
     8 O8      -6.0971   6.1512  10.6541   O.co2     1 RES1  -1.0000
     9 C9      -5.7388   3.6991   8.6878   C.3       1 RES1   0.0000
    10 C10     -6.1486   2.5954   7.7414   C.3       1 RES1   0.0000
    11 O11     -4.9538   2.1706   7.0711   O.3       1 RES1   0.0000
    12 C12     -5.1988   2.0322   5.6380   C.3       1 RES1   0.0000
    13 C13     -6.2966   0.9775   5.3885   C.2       1 RES1   0.0000
    14 O14     -7.1992   1.2933   4.5692   O.co2     1 RES1   0.0000
    15 O15     -6.2161  -0.1211   5.9706   O.co2     1 RES1  -1.0000
    16 C16     -3.9342   1.6917   4.8712   C.3       1 RES1   0.0000
    17 C17     -2.9519   2.8702   4.7819   C.3       1 RES1   0.0000
    18 C18     -3.6328   4.1550   4.2989   C.3       1 RES1   0.0000
    19 O19     -3.8813   4.1369   2.8881   O.3       1 RES1   0.0000
    20 C20     -4.9189   4.4085   5.1003   C.3       1 RES1   0.0000
    21 C21     -5.7390   5.5978   4.5976   C.3       1 RES1   0.0000
    22 O22     -4.8991   6.7458   4.5907   O.3       1 RES1   0.0000
    23 C23     -6.9469   5.8861   5.5023   C.3       1 RES1   0.0000
    24 O24     -7.7281   6.9633   4.9445   O.3       1 RES1   0.0000
    25 O25     -5.7667   3.2600   5.1050   O.3       1 RES1   0.0000
    26 C26     -6.8524   1.4817   8.4839   C.3       1 RES1   0.0000
    27 O27     -5.9827   0.7465   9.3566   O.3       1 RES1   0.0000
    28 C28     -8.0380   2.1076   9.2034   C.3       1 RES1   0.0000
    29 C29     -8.9307   1.1448  10.0001   C.3       1 RES1   0.0000
    30 O30     -9.4140   0.0971   9.1580   O.3       1 RES1   0.0000
    31 C31    -10.1447   1.8649  10.6137   C.3       1 RES1   0.0000
    32 O32     -9.7225   2.7672  11.6521   O.3       1 RES1   0.0000
    33 O33     -7.5698   3.0805  10.1291   O.3       1 RES1   0.0000
@<TRIPOS>BOND
     1     1     2    1
     2     2     3    2
     3     3     4    1
     4     5     4    1
     5     5     6    1
     6     6     7    2
     7     6     8    1
     8     5     9    1
     9     9    10    1
    10    10    11    1
    11    12    11    1
    12    12    13    1
    13    13    14    2
    14    13    15    1
    15    12    16    1
    16    16    17    1
    17    17    18    1
    18    18    19    1
    19    18    20    1
    20    20    21    1
    21    21    22    1
    22    21    23    1
    23    23    24    1
    24    20    25    1
    25    10    26    1
    26    26    27    1
    27    26    28    1
    28    28    29    1
    29    29    30    1
    30    29    31    1
    31    31    32    1
    32    28    33    1
    33    33     5    1
    34    25    12    1
@<TRIPOS>SUBSTRUCTURE
     1 RES1        1 GROUP             0 ****  ****    0  
@<TRIPOS>MOLECULE
ligand_81
    33    34     1     0     0
SMALL
USER_CHARGES
****
Generated from the CSD

@<TRIPOS>ATOM
     1 C1     -10.5472   7.0260  10.0819   C.2       1 RES1   0.0000
     2 C2      -9.2770   6.4600  10.0534   C.2       1 RES1   0.0000
     3 C3      -8.9098   5.6501   8.9737   C.2       1 RES1   0.0000
     4 O4      -7.7300   4.9920   8.7460   O.3       1 RES1   0.0000
     5 C5      -7.4344   3.5667   8.7160   C.3       1 RES1   0.0000
     6 C6      -5.9408   3.2868   8.4431   C.2       1 RES1   0.0000
     7 O7      -5.0928   4.2073   8.6248   O.co2     1 RES1   0.0000
     8 O8      -5.6590   2.1372   8.0618   O.co2     1 RES1  -1.0000
     9 C9      -8.3548   2.9757   7.6577   C.3       1 RES1   0.0000
    10 C10     -9.7901   2.8458   8.1105   C.3       1 RES1   0.0000
    11 O11    -10.4854   2.1547   7.0635   O.3       1 RES1   0.0000
    12 C12    -11.3528   3.0776   6.3364   C.3       1 RES1   0.0000
    13 C13    -12.2879   3.8109   7.3202   C.2       1 RES1   0.0000
    14 O14    -11.9730   4.9942   7.6137   O.co2     1 RES1   0.0000
    15 O15    -13.3025   3.2199   7.7366   O.co2     1 RES1  -1.0000
    16 C16    -12.1486   2.3790   5.2492   C.3       1 RES1   0.0000
    17 C17    -11.2828   1.9518   4.0535   C.3       1 RES1   0.0000
    18 C18    -10.4109   3.0987   3.5321   C.3       1 RES1   0.0000
    19 O19    -11.1652   4.0447   2.7647   O.3       1 RES1   0.0000
    20 C20     -9.6680   3.7730   4.6957   C.3       1 RES1   0.0000
    21 C21     -8.8761   5.0168   4.2888   C.3       1 RES1   0.0000
    22 O22     -7.9208   5.2884   5.3071   O.3       1 RES1   0.0000
    23 C23     -9.7812   6.2483   4.1320   C.3       1 RES1   0.0000
    24 O24     -8.9944   7.3814   3.7092   O.3       1 RES1   0.0000
    25 O25    -10.5644   4.1451   5.7425   O.3       1 RES1   0.0000
    26 C26     -9.8721   2.1502   9.4508   C.3       1 RES1   0.0000
    27 O27     -9.5070   0.7640   9.3913   O.3       1 RES1   0.0000
    28 C28     -9.0215   2.9554  10.4219   C.3       1 RES1   0.0000
    29 C29     -8.9882   2.4499  11.8717   C.3       1 RES1   0.0000
    30 O30    -10.3082   2.4009  12.4154   O.3       1 RES1   0.0000
    31 C31     -8.1315   3.3555  12.7743   C.3       1 RES1   0.0000
    32 O32     -8.6435   4.7003  12.7690   O.3       1 RES1   0.0000
    33 O33     -7.6729   2.9695   9.9703   O.3       1 RES1   0.0000
@<TRIPOS>BOND
     1     1     2    1
     2     2     3    2
     3     3     4    1
     4     5     4    1
     5     5     6    1
     6     6     7    2
     7     6     8    1
     8     5     9    1
     9     9    10    1
    10    10    11    1
    11    12    11    1
    12    12    13    1
    13    13    14    2
    14    13    15    1
    15    12    16    1
    16    16    17    1
    17    17    18    1
    18    18    19    1
    19    18    20    1
    20    20    21    1
    21    21    22    1
    22    21    23    1
    23    23    24    1
    24    20    25    1
    25    10    26    1
    26    26    27    1
    27    26    28    1
    28    28    29    1
    29    29    30    1
    30    29    31    1
    31    31    32    1
    32    28    33    1
    33    33     5    1
    34    25    12    1
@<TRIPOS>SUBSTRUCTURE
     1 RES1        1 GROUP             0 ****  ****    0  
@<TRIPOS>MOLECULE
ligand_82
    33    34     1     0     0
SMALL
USER_CHARGES
****
Generated from the CSD

@<TRIPOS>ATOM
     1 C1     -10.5472   7.0262  10.0817   C.2       1 RES1   0.0000
     2 C2      -9.2770   6.4602  10.0532   C.2       1 RES1   0.0000
     3 C3      -8.9098   5.6501   8.9736   C.2       1 RES1   0.0000
     4 O4      -7.7300   4.9920   8.7460   O.3       1 RES1   0.0000
     5 C5      -7.4344   3.5667   8.7160   C.3       1 RES1   0.0000
     6 C6      -5.9408   3.2868   8.4431   C.2       1 RES1   0.0000
     7 O7      -5.0928   4.2073   8.6248   O.co2     1 RES1   0.0000
     8 O8      -5.6590   2.1372   8.0618   O.co2     1 RES1  -1.0000
     9 C9      -8.3548   2.9757   7.6577   C.3       1 RES1   0.0000
    10 C10     -9.7901   2.8458   8.1105   C.3       1 RES1   0.0000
    11 O11    -10.4854   2.1547   7.0635   O.3       1 RES1   0.0000
    12 C12    -11.3994   3.0634   6.3766   C.3       1 RES1   0.0000
    13 C13    -12.3494   3.7275   7.3946   C.2       1 RES1   0.0000
    14 O14    -12.0747   4.9108   7.7259   O.co2     1 RES1   0.0000
    15 O15    -13.3370   3.0855   7.8004   O.co2     1 RES1  -1.0000
    16 C16    -12.1814   2.3667   5.2783   C.3       1 RES1   0.0000
    17 C17    -11.3158   2.0121   4.0589   C.3       1 RES1   0.0000
    18 C18    -10.4981   3.2090   3.5626   C.3       1 RES1   0.0000
    19 O19    -11.3006   4.1466   2.8348   O.3       1 RES1   0.0000
    20 C20     -9.7669   3.8769   4.7372   C.3       1 RES1   0.0000
    21 C21     -9.0314   5.1638   4.3595   C.3       1 RES1   0.0000
    22 O22     -8.1288   4.8657   3.3012   O.3       1 RES1   0.0000
    23 C23     -8.2263   5.7325   5.5380   C.3       1 RES1   0.0000
    24 O24     -7.6459   6.9999   5.1658   O.3       1 RES1   0.0000
    25 O25    -10.6629   4.1799   5.8064   O.3       1 RES1   0.0000
    26 C26     -9.8721   2.1502   9.4508   C.3       1 RES1   0.0000
    27 O27     -9.5070   0.7640   9.3913   O.3       1 RES1   0.0000
    28 C28     -9.0215   2.9554  10.4219   C.3       1 RES1   0.0000
    29 C29     -8.9882   2.4499  11.8717   C.3       1 RES1   0.0000
    30 O30     -8.3570   3.4085  12.7220   O.3       1 RES1   0.0000
    31 C31     -8.2228   1.1205  11.9971   C.3       1 RES1   0.0000
    32 O32     -6.8611   1.2809  11.5605   O.3       1 RES1   0.0000
    33 O33     -7.6729   2.9695   9.9703   O.3       1 RES1   0.0000
@<TRIPOS>BOND
     1     1     2    1
     2     2     3    2
     3     3     4    1
     4     5     4    1
     5     5     6    1
     6     6     7    2
     7     6     8    1
     8     5     9    1
     9     9    10    1
    10    10    11    1
    11    12    11    1
    12    12    13    1
    13    13    14    2
    14    13    15    1
    15    12    16    1
    16    16    17    1
    17    17    18    1
    18    18    19    1
    19    18    20    1
    20    20    21    1
    21    21    22    1
    22    21    23    1
    23    23    24    1
    24    20    25    1
    25    10    26    1
    26    26    27    1
    27    26    28    1
    28    28    29    1
    29    29    30    1
    30    29    31    1
    31    31    32    1
    32    28    33    1
    33    33     5    1
    34    25    12    1
@<TRIPOS>SUBSTRUCTURE
     1 RES1        1 GROUP             0 ****  ****    0  
@<TRIPOS>MOLECULE
ligand_83
    33    34     1     0     0
SMALL
USER_CHARGES
****
Generated from the CSD

@<TRIPOS>ATOM
     1 C1     -10.5341   7.0704  10.0404   C.2       1 RES1   0.0000
     2 C2      -9.2278   6.6048   9.9347   C.2       1 RES1   0.0000
     3 C3      -8.9297   5.5988   9.0098   C.2       1 RES1   0.0000
     4 O4      -7.7300   4.9920   8.7460   O.3       1 RES1   0.0000
     5 C5      -6.8658   5.0768   7.5774   C.3       1 RES1   0.0000
     6 C6      -5.7131   4.0510   7.6292   C.2       1 RES1   0.0000
     7 O7      -5.7860   2.9986   6.9316   O.co2     1 RES1   0.0000
     8 O8      -4.7545   4.3400   8.3668   O.co2     1 RES1  -1.0000
     9 C9      -6.3794   6.5181   7.5266   C.3       1 RES1   0.0000
    10 C10     -7.4265   7.4916   7.0390   C.3       1 RES1   0.0000
    11 O11     -6.7744   8.7636   6.9197   O.3       1 RES1   0.0000
    12 C12     -7.1155   9.6163   8.0553   C.3       1 RES1   0.0000
    13 C13     -8.6464   9.6650   8.2391   C.2       1 RES1   0.0000
    14 O14     -9.0691   9.6082   9.4239   O.co2     1 RES1   0.0000
    15 O15     -9.3677   9.7907   7.2311   O.co2     1 RES1  -1.0000
    16 C16     -6.5406  11.0138   7.9149   C.3       1 RES1   0.0000
    17 C17     -5.0154  11.0555   8.0987   C.3       1 RES1   0.0000
    18 C18     -4.5669  10.3350   9.3743   C.3       1 RES1   0.0000
    19 O19     -4.8215  11.1117  10.5511   O.3       1 RES1   0.0000
    20 C20     -5.2182   8.9460   9.4571   C.3       1 RES1   0.0000
    21 C21     -4.9353   8.2049  10.7650   C.3       1 RES1   0.0000
    22 O22     -3.5268   8.1697  10.9604   O.3       1 RES1   0.0000
    23 C23     -5.4565   6.7599  10.7308   C.3       1 RES1   0.0000
    24 O24     -5.2641   6.1413  12.0200   O.3       1 RES1   0.0000
    25 O25     -6.6341   9.0219   9.2918   O.3       1 RES1   0.0000
    26 C26     -8.0514   7.0105   5.7487   C.3       1 RES1   0.0000
    27 O27     -7.1469   7.0449   4.6355   O.3       1 RES1   0.0000
    28 C28     -8.6195   5.6253   6.0199   C.3       1 RES1   0.0000
    29 C29     -9.3449   4.9502   4.8466   C.3       1 RES1   0.0000
    30 O30    -10.0892   3.8192   5.3019   O.3       1 RES1   0.0000
    31 C31     -8.3610   4.4721   3.7639   C.3       1 RES1   0.0000
    32 O32     -9.0754   3.9250   2.6410   O.3       1 RES1   0.0000
    33 O33     -7.5664   4.7479   6.3995   O.3       1 RES1   0.0000
@<TRIPOS>BOND
     1     1     2    1
     2     2     3    2
     3     3     4    1
     4     5     4    1
     5     5     6    1
     6     6     7    2
     7     6     8    1
     8     5     9    1
     9     9    10    1
    10    10    11    1
    11    12    11    1
    12    12    13    1
    13    13    14    2
    14    13    15    1
    15    12    16    1
    16    16    17    1
    17    17    18    1
    18    18    19    1
    19    18    20    1
    20    20    21    1
    21    21    22    1
    22    21    23    1
    23    23    24    1
    24    20    25    1
    25    10    26    1
    26    26    27    1
    27    26    28    1
    28    28    29    1
    29    29    30    1
    30    29    31    1
    31    31    32    1
    32    28    33    1
    33    33     5    1
    34    25    12    1
@<TRIPOS>SUBSTRUCTURE
     1 RES1        1 GROUP             0 ****  ****    0  
@<TRIPOS>MOLECULE
ligand_84
    33    34     1     0     0
SMALL
USER_CHARGES
****
Generated from the CSD

@<TRIPOS>ATOM
     1 C1     -10.5470   7.0261  10.0822   C.2       1 RES1   0.0000
     2 C2      -9.2768   6.4601  10.0535   C.2       1 RES1   0.0000
     3 C3      -8.9098   5.6501   8.9738   C.2       1 RES1   0.0000
     4 O4      -7.7300   4.9920   8.7460   O.3       1 RES1   0.0000
     5 C5      -7.4344   3.5667   8.7160   C.3       1 RES1   0.0000
     6 C6      -5.9408   3.2868   8.4431   C.2       1 RES1   0.0000
     7 O7      -5.0928   4.2073   8.6248   O.co2     1 RES1   0.0000
     8 O8      -5.6590   2.1372   8.0618   O.co2     1 RES1  -1.0000
     9 C9      -8.3548   2.9757   7.6577   C.3       1 RES1   0.0000
    10 C10     -9.7901   2.8458   8.1105   C.3       1 RES1   0.0000
    11 O11    -10.4854   2.1547   7.0635   O.3       1 RES1   0.0000
    12 C12    -11.3731   3.0718   6.3536   C.3       1 RES1   0.0000
    13 C13    -12.3120   3.7788   7.3528   C.2       1 RES1   0.0000
    14 O14    -12.6160   3.1306   8.3887   O.co2     1 RES1   0.0000
    15 O15    -12.6842   4.9418   7.1058   O.co2     1 RES1  -1.0000
    16 C16    -12.1660   2.3729   5.2645   C.3       1 RES1   0.0000
    17 C17    -11.3028   1.9733   4.0575   C.3       1 RES1   0.0000
    18 C18    -10.4534   3.1399   3.5427   C.3       1 RES1   0.0000
    19 O19    -11.2286   4.0823   2.7919   O.3       1 RES1   0.0000
    20 C20     -9.7123   3.8127   4.7083   C.3       1 RES1   0.0000
    21 C21     -8.9434   5.0736   4.3098   C.3       1 RES1   0.0000
    22 O22     -8.0445   4.7333   3.2612   O.3       1 RES1   0.0000
    23 C23     -8.1289   5.6440   5.4810   C.3       1 RES1   0.0000
    24 O24     -7.5217   6.8932   5.0902   O.3       1 RES1   0.0000
    25 O25    -10.6064   4.1585   5.7661   O.3       1 RES1   0.0000
    26 C26     -9.8721   2.1502   9.4508   C.3       1 RES1   0.0000
    27 O27     -9.5070   0.7640   9.3913   O.3       1 RES1   0.0000
    28 C28     -9.0215   2.9554  10.4219   C.3       1 RES1   0.0000
    29 C29     -8.9882   2.4499  11.8717   C.3       1 RES1   0.0000
    30 O30     -8.4268   3.4401  12.7347   O.3       1 RES1   0.0000
    31 C31     -8.1536   1.1643  12.0107   C.3       1 RES1   0.0000
    32 O32     -8.2146   0.6682  13.3602   O.3       1 RES1   0.0000
    33 O33     -7.6729   2.9695   9.9703   O.3       1 RES1   0.0000
@<TRIPOS>BOND
     1     1     2    1
     2     2     3    2
     3     3     4    1
     4     5     4    1
     5     5     6    1
     6     6     7    2
     7     6     8    1
     8     5     9    1
     9     9    10    1
    10    10    11    1
    11    12    11    1
    12    12    13    1
    13    13    14    2
    14    13    15    1
    15    12    16    1
    16    16    17    1
    17    17    18    1
    18    18    19    1
    19    18    20    1
    20    20    21    1
    21    21    22    1
    22    21    23    1
    23    23    24    1
    24    20    25    1
    25    10    26    1
    26    26    27    1
    27    26    28    1
    28    28    29    1
    29    29    30    1
    30    29    31    1
    31    31    32    1
    32    28    33    1
    33    33     5    1
    34    25    12    1
@<TRIPOS>SUBSTRUCTURE
     1 RES1        1 GROUP             0 ****  ****    0  
@<TRIPOS>MOLECULE
ligand_85
    33    34     1     0     0
SMALL
USER_CHARGES
****
Generated from the CSD

@<TRIPOS>ATOM
     1 C1     -10.4343   7.1508  10.1188   C.2       1 RES1   0.0000
     2 C2      -9.1504   6.6312   9.9922   C.2       1 RES1   0.0000
     3 C3      -8.9005   5.6428   9.0345   C.2       1 RES1   0.0000
     4 O4      -7.7300   4.9920   8.7460   O.3       1 RES1   0.0000
     5 C5      -6.8658   5.0768   7.5774   C.3       1 RES1   0.0000
     6 C6      -5.7131   4.0510   7.6292   C.2       1 RES1   0.0000
     7 O7      -5.7860   2.9986   6.9316   O.co2     1 RES1   0.0000
     8 O8      -4.7545   4.3400   8.3669   O.co2     1 RES1  -1.0000
     9 C9      -6.3794   6.5181   7.5266   C.3       1 RES1   0.0000
    10 C10     -7.4265   7.4916   7.0390   C.3       1 RES1   0.0000
    11 O11     -6.7744   8.7636   6.9197   O.3       1 RES1   0.0000
    12 C12     -7.1857   9.6477   8.0069   C.3       1 RES1   0.0000
    13 C13     -8.7250   9.7285   8.0695   C.2       1 RES1   0.0000
    14 O14     -9.2390   9.7154   9.2189   O.co2     1 RES1   0.0000
    15 O15     -9.3635   9.8355   7.0051   O.co2     1 RES1  -1.0000
    16 C16     -6.5739  11.0310   7.8825   C.3       1 RES1   0.0000
    17 C17     -5.0671  11.0491   8.1841   C.3       1 RES1   0.0000
    18 C18     -4.7336  10.3495   9.5057   C.3       1 RES1   0.0000
    19 O19     -5.0634  11.1570  10.6424   O.3       1 RES1   0.0000
    20 C20     -5.4168   8.9748   9.5666   C.3       1 RES1   0.0000
    21 C21     -5.2514   8.2583  10.9079   C.3       1 RES1   0.0000
    22 O22     -5.5291   6.8771  10.7114   O.3       1 RES1   0.0000
    23 C23     -6.2178   8.8007  11.9721   C.3       1 RES1   0.0000
    24 O24     -5.9937   8.1224  13.2256   O.3       1 RES1   0.0000
    25 O25     -6.8138   9.0727   9.2895   O.3       1 RES1   0.0000
    26 C26     -8.0514   7.0105   5.7487   C.3       1 RES1   0.0000
    27 O27     -7.1469   7.0449   4.6355   O.3       1 RES1   0.0000
    28 C28     -8.6195   5.6253   6.0199   C.3       1 RES1   0.0000
    29 C29     -9.3449   4.9502   4.8466   C.3       1 RES1   0.0000
    30 O30    -10.4280   5.7635   4.3927   O.3       1 RES1   0.0000
    31 C31     -9.9109   3.5738   5.2390   C.3       1 RES1   0.0000
    32 O32    -10.4615   2.9093   4.0875   O.3       1 RES1   0.0000
    33 O33     -7.5664   4.7479   6.3995   O.3       1 RES1   0.0000
@<TRIPOS>BOND
     1     1     2    1
     2     2     3    2
     3     3     4    1
     4     5     4    1
     5     5     6    1
     6     6     7    2
     7     6     8    1
     8     5     9    1
     9     9    10    1
    10    10    11    1
    11    12    11    1
    12    12    13    1
    13    13    14    2
    14    13    15    1
    15    12    16    1
    16    16    17    1
    17    17    18    1
    18    18    19    1
    19    18    20    1
    20    20    21    1
    21    21    22    1
    22    21    23    1
    23    23    24    1
    24    20    25    1
    25    10    26    1
    26    26    27    1
    27    26    28    1
    28    28    29    1
    29    29    30    1
    30    29    31    1
    31    31    32    1
    32    28    33    1
    33    33     5    1
    34    25    12    1
@<TRIPOS>SUBSTRUCTURE
     1 RES1        1 GROUP             0 ****  ****    0  
@<TRIPOS>MOLECULE
ligand_86
    33    34     1     0     0
SMALL
USER_CHARGES
****
Generated from the CSD

@<TRIPOS>ATOM
     1 C1     -10.5471   7.0261  10.0821   C.2       1 RES1   0.0000
     2 C2      -9.2769   6.4601  10.0535   C.2       1 RES1   0.0000
     3 C3      -8.9098   5.6501   8.9738   C.2       1 RES1   0.0000
     4 O4      -7.7300   4.9920   8.7460   O.3       1 RES1   0.0000
     5 C5      -7.4344   3.5667   8.7160   C.3       1 RES1   0.0000
     6 C6      -5.9408   3.2868   8.4431   C.2       1 RES1   0.0000
     7 O7      -5.0928   4.2073   8.6248   O.co2     1 RES1   0.0000
     8 O8      -5.6590   2.1372   8.0618   O.co2     1 RES1  -1.0000
     9 C9      -8.3548   2.9757   7.6577   C.3       1 RES1   0.0000
    10 C10     -9.7901   2.8458   8.1105   C.3       1 RES1   0.0000
    11 O11    -10.4854   2.1547   7.0635   O.3       1 RES1   0.0000
    12 C12    -11.3328   3.0828   6.3195   C.3       1 RES1   0.0000
    13 C13    -12.2592   3.8461   7.2886   C.2       1 RES1   0.0000
    14 O14    -12.5953   3.2359   8.3376   O.co2     1 RES1   0.0000
    15 O15    -12.5909   5.0134   7.0066   O.co2     1 RES1  -1.0000
    16 C16    -12.1357   2.3837   5.2380   C.3       1 RES1   0.0000
    17 C17    -11.2720   1.9249   4.0526   C.3       1 RES1   0.0000
    18 C18    -10.3773   3.0488   3.5200   C.3       1 RES1   0.0000
    19 O19    -11.1109   3.9974   2.7360   O.3       1 RES1   0.0000
    20 C20     -9.6280   3.7256   4.6780   C.3       1 RES1   0.0000
    21 C21     -8.8120   4.9494   4.2581   C.3       1 RES1   0.0000
    22 O22     -7.8550   5.2162   5.2762   O.3       1 RES1   0.0000
    23 C23     -9.6939   6.1953   4.0829   C.3       1 RES1   0.0000
    24 O24     -8.8851   7.3081   3.6480   O.3       1 RES1   0.0000
    25 O25    -10.5226   4.1279   5.7151   O.3       1 RES1   0.0000
    26 C26     -9.8721   2.1502   9.4508   C.3       1 RES1   0.0000
    27 O27     -9.5070   0.7640   9.3913   O.3       1 RES1   0.0000
    28 C28     -9.0215   2.9554  10.4219   C.3       1 RES1   0.0000
    29 C29     -8.9882   2.4499  11.8717   C.3       1 RES1   0.0000
    30 O30    -10.3082   2.4009  12.4154   O.3       1 RES1   0.0000
    31 C31     -8.1315   3.3555  12.7743   C.3       1 RES1   0.0000
    32 O32     -8.0071   2.7829  14.0886   O.3       1 RES1   0.0000
    33 O33     -7.6729   2.9695   9.9703   O.3       1 RES1   0.0000
@<TRIPOS>BOND
     1     1     2    1
     2     2     3    2
     3     3     4    1
     4     5     4    1
     5     5     6    1
     6     6     7    2
     7     6     8    1
     8     5     9    1
     9     9    10    1
    10    10    11    1
    11    12    11    1
    12    12    13    1
    13    13    14    2
    14    13    15    1
    15    12    16    1
    16    16    17    1
    17    17    18    1
    18    18    19    1
    19    18    20    1
    20    20    21    1
    21    21    22    1
    22    21    23    1
    23    23    24    1
    24    20    25    1
    25    10    26    1
    26    26    27    1
    27    26    28    1
    28    28    29    1
    29    29    30    1
    30    29    31    1
    31    31    32    1
    32    28    33    1
    33    33     5    1
    34    25    12    1
@<TRIPOS>SUBSTRUCTURE
     1 RES1        1 GROUP             0 ****  ****    0  
@<TRIPOS>MOLECULE
ligand_87
    33    34     1     0     0
SMALL
USER_CHARGES
****
Generated from the CSD

@<TRIPOS>ATOM
     1 C1     -10.4798   7.1588  10.0117   C.2       1 RES1   0.0000
     2 C2      -9.2020   6.6123   9.9566   C.2       1 RES1   0.0000
     3 C3      -8.9038   5.6597   8.9766   C.2       1 RES1   0.0000
     4 O4      -7.7300   4.9920   8.7460   O.3       1 RES1   0.0000
     5 C5      -6.3716   5.4943   8.5967   C.3       1 RES1   0.0000
     6 C6      -6.2716   6.5919   7.5155   C.2       1 RES1   0.0000
     7 O7      -7.3200   7.1909   7.1393   O.co2     1 RES1   0.0000
     8 O8      -5.1316   6.8303   7.0799   O.co2     1 RES1  -1.0000
     9 C9      -5.5117   4.2763   8.2910   C.3       1 RES1   0.0000
    10 C10     -5.2440   3.4082   9.4980   C.3       1 RES1   0.0000
    11 O11     -4.3197   2.3967   9.0739   O.3       1 RES1   0.0000
    12 C12     -5.0287   1.3143   8.3967   C.3       1 RES1   0.0000
    13 C13     -6.4089   1.0958   9.0502   C.2       1 RES1   0.0000
    14 O14     -7.3976   1.5889   8.4461   O.co2     1 RES1   0.0000
    15 O15     -6.4765   0.4278  10.0997   O.co2     1 RES1  -1.0000
    16 C16     -4.2258   0.0265   8.3798   C.3       1 RES1   0.0000
    17 C17     -3.0191   0.0851   7.4301   C.3       1 RES1   0.0000
    18 C18     -3.4061   0.5829   6.0337   C.3       1 RES1   0.0000
    19 O19     -4.0759  -0.4255   5.2674   O.3       1 RES1   0.0000
    20 C20     -4.2432   1.8668   6.1401   C.3       1 RES1   0.0000
    21 C21     -4.7903   2.3638   4.8010   C.3       1 RES1   0.0000
    22 O22     -3.6935   2.5513   3.9147   O.3       1 RES1   0.0000
    23 C23     -5.5322   3.7016   4.9444   C.3       1 RES1   0.0000
    24 O24     -6.0542   4.1097   3.6627   O.3       1 RES1   0.0000
    25 O25     -5.3460   1.6993   7.0310   O.3       1 RES1   0.0000
    26 C26     -4.7407   4.2375  10.6581   C.3       1 RES1   0.0000
    27 O27     -3.4263   4.7711  10.4430   O.3       1 RES1   0.0000
    28 C28     -5.7882   5.3079  10.9263   C.3       1 RES1   0.0000
    29 C29     -5.5029   6.2538  12.1021   C.3       1 RES1   0.0000
    30 O30     -5.3512   5.5140  13.3146   O.3       1 RES1   0.0000
    31 C31     -6.6362   7.2756  12.3028   C.3       1 RES1   0.0000
    32 O32     -6.2803   8.2283  13.3209   O.3       1 RES1   0.0000
    33 O33     -5.9302   6.1302   9.7745   O.3       1 RES1   0.0000
@<TRIPOS>BOND
     1     1     2    1
     2     2     3    2
     3     3     4    1
     4     5     4    1
     5     5     6    1
     6     6     7    2
     7     6     8    1
     8     5     9    1
     9     9    10    1
    10    10    11    1
    11    12    11    1
    12    12    13    1
    13    13    14    2
    14    13    15    1
    15    12    16    1
    16    16    17    1
    17    17    18    1
    18    18    19    1
    19    18    20    1
    20    20    21    1
    21    21    22    1
    22    21    23    1
    23    23    24    1
    24    20    25    1
    25    10    26    1
    26    26    27    1
    27    26    28    1
    28    28    29    1
    29    29    30    1
    30    29    31    1
    31    31    32    1
    32    28    33    1
    33    33     5    1
    34    25    12    1
@<TRIPOS>SUBSTRUCTURE
     1 RES1        1 GROUP             0 ****  ****    0  
@<TRIPOS>MOLECULE
ligand_88
    33    34     1     0     0
SMALL
USER_CHARGES
****
Generated from the CSD

@<TRIPOS>ATOM
     1 C1     -10.4892   7.2199   9.8782   C.2       1 RES1   0.0000
     2 C2      -9.2056   6.6851   9.8476   C.2       1 RES1   0.0000
     3 C3      -8.9088   5.6625   8.9406   C.2       1 RES1   0.0000
     4 O4      -7.7300   4.9920   8.7460   O.3       1 RES1   0.0000
     5 C5      -6.3716   5.4943   8.5967   C.3       1 RES1   0.0000
     6 C6      -6.2716   6.5919   7.5155   C.2       1 RES1   0.0000
     7 O7      -7.3200   7.1912   7.1396   O.co2     1 RES1   0.0000
     8 O8      -5.1316   6.8300   7.0796   O.co2     1 RES1  -1.0000
     9 C9      -5.5117   4.2763   8.2910   C.3       1 RES1   0.0000
    10 C10     -5.2440   3.4082   9.4980   C.3       1 RES1   0.0000
    11 O11     -4.3197   2.3967   9.0739   O.3       1 RES1   0.0000
    12 C12     -5.0273   1.1515   8.7879   C.3       1 RES1   0.0000
    13 C13     -6.1004   0.8935   9.8658   C.2       1 RES1   0.0000
    14 O14     -7.2332   0.5321   9.4513   O.co2     1 RES1   0.0000
    15 O15     -5.7878   1.0189  11.0652   O.co2     1 RES1  -1.0000
    16 C16     -4.0820  -0.0298   8.6689   C.3       1 RES1   0.0000
    17 C17     -3.2368   0.0061   7.3858   C.3       1 RES1   0.0000
    18 C18     -4.0931   0.2327   6.1357   C.3       1 RES1   0.0000
    19 O19     -4.8014  -0.9497   5.7447   O.3       1 RES1   0.0000
    20 C20     -5.0433   1.4207   6.3504   C.3       1 RES1   0.0000
    21 C21     -6.0333   1.6386   5.2049   C.3       1 RES1   0.0000
    22 O22     -5.3052   1.6427   3.9829   O.3       1 RES1   0.0000
    23 C23     -6.7739   2.9787   5.3327   C.3       1 RES1   0.0000
    24 O24     -5.8240   4.0645   5.3153   O.3       1 RES1   0.0000
    25 O25     -5.7917   1.2797   7.5578   O.3       1 RES1   0.0000
    26 C26     -4.7407   4.2375  10.6581   C.3       1 RES1   0.0000
    27 O27     -3.4263   4.7711  10.4430   O.3       1 RES1   0.0000
    28 C28     -5.7882   5.3079  10.9263   C.3       1 RES1   0.0000
    29 C29     -5.5029   6.2538  12.1021   C.3       1 RES1   0.0000
    30 O30     -5.2590   5.5090  13.2963   O.3       1 RES1   0.0000
    31 C31     -6.6795   7.2104  12.3658   C.3       1 RES1   0.0000
    32 O32     -7.8642   6.4685  12.7076   O.3       1 RES1   0.0000
    33 O33     -5.9302   6.1302   9.7745   O.3       1 RES1   0.0000
@<TRIPOS>BOND
     1     1     2    1
     2     2     3    2
     3     3     4    1
     4     5     4    1
     5     5     6    1
     6     6     7    2
     7     6     8    1
     8     5     9    1
     9     9    10    1
    10    10    11    1
    11    12    11    1
    12    12    13    1
    13    13    14    2
    14    13    15    1
    15    12    16    1
    16    16    17    1
    17    17    18    1
    18    18    19    1
    19    18    20    1
    20    20    21    1
    21    21    22    1
    22    21    23    1
    23    23    24    1
    24    20    25    1
    25    10    26    1
    26    26    27    1
    27    26    28    1
    28    28    29    1
    29    29    30    1
    30    29    31    1
    31    31    32    1
    32    28    33    1
    33    33     5    1
    34    25    12    1
@<TRIPOS>SUBSTRUCTURE
     1 RES1        1 GROUP             0 ****  ****    0  
@<TRIPOS>MOLECULE
ligand_89
    33    34     1     0     0
SMALL
USER_CHARGES
****
Generated from the CSD

@<TRIPOS>ATOM
     1 C1     -10.4390   7.0930  10.1970   C.2       1 RES1   0.0000
     2 C2      -9.1670   6.5420  10.0840   C.2       1 RES1   0.0000
     3 C3      -8.8940   5.6520   9.0400   C.2       1 RES1   0.0000
     4 O4      -7.7300   4.9920   8.7460   O.3       1 RES1   0.0000
     5 C5      -7.3182   4.2982   7.5340   C.3       1 RES1   0.0000
     6 C6      -8.3030   3.1757   7.1418   C.2       1 RES1   0.0000
     7 O7      -9.1268   3.3720   6.2025   O.co2     1 RES1   0.0000
     8 O8      -8.2121   2.1164   7.7866   O.co2     1 RES1  -1.0000
     9 C9      -5.9107   3.7878   7.8078   C.3       1 RES1   0.0000
    10 C10     -4.8562   4.8681   7.7561   C.3       1 RES1   0.0000
    11 O11     -3.5907   4.2075   7.8952   O.3       1 RES1   0.0000
    12 C12     -3.0007   4.5115   9.1962   C.3       1 RES1   0.0000
    13 C13     -2.9074   6.0390   9.3906   C.2       1 RES1   0.0000
    14 O14     -3.7859   6.5637  10.1246   O.co2     1 RES1   0.0000
    15 O15     -1.9683   6.6558   8.8522   O.co2     1 RES1  -1.0000
    16 C16     -1.6433   3.8572   9.3763   C.3       1 RES1   0.0000
    17 C17     -1.7320   2.3341   9.5605   C.3       1 RES1   0.0000
    18 C18     -2.7485   1.9402  10.6371   C.3       1 RES1   0.0000
    19 O19     -2.2468   2.1626  11.9606   O.3       1 RES1   0.0000
    20 C20     -4.0802   2.6697  10.4031   C.3       1 RES1   0.0000
    21 C21     -5.1146   2.4427  11.5069   C.3       1 RES1   0.0000
    22 O22     -5.3188   1.0416  11.6434   O.3       1 RES1   0.0000
    23 C23     -6.4632   3.0993  11.1743   C.3       1 RES1   0.0000
    24 O24     -7.3651   2.9540  12.2911   O.3       1 RES1   0.0000
    25 O25     -3.8876   4.0773  10.2634   O.3       1 RES1   0.0000
    26 C26     -4.9769   5.6795   6.4857   C.3       1 RES1   0.0000
    27 O27     -4.6281   4.9394   5.3072   O.3       1 RES1   0.0000
    28 C28     -6.3915   6.2386   6.4485   C.3       1 RES1   0.0000
    29 C29     -6.7320   7.1380   5.2511   C.3       1 RES1   0.0000
    30 O30     -5.8413   8.2532   5.1931   O.3       1 RES1   0.0000
    31 C31     -8.1711   7.6778   5.3315   C.3       1 RES1   0.0000
    32 O32     -8.5050   8.4008   4.1330   O.3       1 RES1   0.0000
    33 O33     -7.3240   5.1651   6.4227   O.3       1 RES1   0.0000
@<TRIPOS>BOND
     1     1     2    1
     2     2     3    2
     3     3     4    1
     4     5     4    1
     5     5     6    1
     6     6     7    2
     7     6     8    1
     8     5     9    1
     9     9    10    1
    10    10    11    1
    11    12    11    1
    12    12    13    1
    13    13    14    2
    14    13    15    1
    15    12    16    1
    16    16    17    1
    17    17    18    1
    18    18    19    1
    19    18    20    1
    20    20    21    1
    21    21    22    1
    22    21    23    1
    23    23    24    1
    24    20    25    1
    25    10    26    1
    26    26    27    1
    27    26    28    1
    28    28    29    1
    29    29    30    1
    30    29    31    1
    31    31    32    1
    32    28    33    1
    33    33     5    1
    34    25    12    1
@<TRIPOS>SUBSTRUCTURE
     1 RES1        1 GROUP             0 ****  ****    0  
@<TRIPOS>MOLECULE
ligand_90
    33    34     1     0     0
SMALL
USER_CHARGES
****
Generated from the CSD

@<TRIPOS>ATOM
     1 C1     -10.2988   7.3133  10.1139   C.2       1 RES1   0.0000
     2 C2      -9.0779   6.6506  10.0460   C.2       1 RES1   0.0000
     3 C3      -8.8414   5.7514   9.0010   C.2       1 RES1   0.0000
     4 O4      -7.7300   4.9920   8.7460   O.3       1 RES1   0.0000
     5 C5      -7.3182   4.2982   7.5340   C.3       1 RES1   0.0000
     6 C6      -5.9536   3.5953   7.6999   C.2       1 RES1   0.0000
     7 O7      -5.5095   3.3668   8.8618   O.co2     1 RES1   0.0000
     8 O8      -5.3677   3.2802   6.6493   O.co2     1 RES1  -1.0000
     9 C9      -7.3167   5.3512   6.4351   C.3       1 RES1   0.0000
    10 C10     -8.6997   5.7276   5.9581   C.3       1 RES1   0.0000
    11 O11     -8.5183   6.6127   4.8440   O.3       1 RES1   0.0000
    12 C12     -8.8998   7.9738   5.2109   C.3       1 RES1   0.0000
    13 C13    -10.3358   7.9869   5.7745   C.2       1 RES1   0.0000
    14 O14    -10.4440   8.0600   7.0270   O.co2     1 RES1   0.0000
    15 O15    -11.2930   7.9606   4.9775   O.co2     1 RES1  -1.0000
    16 C16     -8.7639   8.9396   4.0482   C.3       1 RES1   0.0000
    17 C17     -7.3008   9.2438   3.6897   C.3       1 RES1   0.0000
    18 C18     -6.4761   9.6445   4.9172   C.3       1 RES1   0.0000
    19 O19     -6.7482  10.9876   5.3355   O.3       1 RES1   0.0000
    20 C20     -6.6958   8.6379   6.0569   C.3       1 RES1   0.0000
    21 C21     -6.0174   9.0299   7.3706   C.3       1 RES1   0.0000
    22 O22     -4.6303   9.2163   7.1163   O.3       1 RES1   0.0000
    23 C23     -6.1717   7.9415   8.4440   C.3       1 RES1   0.0000
    24 O24     -5.6158   8.4050   9.6921   O.3       1 RES1   0.0000
    25 O25     -8.0850   8.4418   6.3205   O.3       1 RES1   0.0000
    26 C26     -9.5093   4.4949   5.6238   C.3       1 RES1   0.0000
    27 O27     -9.0295   3.8014   4.4630   O.3       1 RES1   0.0000
    28 C28     -9.5359   3.6285   6.8742   C.3       1 RES1   0.0000
    29 C29    -10.3448   2.3265   6.7779   C.3       1 RES1   0.0000
    30 O30    -11.7031   2.6050   6.4346   O.3       1 RES1   0.0000
    31 C31    -10.3360   1.5475   8.1052   C.3       1 RES1   0.0000
    32 O32    -10.9827   0.2720   7.9444   O.3       1 RES1   0.0000
    33 O33     -8.2080   3.2520   7.2175   O.3       1 RES1   0.0000
@<TRIPOS>BOND
     1     1     2    1
     2     2     3    2
     3     3     4    1
     4     5     4    1
     5     5     6    1
     6     6     7    2
     7     6     8    1
     8     5     9    1
     9     9    10    1
    10    10    11    1
    11    12    11    1
    12    12    13    1
    13    13    14    2
    14    13    15    1
    15    12    16    1
    16    16    17    1
    17    17    18    1
    18    18    19    1
    19    18    20    1
    20    20    21    1
    21    21    22    1
    22    21    23    1
    23    23    24    1
    24    20    25    1
    25    10    26    1
    26    26    27    1
    27    26    28    1
    28    28    29    1
    29    29    30    1
    30    29    31    1
    31    31    32    1
    32    28    33    1
    33    33     5    1
    34    25    12    1
@<TRIPOS>SUBSTRUCTURE
     1 RES1        1 GROUP             0 ****  ****    0  
@<TRIPOS>MOLECULE
ligand_91
    33    34     1     0     0
SMALL
USER_CHARGES
****
Generated from the CSD

@<TRIPOS>ATOM
     1 C1     -10.3888   7.1314  10.2333   C.2       1 RES1   0.0000
     2 C2      -9.1290   6.5555  10.1084   C.2       1 RES1   0.0000
     3 C3      -8.8788   5.6725   9.0527   C.2       1 RES1   0.0000
     4 O4      -7.7300   4.9920   8.7460   O.3       1 RES1   0.0000
     5 C5      -6.8658   5.0768   7.5774   C.3       1 RES1   0.0000
     6 C6      -7.6228   4.7642   6.2687   C.2       1 RES1   0.0000
     7 O7      -8.8861   4.8236   6.2522   O.co2     1 RES1   0.0000
     8 O8      -6.9201   4.4766   5.2839   O.co2     1 RES1  -1.0000
     9 C9      -5.7146   4.1175   7.8440   C.3       1 RES1   0.0000
    10 C10     -4.7096   4.6432   8.8416   C.3       1 RES1   0.0000
    11 O11     -3.6346   3.6942   8.8738   O.3       1 RES1   0.0000
    12 C12     -3.2321   3.4312  10.2528   C.3       1 RES1   0.0000
    13 C13     -2.8586   4.7525  10.9559   C.2       1 RES1   0.0000
    14 O14     -3.7549   5.2811  11.6650   O.co2     1 RES1   0.0000
    15 O15     -1.7041   5.2000  10.8174   O.co2     1 RES1  -1.0000
    16 C16     -2.0937   2.4310  10.3362   C.3       1 RES1   0.0000
    17 C17     -2.5284   0.9982   9.9898   C.3       1 RES1   0.0000
    18 C18     -3.7774   0.5693  10.7666   C.3       1 RES1   0.0000
    19 O19     -3.4808   0.2469  12.1307   O.3       1 RES1   0.0000
    20 C20     -4.8660   1.6483  10.6604   C.3       1 RES1   0.0000
    21 C21     -6.1023   1.3691  11.5167   C.3       1 RES1   0.0000
    22 O22     -6.6079   0.0875  11.1630   O.3       1 RES1   0.0000
    23 C23     -7.2094   2.4086  11.2835   C.3       1 RES1   0.0000
    24 O24     -8.3189   2.1463  12.1677   O.3       1 RES1   0.0000
    25 O25     -4.3632   2.9351  11.0200   O.3       1 RES1   0.0000
    26 C26     -4.2682   6.0428   8.4763   C.3       1 RES1   0.0000
    27 O27     -3.4762   6.0916   7.2809   O.3       1 RES1   0.0000
    28 C28     -5.5235   6.8992   8.4019   C.3       1 RES1   0.0000
    29 C29     -5.3102   8.3855   8.0797   C.3       1 RES1   0.0000
    30 O30     -4.4504   8.9894   9.0474   O.3       1 RES1   0.0000
    31 C31     -6.6375   9.1645   8.0656   C.3       1 RES1   0.0000
    32 O32     -6.4219  10.5181   7.6272   O.3       1 RES1   0.0000
    33 O33     -6.3853   6.3888   7.3921   O.3       1 RES1   0.0000
@<TRIPOS>BOND
     1     1     2    1
     2     2     3    2
     3     3     4    1
     4     5     4    1
     5     5     6    1
     6     6     7    2
     7     6     8    1
     8     5     9    1
     9     9    10    1
    10    10    11    1
    11    12    11    1
    12    12    13    1
    13    13    14    2
    14    13    15    1
    15    12    16    1
    16    16    17    1
    17    17    18    1
    18    18    19    1
    19    18    20    1
    20    20    21    1
    21    21    22    1
    22    21    23    1
    23    23    24    1
    24    20    25    1
    25    10    26    1
    26    26    27    1
    27    26    28    1
    28    28    29    1
    29    29    30    1
    30    29    31    1
    31    31    32    1
    32    28    33    1
    33    33     5    1
    34    25    12    1
@<TRIPOS>SUBSTRUCTURE
     1 RES1        1 GROUP             0 ****  ****    0  
@<TRIPOS>MOLECULE
ligand_92
    33    34     1     0     0
SMALL
USER_CHARGES
****
Generated from the CSD

@<TRIPOS>ATOM
     1 C1     -10.4644   7.0886  10.1551   C.2       1 RES1   0.0000
     2 C2      -9.1908   6.5375  10.0633   C.2       1 RES1   0.0000
     3 C3      -8.8990   5.6514   9.0211   C.2       1 RES1   0.0000
     4 O4      -7.7300   4.9920   8.7460   O.3       1 RES1   0.0000
     5 C5      -7.4344   3.5667   8.7160   C.3       1 RES1   0.0000
     6 C6      -7.7309   2.8814  10.0674   C.2       1 RES1   0.0000
     7 O7      -8.4871   3.4558  10.9027   O.co2     1 RES1   0.0000
     8 O8      -7.2001   1.7714  10.2475   O.co2     1 RES1  -1.0000
     9 C9      -5.9749   3.4558   8.2989   C.3       1 RES1   0.0000
    10 C10     -5.7467   3.7113   6.8277   C.3       1 RES1   0.0000
    11 O11     -4.3616   3.4349   6.5775   O.3       1 RES1   0.0000
    12 C12     -3.7820   4.4752   5.7321   C.3       1 RES1   0.0000
    13 C13     -4.5910   4.6063   4.4251   C.2       1 RES1   0.0000
    14 O14     -5.4559   5.5209   4.3925   O.co2     1 RES1   0.0000
    15 O15     -4.3286   3.8405   3.4781   O.co2     1 RES1  -1.0000
    16 C16     -2.3143   4.2233   5.4393   C.3       1 RES1   0.0000
    17 C17     -1.4119   4.4496   6.6625   C.3       1 RES1   0.0000
    18 C18     -1.6784   5.7999   7.3357   C.3       1 RES1   0.0000
    19 O19     -1.1105   6.8909   6.6009   O.3       1 RES1   0.0000
    20 C20     -3.1855   5.9913   7.5650   C.3       1 RES1   0.0000
    21 C21     -3.5601   7.3705   8.1102   C.3       1 RES1   0.0000
    22 O22     -2.8226   7.5910   9.3064   O.3       1 RES1   0.0000
    23 C23     -5.0577   7.4712   8.4381   C.3       1 RES1   0.0000
    24 O24     -5.3726   8.8101   8.8740   O.3       1 RES1   0.0000
    25 O25     -3.9282   5.7758   6.3651   O.3       1 RES1   0.0000
    26 C26     -6.6893   2.8832   5.9836   C.3       1 RES1   0.0000
    27 O27     -6.4072   1.4773   6.0354   O.3       1 RES1   0.0000
    28 C28     -8.1030   3.2299   6.4265   C.3       1 RES1   0.0000
    29 C29     -9.2402   2.5280   5.6697   C.3       1 RES1   0.0000
    30 O30     -9.1603   2.8101   4.2717   O.3       1 RES1   0.0000
    31 C31    -10.6243   2.9773   6.1710   C.3       1 RES1   0.0000
    32 O32    -11.6625   2.2045   5.5419   O.3       1 RES1   0.0000
    33 O33     -8.2652   2.8923   7.7986   O.3       1 RES1   0.0000
@<TRIPOS>BOND
     1     1     2    1
     2     2     3    2
     3     3     4    1
     4     5     4    1
     5     5     6    1
     6     6     7    2
     7     6     8    1
     8     5     9    1
     9     9    10    1
    10    10    11    1
    11    12    11    1
    12    12    13    1
    13    13    14    2
    14    13    15    1
    15    12    16    1
    16    16    17    1
    17    17    18    1
    18    18    19    1
    19    18    20    1
    20    20    21    1
    21    21    22    1
    22    21    23    1
    23    23    24    1
    24    20    25    1
    25    10    26    1
    26    26    27    1
    27    26    28    1
    28    28    29    1
    29    29    30    1
    30    29    31    1
    31    31    32    1
    32    28    33    1
    33    33     5    1
    34    25    12    1
@<TRIPOS>SUBSTRUCTURE
     1 RES1        1 GROUP             0 ****  ****    0  
@<TRIPOS>MOLECULE
ligand_93
    33    34     1     0     0
SMALL
USER_CHARGES
****
Generated from the CSD

@<TRIPOS>ATOM
     1 C1     -10.3463   7.0774  10.3783   C.2       1 RES1   0.0000
     2 C2      -9.0872   6.5168  10.1919   C.2       1 RES1   0.0000
     3 C3      -8.8718   5.6551   9.1113   C.2       1 RES1   0.0000
     4 O4      -7.7300   4.9920   8.7460   O.3       1 RES1   0.0000
     5 C5      -7.4344   3.5667   8.7160   C.3       1 RES1   0.0000
     6 C6      -5.9408   3.2868   8.4431   C.2       1 RES1   0.0000
     7 O7      -5.1848   2.9583   9.4023   O.co2     1 RES1   0.0000
     8 O8      -5.5696   3.3950   7.2612   O.co2     1 RES1  -1.0000
     9 C9      -8.3548   2.9757   7.6577   C.3       1 RES1   0.0000
    10 C10     -9.7901   2.8458   8.1105   C.3       1 RES1   0.0000
    11 O11    -10.4854   2.1547   7.0635   O.3       1 RES1   0.0000
    12 C12    -11.7707   2.7960   6.7997   C.3       1 RES1   0.0000
    13 C13    -12.5557   2.9687   8.1165   C.2       1 RES1   0.0000
    14 O14    -12.4992   4.1052   8.6559   O.co2     1 RES1   0.0000
    15 O15    -13.2187   2.0071   8.5499   O.co2     1 RES1  -1.0000
    16 C16    -12.5907   2.0346   5.7745   C.3       1 RES1   0.0000
    17 C17    -12.0261   2.1504   4.3499   C.3       1 RES1   0.0000
    18 C18    -11.7494   3.6044   3.9541   C.3       1 RES1   0.0000
    19 O19    -12.9515   4.3148   3.6333   O.3       1 RES1   0.0000
    20 C20    -10.9471   4.3120   5.0569   C.3       1 RES1   0.0000
    21 C21    -10.7393   5.8074   4.8109   C.3       1 RES1   0.0000
    22 O22    -10.0875   5.9652   3.5565   O.3       1 RES1   0.0000
    23 C23     -9.8642   6.4520   5.8968   C.3       1 RES1   0.0000
    24 O24     -9.7234   7.8640   5.6353   O.3       1 RES1   0.0000
    25 O25    -11.5660   4.1580   6.3341   O.3       1 RES1   0.0000
    26 C26     -9.8721   2.1502   9.4508   C.3       1 RES1   0.0000
    27 O27     -9.5070   0.7640   9.3913   O.3       1 RES1   0.0000
    28 C28     -9.0215   2.9554  10.4219   C.3       1 RES1   0.0000
    29 C29     -8.9882   2.4499  11.8717   C.3       1 RES1   0.0000
    30 O30    -10.3082   2.4009  12.4154   O.3       1 RES1   0.0000
    31 C31     -8.1315   3.3555  12.7743   C.3       1 RES1   0.0000
    32 O32     -8.0071   2.7829  14.0886   O.3       1 RES1   0.0000
    33 O33     -7.6729   2.9695   9.9703   O.3       1 RES1   0.0000
@<TRIPOS>BOND
     1     1     2    1
     2     2     3    2
     3     3     4    1
     4     5     4    1
     5     5     6    1
     6     6     7    2
     7     6     8    1
     8     5     9    1
     9     9    10    1
    10    10    11    1
    11    12    11    1
    12    12    13    1
    13    13    14    2
    14    13    15    1
    15    12    16    1
    16    16    17    1
    17    17    18    1
    18    18    19    1
    19    18    20    1
    20    20    21    1
    21    21    22    1
    22    21    23    1
    23    23    24    1
    24    20    25    1
    25    10    26    1
    26    26    27    1
    27    26    28    1
    28    28    29    1
    29    29    30    1
    30    29    31    1
    31    31    32    1
    32    28    33    1
    33    33     5    1
    34    25    12    1
@<TRIPOS>SUBSTRUCTURE
     1 RES1        1 GROUP             0 ****  ****    0  
@<TRIPOS>MOLECULE
ligand_94
    33    34     1     0     0
SMALL
USER_CHARGES
****
Generated from the CSD

@<TRIPOS>ATOM
     1 C1     -10.4643   7.0886  10.1553   C.2       1 RES1   0.0000
     2 C2      -9.1906   6.5375  10.0634   C.2       1 RES1   0.0000
     3 C3      -8.8989   5.6514   9.0212   C.2       1 RES1   0.0000
     4 O4      -7.7300   4.9920   8.7460   O.3       1 RES1   0.0000
     5 C5      -7.4344   3.5667   8.7160   C.3       1 RES1   0.0000
     6 C6      -7.7309   2.8814  10.0674   C.2       1 RES1   0.0000
     7 O7      -8.4871   3.4558  10.9027   O.co2     1 RES1   0.0000
     8 O8      -7.2001   1.7714  10.2475   O.co2     1 RES1  -1.0000
     9 C9      -5.9749   3.4558   8.2989   C.3       1 RES1   0.0000
    10 C10     -5.7467   3.7113   6.8277   C.3       1 RES1   0.0000
    11 O11     -4.3616   3.4349   6.5775   O.3       1 RES1   0.0000
    12 C12     -3.6183   4.6809   6.4111   C.3       1 RES1   0.0000
    13 C13     -4.2984   5.5641   5.3447   C.2       1 RES1   0.0000
    14 O14     -4.3727   6.7944   5.6025   O.co2     1 RES1   0.0000
    15 O15     -4.6983   5.0319   4.2916   O.co2     1 RES1  -1.0000
    16 C16     -2.1610   4.4364   6.0649   C.3       1 RES1   0.0000
    17 C17     -1.3479   3.8881   7.2481   C.3       1 RES1   0.0000
    18 C18     -1.5431   4.7209   8.5191   C.3       1 RES1   0.0000
    19 O19     -0.8160   5.9546   8.4733   O.3       1 RES1   0.0000
    20 C20     -3.0397   4.9516   8.7789   C.3       1 RES1   0.0000
    21 C21     -3.3287   5.8881   9.9532   C.3       1 RES1   0.0000
    22 O22     -4.6759   5.6854  10.3624   O.3       1 RES1   0.0000
    23 C23     -3.1564   7.3650   9.5662   C.3       1 RES1   0.0000
    24 O24     -3.3990   8.2021  10.7159   O.3       1 RES1   0.0000
    25 O25     -3.6955   5.4774   7.6250   O.3       1 RES1   0.0000
    26 C26     -6.6893   2.8832   5.9836   C.3       1 RES1   0.0000
    27 O27     -6.4072   1.4773   6.0354   O.3       1 RES1   0.0000
    28 C28     -8.1030   3.2299   6.4265   C.3       1 RES1   0.0000
    29 C29     -9.2402   2.5280   5.6697   C.3       1 RES1   0.0000
    30 O30     -9.1603   2.8101   4.2717   O.3       1 RES1   0.0000
    31 C31    -10.6243   2.9773   6.1710   C.3       1 RES1   0.0000
    32 O32    -10.7786   4.3995   6.0149   O.3       1 RES1   0.0000
    33 O33     -8.2652   2.8923   7.7986   O.3       1 RES1   0.0000
@<TRIPOS>BOND
     1     1     2    1
     2     2     3    2
     3     3     4    1
     4     5     4    1
     5     5     6    1
     6     6     7    2
     7     6     8    1
     8     5     9    1
     9     9    10    1
    10    10    11    1
    11    12    11    1
    12    12    13    1
    13    13    14    2
    14    13    15    1
    15    12    16    1
    16    16    17    1
    17    17    18    1
    18    18    19    1
    19    18    20    1
    20    20    21    1
    21    21    22    1
    22    21    23    1
    23    23    24    1
    24    20    25    1
    25    10    26    1
    26    26    27    1
    27    26    28    1
    28    28    29    1
    29    29    30    1
    30    29    31    1
    31    31    32    1
    32    28    33    1
    33    33     5    1
    34    25    12    1
@<TRIPOS>SUBSTRUCTURE
     1 RES1        1 GROUP             0 ****  ****    0  
@<TRIPOS>MOLECULE
ligand_95
    33    34     1     0     0
SMALL
USER_CHARGES
****
Generated from the CSD

@<TRIPOS>ATOM
     1 C1     -10.4343   7.1508  10.1188   C.2       1 RES1   0.0000
     2 C2      -9.1504   6.6312   9.9922   C.2       1 RES1   0.0000
     3 C3      -8.9005   5.6428   9.0345   C.2       1 RES1   0.0000
     4 O4      -7.7300   4.9920   8.7460   O.3       1 RES1   0.0000
     5 C5      -6.8658   5.0768   7.5774   C.3       1 RES1   0.0000
     6 C6      -5.7131   4.0510   7.6292   C.2       1 RES1   0.0000
     7 O7      -5.8014   3.0557   8.4046   O.co2     1 RES1   0.0000
     8 O8      -4.7492   4.2706   6.8749   O.co2     1 RES1  -1.0000
     9 C9      -6.3794   6.5181   7.5266   C.3       1 RES1   0.0000
    10 C10     -7.4265   7.4916   7.0390   C.3       1 RES1   0.0000
    11 O11     -6.7744   8.7636   6.9197   O.3       1 RES1   0.0000
    12 C12     -7.1857   9.6477   8.0069   C.3       1 RES1   0.0000
    13 C13     -8.7250   9.7285   8.0695   C.2       1 RES1   0.0000
    14 O14     -9.2390   9.7154   9.2189   O.co2     1 RES1   0.0000
    15 O15     -9.3635   9.8355   7.0051   O.co2     1 RES1  -1.0000
    16 C16     -6.5739  11.0310   7.8825   C.3       1 RES1   0.0000
    17 C17     -5.0671  11.0491   8.1841   C.3       1 RES1   0.0000
    18 C18     -4.7336  10.3495   9.5057   C.3       1 RES1   0.0000
    19 O19     -5.0634  11.1570  10.6424   O.3       1 RES1   0.0000
    20 C20     -5.4168   8.9748   9.5666   C.3       1 RES1   0.0000
    21 C21     -5.2514   8.2583  10.9079   C.3       1 RES1   0.0000
    22 O22     -5.5291   6.8771  10.7114   O.3       1 RES1   0.0000
    23 C23     -6.2178   8.8007  11.9721   C.3       1 RES1   0.0000
    24 O24     -5.9937   8.1224  13.2256   O.3       1 RES1   0.0000
    25 O25     -6.8138   9.0727   9.2895   O.3       1 RES1   0.0000
    26 C26     -8.0514   7.0105   5.7487   C.3       1 RES1   0.0000
    27 O27     -7.1469   7.0449   4.6355   O.3       1 RES1   0.0000
    28 C28     -8.6195   5.6253   6.0199   C.3       1 RES1   0.0000
    29 C29     -9.3449   4.9502   4.8466   C.3       1 RES1   0.0000
    30 O30    -10.4280   5.7635   4.3927   O.3       1 RES1   0.0000
    31 C31     -9.9109   3.5738   5.2390   C.3       1 RES1   0.0000
    32 O32    -10.8338   3.7033   6.3356   O.3       1 RES1   0.0000
    33 O33     -7.5664   4.7479   6.3995   O.3       1 RES1   0.0000
@<TRIPOS>BOND
     1     1     2    1
     2     2     3    2
     3     3     4    1
     4     5     4    1
     5     5     6    1
     6     6     7    2
     7     6     8    1
     8     5     9    1
     9     9    10    1
    10    10    11    1
    11    12    11    1
    12    12    13    1
    13    13    14    2
    14    13    15    1
    15    12    16    1
    16    16    17    1
    17    17    18    1
    18    18    19    1
    19    18    20    1
    20    20    21    1
    21    21    22    1
    22    21    23    1
    23    23    24    1
    24    20    25    1
    25    10    26    1
    26    26    27    1
    27    26    28    1
    28    28    29    1
    29    29    30    1
    30    29    31    1
    31    31    32    1
    32    28    33    1
    33    33     5    1
    34    25    12    1
@<TRIPOS>SUBSTRUCTURE
     1 RES1        1 GROUP             0 ****  ****    0  
@<TRIPOS>MOLECULE
ligand_96
    33    34     1     0     0
SMALL
USER_CHARGES
****
Generated from the CSD

@<TRIPOS>ATOM
     1 C1     -10.5471   7.0261  10.0821   C.2       1 RES1   0.0000
     2 C2      -9.2769   6.4601  10.0535   C.2       1 RES1   0.0000
     3 C3      -8.9098   5.6501   8.9738   C.2       1 RES1   0.0000
     4 O4      -7.7300   4.9920   8.7460   O.3       1 RES1   0.0000
     5 C5      -7.4344   3.5667   8.7160   C.3       1 RES1   0.0000
     6 C6      -5.9408   3.2868   8.4431   C.2       1 RES1   0.0000
     7 O7      -5.1848   2.9583   9.4023   O.co2     1 RES1   0.0000
     8 O8      -5.5696   3.3950   7.2612   O.co2     1 RES1  -1.0000
     9 C9      -8.3548   2.9757   7.6577   C.3       1 RES1   0.0000
    10 C10     -9.7901   2.8458   8.1105   C.3       1 RES1   0.0000
    11 O11    -10.4854   2.1547   7.0635   O.3       1 RES1   0.0000
    12 C12    -11.3328   3.0828   6.3195   C.3       1 RES1   0.0000
    13 C13    -12.2592   3.8461   7.2886   C.2       1 RES1   0.0000
    14 O14    -12.5953   3.2359   8.3376   O.co2     1 RES1   0.0000
    15 O15    -12.5909   5.0134   7.0066   O.co2     1 RES1  -1.0000
    16 C16    -12.1357   2.3837   5.2380   C.3       1 RES1   0.0000
    17 C17    -11.2720   1.9249   4.0526   C.3       1 RES1   0.0000
    18 C18    -10.3773   3.0488   3.5200   C.3       1 RES1   0.0000
    19 O19    -11.1109   3.9974   2.7360   O.3       1 RES1   0.0000
    20 C20     -9.6280   3.7256   4.6780   C.3       1 RES1   0.0000
    21 C21     -8.8120   4.9494   4.2581   C.3       1 RES1   0.0000
    22 O22     -7.8550   5.2162   5.2762   O.3       1 RES1   0.0000
    23 C23     -9.6939   6.1953   4.0829   C.3       1 RES1   0.0000
    24 O24     -8.8851   7.3081   3.6480   O.3       1 RES1   0.0000
    25 O25    -10.5226   4.1279   5.7151   O.3       1 RES1   0.0000
    26 C26     -9.8721   2.1502   9.4508   C.3       1 RES1   0.0000
    27 O27     -9.5070   0.7640   9.3913   O.3       1 RES1   0.0000
    28 C28     -9.0215   2.9554  10.4219   C.3       1 RES1   0.0000
    29 C29     -8.9882   2.4499  11.8717   C.3       1 RES1   0.0000
    30 O30    -10.3082   2.4009  12.4154   O.3       1 RES1   0.0000
    31 C31     -8.1315   3.3555  12.7743   C.3       1 RES1   0.0000
    32 O32     -8.6435   4.7003  12.7690   O.3       1 RES1   0.0000
    33 O33     -7.6729   2.9695   9.9703   O.3       1 RES1   0.0000
@<TRIPOS>BOND
     1     1     2    1
     2     2     3    2
     3     3     4    1
     4     5     4    1
     5     5     6    1
     6     6     7    2
     7     6     8    1
     8     5     9    1
     9     9    10    1
    10    10    11    1
    11    12    11    1
    12    12    13    1
    13    13    14    2
    14    13    15    1
    15    12    16    1
    16    16    17    1
    17    17    18    1
    18    18    19    1
    19    18    20    1
    20    20    21    1
    21    21    22    1
    22    21    23    1
    23    23    24    1
    24    20    25    1
    25    10    26    1
    26    26    27    1
    27    26    28    1
    28    28    29    1
    29    29    30    1
    30    29    31    1
    31    31    32    1
    32    28    33    1
    33    33     5    1
    34    25    12    1
@<TRIPOS>SUBSTRUCTURE
     1 RES1        1 GROUP             0 ****  ****    0  
@<TRIPOS>MOLECULE
ligand_97
    33    34     1     0     0
SMALL
USER_CHARGES
****
Generated from the CSD

@<TRIPOS>ATOM
     1 C1     -10.4642   7.0887  10.1555   C.2       1 RES1   0.0000
     2 C2      -9.1905   6.5376  10.0635   C.2       1 RES1   0.0000
     3 C3      -8.8989   5.6514   9.0213   C.2       1 RES1   0.0000
     4 O4      -7.7300   4.9920   8.7460   O.3       1 RES1   0.0000
     5 C5      -7.4344   3.5667   8.7160   C.3       1 RES1   0.0000
     6 C6      -7.7309   2.8814  10.0674   C.2       1 RES1   0.0000
     7 O7      -8.4871   3.4558  10.9027   O.co2     1 RES1   0.0000
     8 O8      -7.2001   1.7714  10.2475   O.co2     1 RES1  -1.0000
     9 C9      -5.9749   3.4558   8.2989   C.3       1 RES1   0.0000
    10 C10     -5.7467   3.7113   6.8277   C.3       1 RES1   0.0000
    11 O11     -4.3616   3.4349   6.5775   O.3       1 RES1   0.0000
    12 C12     -3.6305   4.6779   6.3467   C.3       1 RES1   0.0000
    13 C13     -4.3190   5.4980   5.2361   C.2       1 RES1   0.0000
    14 O14     -4.4054   6.7392   5.4299   O.co2     1 RES1   0.0000
    15 O15     -4.7134   4.9080   4.2121   O.co2     1 RES1  -1.0000
    16 C16     -2.1708   4.4302   6.0133   C.3       1 RES1   0.0000
    17 C17     -1.3527   3.9518   7.2231   C.3       1 RES1   0.0000
    18 C18     -1.5565   4.8474   8.4494   C.3       1 RES1   0.0000
    19 O19     -0.8415   6.0841   8.3396   O.3       1 RES1   0.0000
    20 C20     -3.0554   5.0764   8.6971   C.3       1 RES1   0.0000
    21 C21     -3.3539   6.0696   9.8215   C.3       1 RES1   0.0000
    22 O22     -2.7039   5.6137  11.0017   O.3       1 RES1   0.0000
    23 C23     -4.8596   6.1775  10.1079   C.3       1 RES1   0.0000
    24 O24     -5.0967   7.2081  11.0894   O.3       1 RES1   0.0000
    25 O25     -3.7159   5.5354   7.5177   O.3       1 RES1   0.0000
    26 C26     -6.6893   2.8832   5.9836   C.3       1 RES1   0.0000
    27 O27     -6.4072   1.4773   6.0354   O.3       1 RES1   0.0000
    28 C28     -8.1030   3.2299   6.4265   C.3       1 RES1   0.0000
    29 C29     -9.2402   2.5280   5.6697   C.3       1 RES1   0.0000
    30 O30    -10.5011   3.1050   6.0129   O.3       1 RES1   0.0000
    31 C31     -9.2984   1.0238   5.9904   C.3       1 RES1   0.0000
    32 O32     -9.5195   0.8174   7.3973   O.3       1 RES1   0.0000
    33 O33     -8.2652   2.8923   7.7986   O.3       1 RES1   0.0000
@<TRIPOS>BOND
     1     1     2    1
     2     2     3    2
     3     3     4    1
     4     5     4    1
     5     5     6    1
     6     6     7    2
     7     6     8    1
     8     5     9    1
     9     9    10    1
    10    10    11    1
    11    12    11    1
    12    12    13    1
    13    13    14    2
    14    13    15    1
    15    12    16    1
    16    16    17    1
    17    17    18    1
    18    18    19    1
    19    18    20    1
    20    20    21    1
    21    21    22    1
    22    21    23    1
    23    23    24    1
    24    20    25    1
    25    10    26    1
    26    26    27    1
    27    26    28    1
    28    28    29    1
    29    29    30    1
    30    29    31    1
    31    31    32    1
    32    28    33    1
    33    33     5    1
    34    25    12    1
@<TRIPOS>SUBSTRUCTURE
     1 RES1        1 GROUP             0 ****  ****    0  
@<TRIPOS>MOLECULE
ligand_98
    33    34     1     0     0
SMALL
USER_CHARGES
****
Generated from the CSD

@<TRIPOS>ATOM
     1 C1     -10.5341   7.0705  10.0402   C.2       1 RES1   0.0000
     2 C2      -9.2278   6.6051   9.9344   C.2       1 RES1   0.0000
     3 C3      -8.9297   5.5988   9.0098   C.2       1 RES1   0.0000
     4 O4      -7.7300   4.9920   8.7460   O.3       1 RES1   0.0000
     5 C5      -6.8658   5.0768   7.5774   C.3       1 RES1   0.0000
     6 C6      -5.7131   4.0510   7.6292   C.2       1 RES1   0.0000
     7 O7      -5.8014   3.0557   8.4046   O.co2     1 RES1   0.0000
     8 O8      -4.7492   4.2706   6.8749   O.co2     1 RES1  -1.0000
     9 C9      -6.3794   6.5181   7.5266   C.3       1 RES1   0.0000
    10 C10     -7.4265   7.4916   7.0390   C.3       1 RES1   0.0000
    11 O11     -6.7744   8.7636   6.9197   O.3       1 RES1   0.0000
    12 C12     -7.1155   9.6163   8.0553   C.3       1 RES1   0.0000
    13 C13     -8.6464   9.6650   8.2391   C.2       1 RES1   0.0000
    14 O14     -9.0691   9.6083   9.4239   O.co2     1 RES1   0.0000
    15 O15     -9.3677   9.7906   7.2310   O.co2     1 RES1  -1.0000
    16 C16     -6.5406  11.0138   7.9149   C.3       1 RES1   0.0000
    17 C17     -5.0154  11.0556   8.0987   C.3       1 RES1   0.0000
    18 C18     -4.5669  10.3351   9.3743   C.3       1 RES1   0.0000
    19 O19     -4.8215  11.1117  10.5511   O.3       1 RES1   0.0000
    20 C20     -5.2182   8.9460   9.4572   C.3       1 RES1   0.0000
    21 C21     -4.9354   8.2049  10.7650   C.3       1 RES1   0.0000
    22 O22     -3.5269   8.1700  10.9606   O.3       1 RES1   0.0000
    23 C23     -5.4562   6.7598  10.7307   C.3       1 RES1   0.0000
    24 O24     -5.2636   6.1412  12.0198   O.3       1 RES1   0.0000
    25 O25     -6.6341   9.0219   9.2918   O.3       1 RES1   0.0000
    26 C26     -8.0514   7.0105   5.7487   C.3       1 RES1   0.0000
    27 O27     -7.1469   7.0449   4.6355   O.3       1 RES1   0.0000
    28 C28     -8.6195   5.6253   6.0199   C.3       1 RES1   0.0000
    29 C29     -9.3449   4.9502   4.8466   C.3       1 RES1   0.0000
    30 O30    -10.0266   3.7753   5.2884   O.3       1 RES1   0.0000
    31 C31     -8.3696   4.5457   3.7268   C.3       1 RES1   0.0000
    32 O32     -7.3891   3.6174   4.2246   O.3       1 RES1   0.0000
    33 O33     -7.5664   4.7479   6.3995   O.3       1 RES1   0.0000
@<TRIPOS>BOND
     1     1     2    1
     2     2     3    2
     3     3     4    1
     4     5     4    1
     5     5     6    1
     6     6     7    2
     7     6     8    1
     8     5     9    1
     9     9    10    1
    10    10    11    1
    11    12    11    1
    12    12    13    1
    13    13    14    2
    14    13    15    1
    15    12    16    1
    16    16    17    1
    17    17    18    1
    18    18    19    1
    19    18    20    1
    20    20    21    1
    21    21    22    1
    22    21    23    1
    23    23    24    1
    24    20    25    1
    25    10    26    1
    26    26    27    1
    27    26    28    1
    28    28    29    1
    29    29    30    1
    30    29    31    1
    31    31    32    1
    32    28    33    1
    33    33     5    1
    34    25    12    1
@<TRIPOS>SUBSTRUCTURE
     1 RES1        1 GROUP             0 ****  ****    0  
@<TRIPOS>MOLECULE
ligand_99
    33    34     1     0     0
SMALL
USER_CHARGES
****
Generated from the CSD

@<TRIPOS>ATOM
     1 C1     -10.5472   7.0260  10.0817   C.2       1 RES1   0.0000
     2 C2      -9.2771   6.4600  10.0533   C.2       1 RES1   0.0000
     3 C3      -8.9098   5.6501   8.9736   C.2       1 RES1   0.0000
     4 O4      -7.7300   4.9920   8.7460   O.3       1 RES1   0.0000
     5 C5      -7.4344   3.5667   8.7160   C.3       1 RES1   0.0000
     6 C6      -5.9408   3.2868   8.4431   C.2       1 RES1   0.0000
     7 O7      -5.1848   2.9583   9.4023   O.co2     1 RES1   0.0000
     8 O8      -5.5696   3.3949   7.2612   O.co2     1 RES1  -1.0000
     9 C9      -8.3548   2.9757   7.6577   C.3       1 RES1   0.0000
    10 C10     -9.7901   2.8458   8.1105   C.3       1 RES1   0.0000
    11 O11    -10.4854   2.1547   7.0635   O.3       1 RES1   0.0000
    12 C12    -11.3732   3.0717   6.3537   C.3       1 RES1   0.0000
    13 C13    -12.3121   3.7786   7.3530   C.2       1 RES1   0.0000
    14 O14    -12.6161   3.1302   8.3888   O.co2     1 RES1   0.0000
    15 O15    -12.6844   4.9416   7.1062   O.co2     1 RES1  -1.0000
    16 C16    -12.1661   2.3729   5.2646   C.3       1 RES1   0.0000
    17 C17    -11.3030   1.9735   4.0575   C.3       1 RES1   0.0000
    18 C18    -10.4537   3.1402   3.5428   C.3       1 RES1   0.0000
    19 O19    -11.2290   4.0825   2.7921   O.3       1 RES1   0.0000
    20 C20     -9.7126   3.8130   4.7084   C.3       1 RES1   0.0000
    21 C21     -8.9439   5.0740   4.3099   C.3       1 RES1   0.0000
    22 O22     -8.0451   4.7339   3.2611   O.3       1 RES1   0.0000
    23 C23     -8.1292   5.6443   5.4810   C.3       1 RES1   0.0000
    24 O24     -7.5219   6.8934   5.0902   O.3       1 RES1   0.0000
    25 O25    -10.6067   4.1585   5.7662   O.3       1 RES1   0.0000
    26 C26     -9.8721   2.1502   9.4508   C.3       1 RES1   0.0000
    27 O27     -9.5070   0.7640   9.3913   O.3       1 RES1   0.0000
    28 C28     -9.0215   2.9554  10.4219   C.3       1 RES1   0.0000
    29 C29     -8.9882   2.4499  11.8717   C.3       1 RES1   0.0000
    30 O30     -8.3569   3.4085  12.7220   O.3       1 RES1   0.0000
    31 C31     -8.2229   1.1205  11.9971   C.3       1 RES1   0.0000
    32 O32     -6.8611   1.2808  11.5604   O.3       1 RES1   0.0000
    33 O33     -7.6729   2.9695   9.9703   O.3       1 RES1   0.0000
@<TRIPOS>BOND
     1     1     2    1
     2     2     3    2
     3     3     4    1
     4     5     4    1
     5     5     6    1
     6     6     7    2
     7     6     8    1
     8     5     9    1
     9     9    10    1
    10    10    11    1
    11    12    11    1
    12    12    13    1
    13    13    14    2
    14    13    15    1
    15    12    16    1
    16    16    17    1
    17    17    18    1
    18    18    19    1
    19    18    20    1
    20    20    21    1
    21    21    22    1
    22    21    23    1
    23    23    24    1
    24    20    25    1
    25    10    26    1
    26    26    27    1
    27    26    28    1
    28    28    29    1
    29    29    30    1
    30    29    31    1
    31    31    32    1
    32    28    33    1
    33    33     5    1
    34    25    12    1
@<TRIPOS>SUBSTRUCTURE
     1 RES1        1 GROUP             0 ****  ****    0  
