@<TRIPOS>MOLECULE
native
    26    26     1     0     0
SMALL
USER_CHARGES
****
Generated from the CSD

@<TRIPOS>ATOM
     1 O1      44.5260  89.2810  36.5710   O.2       1 RES1   0.0000
     2 S2      43.6610  88.2370  35.9660   S.o2      1 RES1   0.0000
     3 O3      42.5550  87.8370  36.8560   O.2       1 RES1   0.0000
     4 O4      44.5600  87.0970  35.6750   O.3       1 RES1  -1.0000
     5 O5      42.9120  88.7710  34.6240   O.3       1 RES1   0.0000
     6 C6      43.6420  89.1290  33.4620   C.3       1 RES1   0.0000
     7 C7      43.4240  90.6320  33.1980   C.3       1 RES1   0.0000
     8 O8      44.0500  90.9670  31.9570   O.3       1 RES1   0.0000
     9 C9      43.8750  91.5530  34.3490   C.3       1 RES1   0.0000
    10 S10     43.6850  93.2260  34.1880   S.3       1 RES1   1.0000
    11 C11     45.0260  93.7360  33.3090   C.3       1 RES1   0.0000
    12 C12     46.0260  94.2700  34.3540   C.3       1 RES1   0.0000
    13 O13     47.0100  95.2460  33.9250   O.3       1 RES1   0.0000
    14 C14     45.2010  94.8470  35.4960   C.3       1 RES1   0.0000
    15 O15     45.9980  95.0850  36.6570   O.3       1 RES1   0.0000
    16 C16     44.1090  93.7960  35.7210   C.3       1 RES1   0.0000
    17 C17     42.9840  94.3280  36.6010   C.3       1 RES1   0.0000
    18 O18     42.3740  95.5410  36.1280   O.3       1 RES1   0.0000
    19 C19     43.0560  88.2840  32.3160   C.3       1 RES1   0.0000
    20 O20     41.6830  88.6680  32.1340   O.3       1 RES1   0.0000
    21 C21     43.1210  86.7560  32.4950   C.3       1 RES1   0.0000
    22 O22     44.4430  86.3190  32.7790   O.3       1 RES1   0.0000
    23 C23     42.6660  86.0020  31.2440   C.3       1 RES1   0.0000
    24 O24     43.6380  86.1190  30.1980   O.3       1 RES1   0.0000
    25 C25     42.3750  84.5210  31.5580   C.3       1 RES1   0.0000
    26 O26     41.2250  84.1420  30.7670   O.3       1 RES1   0.0000
@<TRIPOS>BOND
     1     1     2    2
     2     2     3    2
     3     2     4    1
     4     2     5    1
     5     6     5    1
     6     6     7    1
     7     7     8    1
     8     7     9    1
     9    10     9    1
    10    10    11    1
    11    11    12    1
    12    12    13    1
    13    12    14    1
    14    14    15    1
    15    14    16    1
    16    16    17    1
    17    17    18    1
    18     6    19    1
    19    19    20    1
    20    19    21    1
    21    21    22    1
    22    21    23    1
    23    23    24    1
    24    23    25    1
    25    25    26    1
    26    16    10    1
@<TRIPOS>SUBSTRUCTURE
     1 RES1        1 GROUP             0 ****  ****    0  
@<TRIPOS>MOLECULE
ligand_0
    26    26     1     0     0
SMALL
USER_CHARGES
****
Generated from the CSD

@<TRIPOS>ATOM
     1 O1      43.0135  90.6522  35.7710   O.2       1 RES1   0.0000
     2 S2      41.9804  90.6994  36.8362   S.o2      1 RES1   0.0000
     3 O3      42.5674  90.7215  38.1891   O.2       1 RES1   0.0000
     4 O4      41.1429  89.4959  36.6298   O.3       1 RES1  -1.0000
     5 O5      41.0991  92.0653  36.7679   O.3       1 RES1   0.0000
     6 C6      40.3720  92.4193  35.6028   C.3       1 RES1   0.0000
     7 C7      41.0989  93.5932  34.9174   C.3       1 RES1   0.0000
     8 O8      40.3058  94.0298  33.8107   O.3       1 RES1   0.0000
     9 C9      42.5551  93.2912  34.5115   C.3       1 RES1   0.0000
    10 S10     43.4562  94.4876  33.7257   S.3       1 RES1   1.0000
    11 C11     45.0902  93.7689  33.3714   C.3       1 RES1   0.0000
    12 C12     46.0250  94.2687  34.3438   C.3       1 RES1   0.0000
    13 O13     47.0083  95.2439  33.9114   O.3       1 RES1   0.0000
    14 C14     45.3751  94.8415  35.4729   C.3       1 RES1   0.0000
    15 O15     45.1412  93.8734  36.4965   O.3       1 RES1   0.0000
    16 C16     44.0718  95.4693  35.0841   C.3       1 RES1   0.0000
    17 C17     44.2108  96.9706  34.8611   C.3       1 RES1   0.0000
    18 O18     42.9806  97.6487  34.5546   O.3       1 RES1   0.0000
    19 C19     38.9765  92.8518  36.0889   C.3       1 RES1   0.0000
    20 O20     39.1458  93.8928  37.0653   O.3       1 RES1   0.0000
    21 C21     38.0941  91.7455  36.6958   C.3       1 RES1   0.0000
    22 O22     37.8863  90.6806  35.7781   O.3       1 RES1   0.0000
    23 C23     36.7098  92.2580  37.0980   C.3       1 RES1   0.0000
    24 O24     35.9883  92.7263  35.9523   O.3       1 RES1   0.0000
    25 C25     35.9073  91.1745  37.8454   C.3       1 RES1   0.0000
    26 O26     34.7047  91.8083  38.3393   O.3       1 RES1   0.0000
@<TRIPOS>BOND
     1     1     2    2
     2     2     3    2
     3     2     4    1
     4     2     5    1
     5     6     5    1
     6     6     7    1
     7     7     8    1
     8     7     9    1
     9    10     9    1
    10    10    11    1
    11    11    12    1
    12    12    13    1
    13    12    14    1
    14    14    15    1
    15    14    16    1
    16    16    17    1
    17    17    18    1
    18     6    19    1
    19    19    20    1
    20    19    21    1
    21    21    22    1
    22    21    23    1
    23    23    24    1
    24    23    25    1
    25    25    26    1
    26    16    10    1
@<TRIPOS>SUBSTRUCTURE
     1 RES1        1 GROUP             0 ****  ****    0  
@<TRIPOS>MOLECULE
ligand_1
    26    26     1     0     0
SMALL
USER_CHARGES
****
Generated from the CSD

@<TRIPOS>ATOM
     1 O1      44.6985  89.4356  34.2843   O.2       1 RES1   0.0000
     2 S2      43.9982  88.6723  35.3479   S.o2      1 RES1   0.0000
     3 O3      44.8705  88.3849  36.5019   O.2       1 RES1   0.0000
     4 O4      43.5315  87.4257  34.6994   O.3       1 RES1  -1.0000
     5 O5      42.7637  89.5162  35.9891   O.3       1 RES1   0.0000
     6 C6      41.6976  89.9940  35.1850   C.3       1 RES1   0.0000
     7 C7      41.8483  91.5212  35.0399   C.3       1 RES1   0.0000
     8 O8      40.7115  92.0210  34.3314   O.3       1 RES1   0.0000
     9 C9      43.1789  91.9727  34.4056   C.3       1 RES1   0.0000
    10 S10     43.4585  93.6234  34.1652   S.3       1 RES1   1.0000
    11 C11     45.0893  93.7712  33.3712   C.3       1 RES1   0.0000
    12 C12     46.0228  94.2724  34.3443   C.3       1 RES1   0.0000
    13 O13     47.0055  95.2484  33.9123   O.3       1 RES1   0.0000
    14 C14     45.3713  94.8451  35.4725   C.3       1 RES1   0.0000
    15 O15     46.1930  94.7957  36.6396   O.3       1 RES1   0.0000
    16 C16     44.0741  94.1517  35.7558   C.3       1 RES1   0.0000
    17 C17     43.1526  95.0054  36.6189   C.3       1 RES1   0.0000
    18 O18     41.9170  94.3700  36.9888   O.3       1 RES1   0.0000
    19 C19     40.4044  89.6439  35.9438   C.3       1 RES1   0.0000
    20 O20     40.4955  90.2029  37.2648   O.3       1 RES1   0.0000
    21 C21     40.0705  88.1456  36.0645   C.3       1 RES1   0.0000
    22 O22     39.9656  87.5292  34.7884   O.3       1 RES1   0.0000
    23 C23     38.7430  87.8996  36.7841   C.3       1 RES1   0.0000
    24 O24     37.6529  88.4681  36.0485   O.3       1 RES1   0.0000
    25 C25     38.5111  86.3958  37.0322   C.3       1 RES1   0.0000
    26 O26     37.3380  86.2845  37.8707   O.3       1 RES1   0.0000
@<TRIPOS>BOND
     1     1     2    2
     2     2     3    2
     3     2     4    1
     4     2     5    1
     5     6     5    1
     6     6     7    1
     7     7     8    1
     8     7     9    1
     9    10     9    1
    10    10    11    1
    11    11    12    1
    12    12    13    1
    13    12    14    1
    14    14    15    1
    15    14    16    1
    16    16    17    1
    17    17    18    1
    18     6    19    1
    19    19    20    1
    20    19    21    1
    21    21    22    1
    22    21    23    1
    23    23    24    1
    24    23    25    1
    25    25    26    1
    26    16    10    1
@<TRIPOS>SUBSTRUCTURE
     1 RES1        1 GROUP             0 ****  ****    0  
@<TRIPOS>MOLECULE
ligand_2
    26    26     1     0     0
SMALL
USER_CHARGES
****
Generated from the CSD

@<TRIPOS>ATOM
     1 O1      40.8831  90.1758  34.9136   O.2       1 RES1   0.0000
     2 S2      41.3567  88.9589  34.2073   S.o2      1 RES1   0.0000
     3 O3      40.5248  88.6286  33.0350   O.2       1 RES1   0.0000
     4 O4      41.3227  87.8761  35.2167   O.3       1 RES1  -1.0000
     5 O5      42.8479  89.1576  33.5875   O.3       1 RES1   0.0000
     6 C6      43.9516  89.4987  34.4101   C.3       1 RES1   0.0000
     7 C7      44.3201  90.9708  34.1389   C.3       1 RES1   0.0000
     8 O8      45.5052  91.2818  34.8757   O.3       1 RES1   0.0000
     9 C9      43.1810  91.9732  34.4113   C.3       1 RES1   0.0000
    10 S10     43.4636  93.6244  34.1781   S.3       1 RES1   1.0000
    11 C11     45.0758  93.7707  33.3467   C.3       1 RES1   0.0000
    12 C12     46.0348  94.2589  34.3015   C.3       1 RES1   0.0000
    13 O13     47.0121  95.2335  33.8544   O.3       1 RES1   0.0000
    14 C14     45.4133  94.8253  35.4496   C.3       1 RES1   0.0000
    15 O15     46.2622  94.7618  36.5964   O.3       1 RES1   0.0000
    16 C16     44.1195  94.1361  35.7579   C.3       1 RES1   0.0000
    17 C17     43.2233  94.9871  36.6498   C.3       1 RES1   0.0000
    18 O18     41.9935  94.3548  37.0437   O.3       1 RES1   0.0000
    19 C19     45.0997  88.5633  33.9885   C.3       1 RES1   0.0000
    20 O20     45.3008  88.7117  32.5732   O.3       1 RES1   0.0000
    21 C21     44.9109  87.0683  34.3056   C.3       1 RES1   0.0000
    22 O22     44.7064  86.8507  35.6949   O.3       1 RES1   0.0000
    23 C23     46.1237  86.2282  33.9010   C.3       1 RES1   0.0000
    24 O24     47.2857  86.6238  34.6397   O.3       1 RES1   0.0000
    25 C25     45.8467  84.7224  34.0810   C.3       1 RES1   0.0000
    26 O26     46.9693  84.0168  33.5035   O.3       1 RES1   0.0000
@<TRIPOS>BOND
     1     1     2    2
     2     2     3    2
     3     2     4    1
     4     2     5    1
     5     6     5    1
     6     6     7    1
     7     7     8    1
     8     7     9    1
     9    10     9    1
    10    10    11    1
    11    11    12    1
    12    12    13    1
    13    12    14    1
    14    14    15    1
    15    14    16    1
    16    16    17    1
    17    17    18    1
    18     6    19    1
    19    19    20    1
    20    19    21    1
    21    21    22    1
    22    21    23    1
    23    23    24    1
    24    23    25    1
    25    25    26    1
    26    16    10    1
@<TRIPOS>SUBSTRUCTURE
     1 RES1        1 GROUP             0 ****  ****    0  
@<TRIPOS>MOLECULE
ligand_3
    26    26     1     0     0
SMALL
USER_CHARGES
****
Generated from the CSD

@<TRIPOS>ATOM
     1 O1      38.5552  91.9092  33.0388   O.2       1 RES1   0.0000
     2 S2      39.0877  90.8274  33.9051   S.o2      1 RES1   0.0000
     3 O3      39.5525  89.6623  33.1293   O.2       1 RES1   0.0000
     4 O4      37.9763  90.4636  34.8134   O.3       1 RES1  -1.0000
     5 O5      40.4076  91.3029  34.7290   O.3       1 RES1   0.0000
     6 C6      40.3720  92.4193  35.6028   C.3       1 RES1   0.0000
     7 C7      41.0989  93.5932  34.9174   C.3       1 RES1   0.0000
     8 O8      40.3450  93.9791  33.7654   O.3       1 RES1   0.0000
     9 C9      42.5788  93.3189  34.5841   C.3       1 RES1   0.0000
    10 S10     43.4811  94.5137  33.7972   S.3       1 RES1   1.0000
    11 C11     45.1473  93.8297  33.5370   C.3       1 RES1   0.0000
    12 C12     46.0256  94.3869  34.5308   C.3       1 RES1   0.0000
    13 O13     47.0005  95.3745  34.1077   O.3       1 RES1   0.0000
    14 C14     45.3124  94.9779  35.6112   C.3       1 RES1   0.0000
    15 O15     45.0602  94.0375  36.6561   O.3       1 RES1   0.0000
    16 C16     44.0110  95.5560  35.1465   C.3       1 RES1   0.0000
    17 C17     44.1198  97.0526  34.8791   C.3       1 RES1   0.0000
    18 O18     42.8864  97.6857  34.4980   O.3       1 RES1   0.0000
    19 C19     41.1199  91.9847  36.8767   C.3       1 RES1   0.0000
    20 O20     40.5194  90.7698  37.3554   O.3       1 RES1   0.0000
    21 C21     41.1523  93.0059  38.0287   C.3       1 RES1   0.0000
    22 O22     41.8437  94.1906  37.6574   O.3       1 RES1   0.0000
    23 C23     41.8518  92.4585  39.2743   C.3       1 RES1   0.0000
    24 O24     43.2260  92.1627  38.9972   O.3       1 RES1   0.0000
    25 C25     41.7304  93.4365  40.4598   C.3       1 RES1   0.0000
    26 O26     42.2537  92.7540  41.6226   O.3       1 RES1   0.0000
@<TRIPOS>BOND
     1     1     2    2
     2     2     3    2
     3     2     4    1
     4     2     5    1
     5     6     5    1
     6     6     7    1
     7     7     8    1
     8     7     9    1
     9    10     9    1
    10    10    11    1
    11    11    12    1
    12    12    13    1
    13    12    14    1
    14    14    15    1
    15    14    16    1
    16    16    17    1
    17    17    18    1
    18     6    19    1
    19    19    20    1
    20    19    21    1
    21    21    22    1
    22    21    23    1
    23    23    24    1
    24    23    25    1
    25    25    26    1
    26    16    10    1
@<TRIPOS>SUBSTRUCTURE
     1 RES1        1 GROUP             0 ****  ****    0  
@<TRIPOS>MOLECULE
ligand_4
    26    26     1     0     0
SMALL
USER_CHARGES
****
Generated from the CSD

@<TRIPOS>ATOM
     1 O1      43.0147  90.6535  35.7713   O.2       1 RES1   0.0000
     2 S2      41.9810  90.6998  36.8360   S.o2      1 RES1   0.0000
     3 O3      42.5671  90.7213  38.1892   O.2       1 RES1   0.0000
     4 O4      41.1440  89.4960  36.6285   O.3       1 RES1  -1.0000
     5 O5      41.0991  92.0653  36.7679   O.3       1 RES1   0.0000
     6 C6      40.3720  92.4193  35.6028   C.3       1 RES1   0.0000
     7 C7      41.0989  93.5932  34.9174   C.3       1 RES1   0.0000
     8 O8      40.3052  94.0307  33.8116   O.3       1 RES1   0.0000
     9 C9      42.5546  93.2907  34.5102   C.3       1 RES1   0.0000
    10 S10     43.4562  94.4877  33.7257   S.3       1 RES1   1.0000
    11 C11     45.0894  93.7683  33.3694   C.3       1 RES1   0.0000
    12 C12     46.0252  94.2659  34.3421   C.3       1 RES1   0.0000
    13 O13     47.0090  95.2410  33.9106   O.3       1 RES1   0.0000
    14 C14     45.3763  94.8375  35.4724   C.3       1 RES1   0.0000
    15 O15     45.1423  93.8680  36.4947   O.3       1 RES1   0.0000
    16 C16     44.0733  95.4668  35.0853   C.3       1 RES1   0.0000
    17 C17     44.2133  96.9684  34.8646   C.3       1 RES1   0.0000
    18 O18     42.9834  97.6479  34.5598   O.3       1 RES1   0.0000
    19 C19     38.9765  92.8518  36.0889   C.3       1 RES1   0.0000
    20 O20     39.1459  93.8917  37.0665   O.3       1 RES1   0.0000
    21 C21     38.0935  91.7451  36.6943   C.3       1 RES1   0.0000
    22 O22     38.0396  90.6010  35.8532   O.3       1 RES1   0.0000
    23 C23     36.6497  92.2030  36.9097   C.3       1 RES1   0.0000
    24 O24     35.7939  91.0831  37.1663   O.3       1 RES1   0.0000
    25 C25     36.5546  93.2373  38.0489   C.3       1 RES1   0.0000
    26 O26     35.1760  93.6705  38.1090   O.3       1 RES1   0.0000
@<TRIPOS>BOND
     1     1     2    2
     2     2     3    2
     3     2     4    1
     4     2     5    1
     5     6     5    1
     6     6     7    1
     7     7     8    1
     8     7     9    1
     9    10     9    1
    10    10    11    1
    11    11    12    1
    12    12    13    1
    13    12    14    1
    14    14    15    1
    15    14    16    1
    16    16    17    1
    17    17    18    1
    18     6    19    1
    19    19    20    1
    20    19    21    1
    21    21    22    1
    22    21    23    1
    23    23    24    1
    24    23    25    1
    25    25    26    1
    26    16    10    1
@<TRIPOS>SUBSTRUCTURE
     1 RES1        1 GROUP             0 ****  ****    0  
@<TRIPOS>MOLECULE
ligand_5
    26    26     1     0     0
SMALL
USER_CHARGES
****
Generated from the CSD

@<TRIPOS>ATOM
     1 O1      43.0140  90.6529  35.7709   O.2       1 RES1   0.0000
     2 S2      41.9808  90.6997  36.8360   S.o2      1 RES1   0.0000
     3 O3      42.5677  90.7216  38.1890   O.2       1 RES1   0.0000
     4 O4      41.1436  89.4960  36.6294   O.3       1 RES1  -1.0000
     5 O5      41.0991  92.0653  36.7679   O.3       1 RES1   0.0000
     6 C6      40.3720  92.4193  35.6028   C.3       1 RES1   0.0000
     7 C7      41.0989  93.5932  34.9174   C.3       1 RES1   0.0000
     8 O8      40.3066  94.0288  33.8098   O.3       1 RES1   0.0000
     9 C9      42.5556  93.2917  34.5129   C.3       1 RES1   0.0000
    10 S10     43.4567  94.4880  33.7270   S.3       1 RES1   1.0000
    11 C11     45.0913  93.7700  33.3745   C.3       1 RES1   0.0000
    12 C12     46.0251  94.2710  34.3474   C.3       1 RES1   0.0000
    13 O13     47.0082  95.2464  33.9150   O.3       1 RES1   0.0000
    14 C14     45.3739  94.8443  35.4755   C.3       1 RES1   0.0000
    15 O15     45.1398  93.8768  36.4996   O.3       1 RES1   0.0000
    16 C16     44.0706  95.4711  35.0852   C.3       1 RES1   0.0000
    17 C17     44.2090  96.9723  34.8612   C.3       1 RES1   0.0000
    18 O18     44.5980  97.7199  36.0261   O.3       1 RES1   0.0000
    19 C19     38.9765  92.8518  36.0889   C.3       1 RES1   0.0000
    20 O20     39.1458  93.8922  37.0660   O.3       1 RES1   0.0000
    21 C21     38.0937  91.7453  36.6949   C.3       1 RES1   0.0000
    22 O22     37.8859  90.6810  35.7765   O.3       1 RES1   0.0000
    23 C23     36.7095  92.2578  37.0972   C.3       1 RES1   0.0000
    24 O24     35.9600  92.6572  35.9433   O.3       1 RES1   0.0000
    25 C25     35.9373  91.2023  37.9134   C.3       1 RES1   0.0000
    26 O26     35.7258  90.0686  37.0406   O.3       1 RES1   0.0000
@<TRIPOS>BOND
     1     1     2    2
     2     2     3    2
     3     2     4    1
     4     2     5    1
     5     6     5    1
     6     6     7    1
     7     7     8    1
     8     7     9    1
     9    10     9    1
    10    10    11    1
    11    11    12    1
    12    12    13    1
    13    12    14    1
    14    14    15    1
    15    14    16    1
    16    16    17    1
    17    17    18    1
    18     6    19    1
    19    19    20    1
    20    19    21    1
    21    21    22    1
    22    21    23    1
    23    23    24    1
    24    23    25    1
    25    25    26    1
    26    16    10    1
@<TRIPOS>SUBSTRUCTURE
     1 RES1        1 GROUP             0 ****  ****    0  
@<TRIPOS>MOLECULE
ligand_6
    26    26     1     0     0
SMALL
USER_CHARGES
****
Generated from the CSD

@<TRIPOS>ATOM
     1 O1      39.3833  89.0192  33.2283   O.2       1 RES1   0.0000
     2 S2      40.7258  88.3895  33.3016   S.o2      1 RES1   0.0000
     3 O3      41.2512  88.0276  31.9718   O.2       1 RES1   0.0000
     4 O4      40.5570  87.1947  34.1597   O.3       1 RES1  -1.0000
     5 O5      41.8432  89.4087  33.9015   O.3       1 RES1   0.0000
     6 C6      41.6976  89.9940  35.1850   C.3       1 RES1   0.0000
     7 C7      41.8483  91.5212  35.0399   C.3       1 RES1   0.0000
     8 O8      40.7531  92.0103  34.2618   O.3       1 RES1   0.0000
     9 C9      43.2119  91.9768  34.4835   C.3       1 RES1   0.0000
    10 S10     43.4948  93.6275  34.2463   S.3       1 RES1   1.0000
    11 C11     45.1698  93.7802  33.5513   C.3       1 RES1   0.0000
    12 C12     46.0393  94.2959  34.5748   C.3       1 RES1   0.0000
    13 O13     47.0400  95.2752  34.1947   O.3       1 RES1   0.0000
    14 C14     45.3169  94.8732  35.6565   C.3       1 RES1   0.0000
    15 O15     46.0666  94.8391  36.8716   O.3       1 RES1   0.0000
    16 C16     44.0094  94.1730  35.8667   C.3       1 RES1   0.0000
    17 C17     43.0317  95.0273  36.6651   C.3       1 RES1   0.0000
    18 O18     41.7802  94.3862  36.9649   O.3       1 RES1   0.0000
    19 C19     42.8339  89.4139  36.0470   C.3       1 RES1   0.0000
    20 O20     42.7592  87.9802  35.9796   O.3       1 RES1   0.0000
    21 C21     42.8496  89.8377  37.5273   C.3       1 RES1   0.0000
    22 O22     43.0454  91.2381  37.6677   O.3       1 RES1   0.0000
    23 C23     43.9668  89.1543  38.3181   C.3       1 RES1   0.0000
    24 O24     45.2526  89.5274  37.8081   O.3       1 RES1   0.0000
    25 C25     43.8616  89.4711  39.8232   C.3       1 RES1   0.0000
    26 O26     44.8354  88.6402  40.4964   O.3       1 RES1   0.0000
@<TRIPOS>BOND
     1     1     2    2
     2     2     3    2
     3     2     4    1
     4     2     5    1
     5     6     5    1
     6     6     7    1
     7     7     8    1
     8     7     9    1
     9    10     9    1
    10    10    11    1
    11    11    12    1
    12    12    13    1
    13    12    14    1
    14    14    15    1
    15    14    16    1
    16    16    17    1
    17    17    18    1
    18     6    19    1
    19    19    20    1
    20    19    21    1
    21    21    22    1
    22    21    23    1
    23    23    24    1
    24    23    25    1
    25    25    26    1
    26    16    10    1
@<TRIPOS>SUBSTRUCTURE
     1 RES1        1 GROUP             0 ****  ****    0  
@<TRIPOS>MOLECULE
ligand_7
    26    26     1     0     0
SMALL
USER_CHARGES
****
Generated from the CSD

@<TRIPOS>ATOM
     1 O1      44.6992  89.4371  34.2851   O.2       1 RES1   0.0000
     2 S2      43.9985  88.6729  35.3478   S.o2      1 RES1   0.0000
     3 O3      44.8704  88.3846  36.5020   O.2       1 RES1   0.0000
     4 O4      43.5321  87.4268  34.6981   O.3       1 RES1  -1.0000
     5 O5      42.7637  89.5162  35.9891   O.3       1 RES1   0.0000
     6 C6      41.6976  89.9940  35.1850   C.3       1 RES1   0.0000
     7 C7      41.8483  91.5212  35.0399   C.3       1 RES1   0.0000
     8 O8      40.7108  92.0212  34.3326   O.3       1 RES1   0.0000
     9 C9      43.1783  91.9726  34.4043   C.3       1 RES1   0.0000
    10 S10     43.4585  93.6235  34.1653   S.3       1 RES1   1.0000
    11 C11     45.0883  93.7712  33.3692   C.3       1 RES1   0.0000
    12 C12     46.0234  94.2708  34.3416   C.3       1 RES1   0.0000
    13 O13     47.0061  95.2467  33.9093   O.3       1 RES1   0.0000
    14 C14     45.3737  94.8427  35.4713   C.3       1 RES1   0.0000
    15 O15     46.1970  94.7916  36.6373   O.3       1 RES1   0.0000
    16 C16     44.0765  94.1497  35.7557   C.3       1 RES1   0.0000
    17 C17     43.1566  95.0030  36.6209   C.3       1 RES1   0.0000
    18 O18     41.9212  94.3679  36.9918   O.3       1 RES1   0.0000
    19 C19     40.4044  89.6439  35.9438   C.3       1 RES1   0.0000
    20 O20     40.4962  90.2016  37.2653   O.3       1 RES1   0.0000
    21 C21     40.0697  88.1456  36.0631   C.3       1 RES1   0.0000
    22 O22     40.1493  87.4907  34.8046   O.3       1 RES1   0.0000
    23 C23     38.6568  87.9041  36.5979   C.3       1 RES1   0.0000
    24 O24     38.2641  86.5406  36.3994   O.3       1 RES1   0.0000
    25 C25     38.5470  88.2946  38.0852   C.3       1 RES1   0.0000
    26 O26     37.1627  88.1172  38.4650   O.3       1 RES1   0.0000
@<TRIPOS>BOND
     1     1     2    2
     2     2     3    2
     3     2     4    1
     4     2     5    1
     5     6     5    1
     6     6     7    1
     7     7     8    1
     8     7     9    1
     9    10     9    1
    10    10    11    1
    11    11    12    1
    12    12    13    1
    13    12    14    1
    14    14    15    1
    15    14    16    1
    16    16    17    1
    17    17    18    1
    18     6    19    1
    19    19    20    1
    20    19    21    1
    21    21    22    1
    22    21    23    1
    23    23    24    1
    24    23    25    1
    25    25    26    1
    26    16    10    1
@<TRIPOS>SUBSTRUCTURE
     1 RES1        1 GROUP             0 ****  ****    0  
@<TRIPOS>MOLECULE
ligand_8
    26    26     1     0     0
SMALL
USER_CHARGES
****
Generated from the CSD

@<TRIPOS>ATOM
     1 O1      45.7718  89.4154  37.0207   O.2       1 RES1   0.0000
     2 S2      44.4686  88.7151  36.8970   S.o2      1 RES1   0.0000
     3 O3      43.6619  88.8052  38.1284   O.2       1 RES1   0.0000
     4 O4      44.8030  87.3098  36.5714   O.3       1 RES1  -1.0000
     5 O5      43.5226  89.3884  35.7573   O.3       1 RES1   0.0000
     6 C6      43.9516  89.4987  34.4101   C.3       1 RES1   0.0000
     7 C7      44.3201  90.9708  34.1389   C.3       1 RES1   0.0000
     8 O8      45.4587  91.3046  34.9365   O.3       1 RES1   0.0000
     9 C9      43.1576  91.9645  34.3326   C.3       1 RES1   0.0000
    10 S10     43.4376  93.6159  34.0970   S.3       1 RES1   1.0000
    11 C11     45.0937  93.7691  33.3581   C.3       1 RES1   0.0000
    12 C12     45.9914  94.2773  34.3608   C.3       1 RES1   0.0000
    13 O13     46.9837  95.2567  33.9595   O.3       1 RES1   0.0000
    14 C14     45.2994  94.8501  35.4647   C.3       1 RES1   0.0000
    15 O15     46.0814  94.8077  36.6590   O.3       1 RES1   0.0000
    16 C16     43.9966  94.1514  35.7060   C.3       1 RES1   0.0000
    17 C17     43.0424  95.0032  36.5349   C.3       1 RES1   0.0000
    18 O18     41.7980  94.3630  36.8646   O.3       1 RES1   0.0000
    19 C19     42.7514  89.0695  33.5464   C.3       1 RES1   0.0000
    20 O20     42.3282  87.7676  33.9840   O.3       1 RES1   0.0000
    21 C21     42.9885  89.0255  32.0255   C.3       1 RES1   0.0000
    22 O22     43.2916  90.3131  31.5065   O.3       1 RES1   0.0000
    23 C23     41.7661  88.5170  31.2589   C.3       1 RES1   0.0000
    24 O24     40.6505  89.3978  31.4386   O.3       1 RES1   0.0000
    25 C25     42.0819  88.3318  29.7613   C.3       1 RES1   0.0000
    26 O26     40.9352  87.6803  29.1677   O.3       1 RES1   0.0000
@<TRIPOS>BOND
     1     1     2    2
     2     2     3    2
     3     2     4    1
     4     2     5    1
     5     6     5    1
     6     6     7    1
     7     7     8    1
     8     7     9    1
     9    10     9    1
    10    10    11    1
    11    11    12    1
    12    12    13    1
    13    12    14    1
    14    14    15    1
    15    14    16    1
    16    16    17    1
    17    17    18    1
    18     6    19    1
    19    19    20    1
    20    19    21    1
    21    21    22    1
    22    21    23    1
    23    23    24    1
    24    23    25    1
    25    25    26    1
    26    16    10    1
@<TRIPOS>SUBSTRUCTURE
     1 RES1        1 GROUP             0 ****  ****    0  
@<TRIPOS>MOLECULE
ligand_9
    26    26     1     0     0
SMALL
USER_CHARGES
****
Generated from the CSD

@<TRIPOS>ATOM
     1 O1      44.3952  88.6172  34.2041   O.2       1 RES1   0.0000
     2 S2      43.7245  88.3015  35.4905   S.o2      1 RES1   0.0000
     3 O3      44.6833  88.1283  36.5977   O.2       1 RES1   0.0000
     4 O4      42.9553  87.0609  35.2424   O.3       1 RES1  -1.0000
     5 O5      42.7637  89.5162  35.9891   O.3       1 RES1   0.0000
     6 C6      41.6976  89.9940  35.1850   C.3       1 RES1   0.0000
     7 C7      41.8483  91.5212  35.0399   C.3       1 RES1   0.0000
     8 O8      40.7120  92.0208  34.3304   O.3       1 RES1   0.0000
     9 C9      43.1793  91.9727  34.4067   C.3       1 RES1   0.0000
    10 S10     43.4607  93.6237  34.1699   S.3       1 RES1   1.0000
    11 C11     45.0917  93.7716  33.3763   C.3       1 RES1   0.0000
    12 C12     46.0256  94.2697  34.3505   C.3       1 RES1   0.0000
    13 O13     47.0093  95.2457  33.9207   O.3       1 RES1   0.0000
    14 C14     45.3747  94.8406  35.4799   C.3       1 RES1   0.0000
    15 O15     46.1963  94.7878  36.6470   O.3       1 RES1   0.0000
    16 C16     44.0767  94.1478  35.7617   C.3       1 RES1   0.0000
    17 C17     43.1560  95.0006  36.6267   C.3       1 RES1   0.0000
    18 O18     43.6661  95.2940  37.9385   O.3       1 RES1   0.0000
    19 C19     40.4044  89.6439  35.9438   C.3       1 RES1   0.0000
    20 O20     40.4963  90.2013  37.2654   O.3       1 RES1   0.0000
    21 C21     40.0695  88.1456  36.0629   C.3       1 RES1   0.0000
    22 O22     39.9638  87.5308  34.7862   O.3       1 RES1   0.0000
    23 C23     38.7421  87.8997  36.7826   C.3       1 RES1   0.0000
    24 O24     37.6448  88.4050  36.0124   O.3       1 RES1   0.0000
    25 C25     38.5459  86.4038  37.0993   C.3       1 RES1   0.0000
    26 O26     38.4590  85.7138  35.8312   O.3       1 RES1   0.0000
@<TRIPOS>BOND
     1     1     2    2
     2     2     3    2
     3     2     4    1
     4     2     5    1
     5     6     5    1
     6     6     7    1
     7     7     8    1
     8     7     9    1
     9    10     9    1
    10    10    11    1
    11    11    12    1
    12    12    13    1
    13    12    14    1
    14    14    15    1
    15    14    16    1
    16    16    17    1
    17    17    18    1
    18     6    19    1
    19    19    20    1
    20    19    21    1
    21    21    22    1
    22    21    23    1
    23    23    24    1
    24    23    25    1
    25    25    26    1
    26    16    10    1
@<TRIPOS>SUBSTRUCTURE
     1 RES1        1 GROUP             0 ****  ****    0  
@<TRIPOS>MOLECULE
ligand_10
    26    26     1     0     0
SMALL
USER_CHARGES
****
Generated from the CSD

@<TRIPOS>ATOM
     1 O1      40.8829  90.1771  34.9124   O.2       1 RES1   0.0000
     2 S2      41.3566  88.9596  34.2072   S.o2      1 RES1   0.0000
     3 O3      40.5249  88.6285  33.0350   O.2       1 RES1   0.0000
     4 O4      41.3222  87.8776  35.2174   O.3       1 RES1  -1.0000
     5 O5      42.8479  89.1576  33.5875   O.3       1 RES1   0.0000
     6 C6      43.9516  89.4987  34.4101   C.3       1 RES1   0.0000
     7 C7      44.3201  90.9708  34.1389   C.3       1 RES1   0.0000
     8 O8      45.5055  91.2816  34.8753   O.3       1 RES1   0.0000
     9 C9      43.1812  91.9732  34.4118   C.3       1 RES1   0.0000
    10 S10     43.4634  93.6244  34.1776   S.3       1 RES1   1.0000
    11 C11     45.0751  93.7704  33.3451   C.3       1 RES1   0.0000
    12 C12     46.0347  94.2591  34.2990   C.3       1 RES1   0.0000
    13 O13     47.0116  95.2336  33.8508   O.3       1 RES1   0.0000
    14 C14     45.4139  94.8260  35.4473   C.3       1 RES1   0.0000
    15 O15     46.2636  94.7632  36.5935   O.3       1 RES1   0.0000
    16 C16     44.1204  94.1368  35.7568   C.3       1 RES1   0.0000
    17 C17     43.2247  94.9882  36.6489   C.3       1 RES1   0.0000
    18 O18     41.9953  94.3560  37.0439   O.3       1 RES1   0.0000
    19 C19     45.0997  88.5633  33.9885   C.3       1 RES1   0.0000
    20 O20     45.3008  88.7116  32.5732   O.3       1 RES1   0.0000
    21 C21     44.9109  87.0683  34.3057   C.3       1 RES1   0.0000
    22 O22     44.5203  86.8662  35.6569   O.3       1 RES1   0.0000
    23 C23     46.1917  86.2598  34.0906   C.3       1 RES1   0.0000
    24 O24     46.0799  84.9618  34.6865   O.3       1 RES1   0.0000
    25 C25     46.5373  86.1467  32.5925   C.3       1 RES1   0.0000
    26 O26     47.8018  85.4501  32.5045   O.3       1 RES1   0.0000
@<TRIPOS>BOND
     1     1     2    2
     2     2     3    2
     3     2     4    1
     4     2     5    1
     5     6     5    1
     6     6     7    1
     7     7     8    1
     8     7     9    1
     9    10     9    1
    10    10    11    1
    11    11    12    1
    12    12    13    1
    13    12    14    1
    14    14    15    1
    15    14    16    1
    16    16    17    1
    17    17    18    1
    18     6    19    1
    19    19    20    1
    20    19    21    1
    21    21    22    1
    22    21    23    1
    23    23    24    1
    24    23    25    1
    25    25    26    1
    26    16    10    1
@<TRIPOS>SUBSTRUCTURE
     1 RES1        1 GROUP             0 ****  ****    0  
@<TRIPOS>MOLECULE
ligand_11
    26    26     1     0     0
SMALL
USER_CHARGES
****
Generated from the CSD

@<TRIPOS>ATOM
     1 O1      40.8832  90.1771  34.9128   O.2       1 RES1   0.0000
     2 S2      41.3566  88.9597  34.2071   S.o2      1 RES1   0.0000
     3 O3      40.5247  88.6291  33.0349   O.2       1 RES1   0.0000
     4 O4      41.3220  87.8774  35.2170   O.3       1 RES1  -1.0000
     5 O5      42.8479  89.1576  33.5875   O.3       1 RES1   0.0000
     6 C6      43.9516  89.4987  34.4101   C.3       1 RES1   0.0000
     7 C7      44.3201  90.9708  34.1389   C.3       1 RES1   0.0000
     8 O8      45.5047  91.2821  34.8765   O.3       1 RES1   0.0000
     9 C9      43.1807  91.9731  34.4103   C.3       1 RES1   0.0000
    10 S10     43.4628  93.6242  34.1759   S.3       1 RES1   1.0000
    11 C11     45.0756  93.7703  33.3455   C.3       1 RES1   0.0000
    12 C12     46.0337  94.2596  34.3004   C.3       1 RES1   0.0000
    13 O13     47.0110  95.2342  33.8531   O.3       1 RES1   0.0000
    14 C14     45.4113  94.8268  35.4477   C.3       1 RES1   0.0000
    15 O15     46.2595  94.7646  36.5951   O.3       1 RES1   0.0000
    16 C16     44.1176  94.1374  35.7557   C.3       1 RES1   0.0000
    17 C17     43.2205  94.9890  36.6463   C.3       1 RES1   0.0000
    18 O18     43.7618  95.2733  37.9476   O.3       1 RES1   0.0000
    19 C19     45.0997  88.5633  33.9885   C.3       1 RES1   0.0000
    20 O20     45.3001  88.7109  32.5730   O.3       1 RES1   0.0000
    21 C21     44.9113  87.0685  34.3065   C.3       1 RES1   0.0000
    22 O22     44.7075  86.8516  35.6960   O.3       1 RES1   0.0000
    23 C23     46.1241  86.2284  33.9018   C.3       1 RES1   0.0000
    24 O24     47.2687  86.5743  34.6910   O.3       1 RES1   0.0000
    25 C25     45.8211  84.7205  34.0081   C.3       1 RES1   0.0000
    26 O26     45.5762  84.4388  35.4054   O.3       1 RES1   0.0000
@<TRIPOS>BOND
     1     1     2    2
     2     2     3    2
     3     2     4    1
     4     2     5    1
     5     6     5    1
     6     6     7    1
     7     7     8    1
     8     7     9    1
     9    10     9    1
    10    10    11    1
    11    11    12    1
    12    12    13    1
    13    12    14    1
    14    14    15    1
    15    14    16    1
    16    16    17    1
    17    17    18    1
    18     6    19    1
    19    19    20    1
    20    19    21    1
    21    21    22    1
    22    21    23    1
    23    23    24    1
    24    23    25    1
    25    25    26    1
    26    16    10    1
@<TRIPOS>SUBSTRUCTURE
     1 RES1        1 GROUP             0 ****  ****    0  
@<TRIPOS>MOLECULE
ligand_12
    26    26     1     0     0
SMALL
USER_CHARGES
****
Generated from the CSD

@<TRIPOS>ATOM
     1 O1      38.5544  91.9087  33.0394   O.2       1 RES1   0.0000
     2 S2      39.0875  90.8271  33.9055   S.o2      1 RES1   0.0000
     3 O3      39.5524  89.6621  33.1295   O.2       1 RES1   0.0000
     4 O4      37.9766  90.4629  34.8141   O.3       1 RES1  -1.0000
     5 O5      40.4076  91.3029  34.7290   O.3       1 RES1   0.0000
     6 C6      40.3720  92.4193  35.6028   C.3       1 RES1   0.0000
     7 C7      41.0989  93.5932  34.9174   C.3       1 RES1   0.0000
     8 O8      40.3477  93.9758  33.7626   O.3       1 RES1   0.0000
     9 C9      42.5802  93.3208  34.5888   C.3       1 RES1   0.0000
    10 S10     43.4786  94.5097  33.7886   S.3       1 RES1   1.0000
    11 C11     45.1478  93.8292  33.5382   C.3       1 RES1   0.0000
    12 C12     46.0228  94.4017  34.5261   C.3       1 RES1   0.0000
    13 O13     46.9942  95.3881  34.0922   O.3       1 RES1   0.0000
    14 C14     45.3062  95.0028  35.5987   C.3       1 RES1   0.0000
    15 O15     45.0566  94.0740  36.6546   O.3       1 RES1   0.0000
    16 C16     44.0030  95.5701  35.1258   C.3       1 RES1   0.0000
    17 C17     44.1061  97.0638  34.8406   C.3       1 RES1   0.0000
    18 O18     42.8707  97.6874  34.4507   O.3       1 RES1   0.0000
    19 C19     41.1199  91.9847  36.8767   C.3       1 RES1   0.0000
    20 O20     40.5504  90.7449  37.3287   O.3       1 RES1   0.0000
    21 C21     41.1114  92.9865  38.0461   C.3       1 RES1   0.0000
    22 O22     41.6256  94.2518  37.6538   O.3       1 RES1   0.0000
    23 C23     41.9602  92.5119  39.2271   C.3       1 RES1   0.0000
    24 O24     42.2534  93.5997  40.1122   O.3       1 RES1   0.0000
    25 C25     41.2707  91.3600  39.9848   C.3       1 RES1   0.0000
    26 O26     42.1907  90.9224  41.0115   O.3       1 RES1   0.0000
@<TRIPOS>BOND
     1     1     2    2
     2     2     3    2
     3     2     4    1
     4     2     5    1
     5     6     5    1
     6     6     7    1
     7     7     8    1
     8     7     9    1
     9    10     9    1
    10    10    11    1
    11    11    12    1
    12    12    13    1
    13    12    14    1
    14    14    15    1
    15    14    16    1
    16    16    17    1
    17    17    18    1
    18     6    19    1
    19    19    20    1
    20    19    21    1
    21    21    22    1
    22    21    23    1
    23    23    24    1
    24    23    25    1
    25    25    26    1
    26    16    10    1
@<TRIPOS>SUBSTRUCTURE
     1 RES1        1 GROUP             0 ****  ****    0  
@<TRIPOS>MOLECULE
ligand_13
    26    26     1     0     0
SMALL
USER_CHARGES
****
Generated from the CSD

@<TRIPOS>ATOM
     1 O1      38.5558  91.9097  33.0382   O.2       1 RES1   0.0000
     2 S2      39.0878  90.8278  33.9046   S.o2      1 RES1   0.0000
     3 O3      39.5526  89.6626  33.1290   O.2       1 RES1   0.0000
     4 O4      37.9761  90.4642  34.8126   O.3       1 RES1  -1.0000
     5 O5      40.4076  91.3029  34.7290   O.3       1 RES1   0.0000
     6 C6      40.3720  92.4193  35.6028   C.3       1 RES1   0.0000
     7 C7      41.0989  93.5932  34.9174   C.3       1 RES1   0.0000
     8 O8      40.3451  93.9790  33.7654   O.3       1 RES1   0.0000
     9 C9      42.5788  93.3189  34.5842   C.3       1 RES1   0.0000
    10 S10     43.4804  94.5127  33.7949   S.3       1 RES1   1.0000
    11 C11     45.1468  93.8290  33.5355   C.3       1 RES1   0.0000
    12 C12     46.0252  94.3883  34.5280   C.3       1 RES1   0.0000
    13 O13     46.9995  95.3756  34.1029   O.3       1 RES1   0.0000
    14 C14     45.3120  94.9809  35.6076   C.3       1 RES1   0.0000
    15 O15     45.0605  94.0424  36.6543   O.3       1 RES1   0.0000
    16 C16     44.0102  95.5577  35.1422   C.3       1 RES1   0.0000
    17 C17     44.1183  97.0538  34.8720   C.3       1 RES1   0.0000
    18 O18     44.4385  97.8507  36.0251   O.3       1 RES1   0.0000
    19 C19     41.1199  91.9847  36.8767   C.3       1 RES1   0.0000
    20 O20     40.5184  90.7706  37.3562   O.3       1 RES1   0.0000
    21 C21     41.1536  93.0065  38.0281   C.3       1 RES1   0.0000
    22 O22     41.8491  94.1888  37.6573   O.3       1 RES1   0.0000
    23 C23     41.8495  92.4576  39.2752   C.3       1 RES1   0.0000
    24 O24     43.2409  92.2290  39.0220   O.3       1 RES1   0.0000
    25 C25     41.6598  93.3984  40.4817   C.3       1 RES1   0.0000
    26 O26     42.3111  94.6459  40.1482   O.3       1 RES1   0.0000
@<TRIPOS>BOND
     1     1     2    2
     2     2     3    2
     3     2     4    1
     4     2     5    1
     5     6     5    1
     6     6     7    1
     7     7     8    1
     8     7     9    1
     9    10     9    1
    10    10    11    1
    11    11    12    1
    12    12    13    1
    13    12    14    1
    14    14    15    1
    15    14    16    1
    16    16    17    1
    17    17    18    1
    18     6    19    1
    19    19    20    1
    20    19    21    1
    21    21    22    1
    22    21    23    1
    23    23    24    1
    24    23    25    1
    25    25    26    1
    26    16    10    1
@<TRIPOS>SUBSTRUCTURE
     1 RES1        1 GROUP             0 ****  ****    0  
@<TRIPOS>MOLECULE
ligand_14
    26    26     1     0     0
SMALL
USER_CHARGES
****
Generated from the CSD

@<TRIPOS>ATOM
     1 O1      42.0147  92.3901  37.2800   O.2       1 RES1   0.0000
     2 S2      40.6195  91.9092  37.1184   S.o2      1 RES1   0.0000
     3 O3      39.6528  92.7183  37.8841   O.2       1 RES1   0.0000
     4 O4      40.6297  90.5015  37.5776   O.3       1 RES1  -1.0000
     5 O5      40.1069  92.0369  35.5796   O.3       1 RES1   0.0000
     6 C6      40.7908  91.3942  34.5162   C.3       1 RES1   0.0000
     7 C7      41.5363  92.4694  33.7011   C.3       1 RES1   0.0000
     8 O8      42.1278  91.8410  32.5611   O.3       1 RES1   0.0000
     9 C9      42.5576  93.2904  34.5131   C.3       1 RES1   0.0000
    10 S10     43.4630  94.4853  33.7301   S.3       1 RES1   1.0000
    11 C11     45.0960  93.7633  33.3785   C.3       1 RES1   0.0000
    12 C12     46.0300  94.2602  34.3533   C.3       1 RES1   0.0000
    13 O13     47.0163  95.2336  33.9236   O.3       1 RES1   0.0000
    14 C14     45.3791  94.8337  35.4814   C.3       1 RES1   0.0000
    15 O15     45.1410  93.8653  36.5038   O.3       1 RES1   0.0000
    16 C16     44.0780  95.4647  35.0905   C.3       1 RES1   0.0000
    17 C17     44.2208  96.9658  34.8689   C.3       1 RES1   0.0000
    18 O18     42.9927  97.6469  34.5605   O.3       1 RES1   0.0000
    19 C19     39.7040  90.7179  33.6605   C.3       1 RES1   0.0000
    20 O20     38.7474  91.7203  33.2785   O.3       1 RES1   0.0000
    21 C21     38.9533  89.5445  34.3167   C.3       1 RES1   0.0000
    22 O22     39.8447  88.5139  34.7197   O.3       1 RES1   0.0000
    23 C23     37.9344  88.9028  33.3729   C.3       1 RES1   0.0000
    24 O24     38.5863  88.3376  32.2291   O.3       1 RES1   0.0000
    25 C25     37.0882  87.8401  34.1017   C.3       1 RES1   0.0000
    26 O26     36.0458  87.4325  33.1856   O.3       1 RES1   0.0000
@<TRIPOS>BOND
     1     1     2    2
     2     2     3    2
     3     2     4    1
     4     2     5    1
     5     6     5    1
     6     6     7    1
     7     7     8    1
     8     7     9    1
     9    10     9    1
    10    10    11    1
    11    11    12    1
    12    12    13    1
    13    12    14    1
    14    14    15    1
    15    14    16    1
    16    16    17    1
    17    17    18    1
    18     6    19    1
    19    19    20    1
    20    19    21    1
    21    21    22    1
    22    21    23    1
    23    23    24    1
    24    23    25    1
    25    25    26    1
    26    16    10    1
@<TRIPOS>SUBSTRUCTURE
     1 RES1        1 GROUP             0 ****  ****    0  
@<TRIPOS>MOLECULE
ligand_15
    26    26     1     0     0
SMALL
USER_CHARGES
****
Generated from the CSD

@<TRIPOS>ATOM
     1 O1      40.9480  88.3063  31.7476   O.2       1 RES1   0.0000
     2 S2      40.5622  88.8300  33.0822   S.o2      1 RES1   0.0000
     3 O3      40.0202  87.7794  33.9641   O.2       1 RES1   0.0000
     4 O4      39.5579  89.8857  32.8186   O.3       1 RES1  -1.0000
     5 O5      41.8432  89.4087  33.9015   O.3       1 RES1   0.0000
     6 C6      41.6976  89.9940  35.1850   C.3       1 RES1   0.0000
     7 C7      41.8483  91.5212  35.0399   C.3       1 RES1   0.0000
     8 O8      40.7516  92.0106  34.2641   O.3       1 RES1   0.0000
     9 C9      43.2108  91.9767  34.4808   C.3       1 RES1   0.0000
    10 S10     43.4859  93.6256  34.2231   S.3       1 RES1   1.0000
    11 C11     45.1616  93.7781  33.5300   C.3       1 RES1   0.0000
    12 C12     46.0261  94.3112  34.5487   C.3       1 RES1   0.0000
    13 O13     47.0227  95.2907  34.1584   O.3       1 RES1   0.0000
    14 C14     45.2983  94.8985  35.6214   C.3       1 RES1   0.0000
    15 O15     46.0454  94.8838  36.8385   O.3       1 RES1   0.0000
    16 C16     43.9939  94.1944  35.8376   C.3       1 RES1   0.0000
    17 C17     43.0100  95.0538  36.6227   C.3       1 RES1   0.0000
    18 O18     41.7611  94.4102  36.9279   O.3       1 RES1   0.0000
    19 C19     42.8339  89.4139  36.0470   C.3       1 RES1   0.0000
    20 O20     42.7903  87.9813  35.9393   O.3       1 RES1   0.0000
    21 C21     42.8204  89.7968  37.5384   C.3       1 RES1   0.0000
    22 O22     42.8242  91.2067  37.7158   O.3       1 RES1   0.0000
    23 C23     44.0364  89.2538  38.2914   C.3       1 RES1   0.0000
    24 O24     44.2063  89.9341  39.5408   O.3       1 RES1   0.0000
    25 C25     43.9269  87.7313  38.5073   C.3       1 RES1   0.0000
    26 O26     45.1613  87.3055  39.1292   O.3       1 RES1   0.0000
@<TRIPOS>BOND
     1     1     2    2
     2     2     3    2
     3     2     4    1
     4     2     5    1
     5     6     5    1
     6     6     7    1
     7     7     8    1
     8     7     9    1
     9    10     9    1
    10    10    11    1
    11    11    12    1
    12    12    13    1
    13    12    14    1
    14    14    15    1
    15    14    16    1
    16    16    17    1
    17    17    18    1
    18     6    19    1
    19    19    20    1
    20    19    21    1
    21    21    22    1
    22    21    23    1
    23    23    24    1
    24    23    25    1
    25    25    26    1
    26    16    10    1
@<TRIPOS>SUBSTRUCTURE
     1 RES1        1 GROUP             0 ****  ****    0  
@<TRIPOS>MOLECULE
ligand_16
    26    26     1     0     0
SMALL
USER_CHARGES
****
Generated from the CSD

@<TRIPOS>ATOM
     1 O1      43.0146  90.6535  35.7713   O.2       1 RES1   0.0000
     2 S2      41.9809  90.6997  36.8360   S.o2      1 RES1   0.0000
     3 O3      42.5672  90.7213  38.1892   O.2       1 RES1   0.0000
     4 O4      41.1440  89.4960  36.6286   O.3       1 RES1  -1.0000
     5 O5      41.0991  92.0653  36.7679   O.3       1 RES1   0.0000
     6 C6      40.3720  92.4193  35.6028   C.3       1 RES1   0.0000
     7 C7      41.0989  93.5932  34.9174   C.3       1 RES1   0.0000
     8 O8      40.3057  94.0300  33.8109   O.3       1 RES1   0.0000
     9 C9      42.5550  93.2911  34.5112   C.3       1 RES1   0.0000
    10 S10     43.4566  94.4880  33.7267   S.3       1 RES1   1.0000
    11 C11     45.0903  93.7691  33.3717   C.3       1 RES1   0.0000
    12 C12     46.0253  94.2675  34.3447   C.3       1 RES1   0.0000
    13 O13     47.0089  95.2428  33.9133   O.3       1 RES1   0.0000
    14 C14     45.3755  94.8394  35.4743   C.3       1 RES1   0.0000
    15 O15     45.1413  93.8703  36.4969   O.3       1 RES1   0.0000
    16 C16     44.0725  95.4681  35.0862   C.3       1 RES1   0.0000
    17 C17     44.2120  96.9696  34.8648   C.3       1 RES1   0.0000
    18 O18     44.6039  97.7146  36.0303   O.3       1 RES1   0.0000
    19 C19     38.9765  92.8518  36.0889   C.3       1 RES1   0.0000
    20 O20     39.1458  93.8920  37.0662   O.3       1 RES1   0.0000
    21 C21     38.0936  91.7452  36.6947   C.3       1 RES1   0.0000
    22 O22     38.0335  90.6039  35.8502   O.3       1 RES1   0.0000
    23 C23     36.6519  92.2057  36.9178   C.3       1 RES1   0.0000
    24 O24     35.8000  91.0898  37.2035   O.3       1 RES1   0.0000
    25 C25     36.5683  93.2597  38.0397   C.3       1 RES1   0.0000
    26 O26     37.1494  92.6622  39.2217   O.3       1 RES1   0.0000
@<TRIPOS>BOND
     1     1     2    2
     2     2     3    2
     3     2     4    1
     4     2     5    1
     5     6     5    1
     6     6     7    1
     7     7     8    1
     8     7     9    1
     9    10     9    1
    10    10    11    1
    11    11    12    1
    12    12    13    1
    13    12    14    1
    14    14    15    1
    15    14    16    1
    16    16    17    1
    17    17    18    1
    18     6    19    1
    19    19    20    1
    20    19    21    1
    21    21    22    1
    22    21    23    1
    23    23    24    1
    24    23    25    1
    25    25    26    1
    26    16    10    1
@<TRIPOS>SUBSTRUCTURE
     1 RES1        1 GROUP             0 ****  ****    0  
@<TRIPOS>MOLECULE
ligand_17
    26    26     1     0     0
SMALL
USER_CHARGES
****
Generated from the CSD

@<TRIPOS>ATOM
     1 O1      43.6578  89.0614  36.4262   O.2       1 RES1   0.0000
     2 S2      42.2600  88.6455  36.1484   S.o2      1 RES1   0.0000
     3 O3      41.3837  88.7950  37.3253   O.2       1 RES1   0.0000
     4 O4      42.3457  87.2324  35.7143   O.3       1 RES1  -1.0000
     5 O5      41.5608  89.5818  35.0164   O.3       1 RES1   0.0000
     6 C6      42.1162  89.7124  33.7180   C.3       1 RES1   0.0000
     7 C7      42.2811  91.2141  33.4114   C.3       1 RES1   0.0000
     8 O8      42.7302  91.3516  32.0610   O.3       1 RES1   0.0000
     9 C9      43.1799  91.9728  34.4078   C.3       1 RES1   0.0000
    10 S10     43.4613  93.6238  34.1712   S.3       1 RES1   1.0000
    11 C11     45.0930  93.7718  33.3789   C.3       1 RES1   0.0000
    12 C12     46.0260  94.2700  34.3540   C.3       1 RES1   0.0000
    13 O13     47.0100  95.2460  33.9249   O.3       1 RES1   0.0000
    14 C14     45.3740  94.8409  35.4828   C.3       1 RES1   0.0000
    15 O15     46.1946  94.7883  36.6505   O.3       1 RES1   0.0000
    16 C16     44.0759  94.1481  35.7635   C.3       1 RES1   0.0000
    17 C17     43.1544  95.0009  36.6275   C.3       1 RES1   0.0000
    18 O18     41.9179  94.3658  36.9949   O.3       1 RES1   0.0000
    19 C19     41.1012  89.0682  32.7559   C.3       1 RES1   0.0000
    20 O20     39.8266  89.6994  32.9621   O.3       1 RES1   0.0000
    21 C21     40.9218  87.5436  32.8768   C.3       1 RES1   0.0000
    22 O22     42.1500  86.8559  32.6826   O.3       1 RES1   0.0000
    23 C23     39.9371  86.9884  31.8459   C.3       1 RES1   0.0000
    24 O24     40.4194  87.2042  30.5142   O.3       1 RES1   0.0000
    25 C25     39.6550  85.4926  32.0905   C.3       1 RES1   0.0000
    26 O26     38.5861  85.1145  31.1924   O.3       1 RES1   0.0000
@<TRIPOS>BOND
     1     1     2    2
     2     2     3    2
     3     2     4    1
     4     2     5    1
     5     6     5    1
     6     6     7    1
     7     7     8    1
     8     7     9    1
     9    10     9    1
    10    10    11    1
    11    11    12    1
    12    12    13    1
    13    12    14    1
    14    14    15    1
    15    14    16    1
    16    16    17    1
    17    17    18    1
    18     6    19    1
    19    19    20    1
    20    19    21    1
    21    21    22    1
    22    21    23    1
    23    23    24    1
    24    23    25    1
    25    25    26    1
    26    16    10    1
@<TRIPOS>SUBSTRUCTURE
     1 RES1        1 GROUP             0 ****  ****    0  
@<TRIPOS>MOLECULE
ligand_18
    26    26     1     0     0
SMALL
USER_CHARGES
****
Generated from the CSD

@<TRIPOS>ATOM
     1 O1      42.5655  89.8757  37.5891   O.2       1 RES1   0.0000
     2 S2      41.5838  90.2464  36.5388   S.o2      1 RES1   0.0000
     3 O3      40.2692  89.6111  36.7475   O.2       1 RES1   0.0000
     4 O4      42.1931  89.8200  35.2584   O.3       1 RES1  -1.0000
     5 O5      41.2561  91.8400  36.5485   O.3       1 RES1   0.0000
     6 C6      40.3720  92.4193  35.6028   C.3       1 RES1   0.0000
     7 C7      41.0989  93.5932  34.9174   C.3       1 RES1   0.0000
     8 O8      40.3060  94.0296  33.8105   O.3       1 RES1   0.0000
     9 C9      42.5552  93.2913  34.5118   C.3       1 RES1   0.0000
    10 S10     43.4576  94.4890  33.7295   S.3       1 RES1   1.0000
    11 C11     45.0914  93.7702  33.3747   C.3       1 RES1   0.0000
    12 C12     46.0258  94.2672  34.3490   C.3       1 RES1   0.0000
    13 O13     47.0100  95.2428  33.9195   O.3       1 RES1   0.0000
    14 C14     45.3754  94.8377  35.4789   C.3       1 RES1   0.0000
    15 O15     45.1403  93.8673  36.5001   O.3       1 RES1   0.0000
    16 C16     44.0728  95.4672  35.0907   C.3       1 RES1   0.0000
    17 C17     44.2128  96.9690  34.8714   C.3       1 RES1   0.0000
    18 O18     42.9832  97.6485  34.5656   O.3       1 RES1   0.0000
    19 C19     39.1609  92.9242  36.4084   C.3       1 RES1   0.0000
    20 O20     39.6439  93.8010  37.4398   O.3       1 RES1   0.0000
    21 C21     38.2751  91.8433  37.0550   C.3       1 RES1   0.0000
    22 O22     37.7649  90.9376  36.0862   O.3       1 RES1   0.0000
    23 C23     37.0678  92.4371  37.7833   C.3       1 RES1   0.0000
    24 O24     36.1713  93.0615  36.8564   O.3       1 RES1   0.0000
    25 C25     36.3354  91.3671  38.6172   C.3       1 RES1   0.0000
    26 O26     35.8164  90.3906  37.6850   O.3       1 RES1   0.0000
@<TRIPOS>BOND
     1     1     2    2
     2     2     3    2
     3     2     4    1
     4     2     5    1
     5     6     5    1
     6     6     7    1
     7     7     8    1
     8     7     9    1
     9    10     9    1
    10    10    11    1
    11    11    12    1
    12    12    13    1
    13    12    14    1
    14    14    15    1
    15    14    16    1
    16    16    17    1
    17    17    18    1
    18     6    19    1
    19    19    20    1
    20    19    21    1
    21    21    22    1
    22    21    23    1
    23    23    24    1
    24    23    25    1
    25    25    26    1
    26    16    10    1
@<TRIPOS>SUBSTRUCTURE
     1 RES1        1 GROUP             0 ****  ****    0  
@<TRIPOS>MOLECULE
ligand_19
    26    26     1     0     0
SMALL
USER_CHARGES
****
Generated from the CSD

@<TRIPOS>ATOM
     1 O1      45.7719  89.4147  37.0207   O.2       1 RES1   0.0000
     2 S2      44.4685  88.7147  36.8969   S.o2      1 RES1   0.0000
     3 O3      43.6618  88.8050  38.1284   O.2       1 RES1   0.0000
     4 O4      44.8025  87.3094  36.5713   O.3       1 RES1  -1.0000
     5 O5      43.5226  89.3884  35.7573   O.3       1 RES1   0.0000
     6 C6      43.9516  89.4987  34.4101   C.3       1 RES1   0.0000
     7 C7      44.3201  90.9708  34.1389   C.3       1 RES1   0.0000
     8 O8      45.4571  91.3054  34.9386   O.3       1 RES1   0.0000
     9 C9      43.1568  91.9642  34.3298   C.3       1 RES1   0.0000
    10 S10     43.4389  93.6164  34.1026   S.3       1 RES1   1.0000
    11 C11     45.0960  93.7715  33.3665   C.3       1 RES1   0.0000
    12 C12     45.9931  94.2738  34.3726   C.3       1 RES1   0.0000
    13 O13     46.9868  95.2541  33.9772   O.3       1 RES1   0.0000
    14 C14     45.3005  94.8418  35.4785   C.3       1 RES1   0.0000
    15 O15     46.0810  94.7928  36.6735   O.3       1 RES1   0.0000
    16 C16     43.9966  94.1434  35.7149   C.3       1 RES1   0.0000
    17 C17     43.0425  94.9921  36.5469   C.3       1 RES1   0.0000
    18 O18     41.7970  94.3516  36.8721   O.3       1 RES1   0.0000
    19 C19     42.7514  89.0695  33.5464   C.3       1 RES1   0.0000
    20 O20     42.2989  87.7882  34.0145   O.3       1 RES1   0.0000
    21 C21     43.0018  88.9800  32.0297   C.3       1 RES1   0.0000
    22 O22     43.4934  90.2069  31.5079   O.3       1 RES1   0.0000
    23 C23     41.7305  88.6453  31.2471   C.3       1 RES1   0.0000
    24 O24     41.8950  88.9477  29.8564   O.3       1 RES1   0.0000
    25 C25     41.3246  87.1710  31.4428   C.3       1 RES1   0.0000
    26 O26     40.0707  86.9846  30.7464   O.3       1 RES1   0.0000
@<TRIPOS>BOND
     1     1     2    2
     2     2     3    2
     3     2     4    1
     4     2     5    1
     5     6     5    1
     6     6     7    1
     7     7     8    1
     8     7     9    1
     9    10     9    1
    10    10    11    1
    11    11    12    1
    12    12    13    1
    13    12    14    1
    14    14    15    1
    15    14    16    1
    16    16    17    1
    17    17    18    1
    18     6    19    1
    19    19    20    1
    20    19    21    1
    21    21    22    1
    22    21    23    1
    23    23    24    1
    24    23    25    1
    25    25    26    1
    26    16    10    1
@<TRIPOS>SUBSTRUCTURE
     1 RES1        1 GROUP             0 ****  ****    0  
@<TRIPOS>MOLECULE
ligand_20
    26    26     1     0     0
SMALL
USER_CHARGES
****
Generated from the CSD

@<TRIPOS>ATOM
     1 O1      45.7718  89.4173  37.0208   O.2       1 RES1   0.0000
     2 S2      44.4690  88.7161  36.8972   S.o2      1 RES1   0.0000
     3 O3      43.6622  88.8059  38.1286   O.2       1 RES1   0.0000
     4 O4      44.8045  87.3110  36.5721   O.3       1 RES1  -1.0000
     5 O5      43.5226  89.3884  35.7573   O.3       1 RES1   0.0000
     6 C6      43.9516  89.4987  34.4101   C.3       1 RES1   0.0000
     7 C7      44.3201  90.9708  34.1389   C.3       1 RES1   0.0000
     8 O8      45.4594  91.3043  34.9358   O.3       1 RES1   0.0000
     9 C9      43.1578  91.9646  34.3336   C.3       1 RES1   0.0000
    10 S10     43.4382  93.6161  34.0988   S.3       1 RES1   1.0000
    11 C11     45.0932  93.7693  33.3577   C.3       1 RES1   0.0000
    12 C12     45.9925  94.2764  34.3594   C.3       1 RES1   0.0000
    13 O13     46.9845  95.2558  33.9574   O.3       1 RES1   0.0000
    14 C14     45.3024  94.8486  35.4647   C.3       1 RES1   0.0000
    15 O15     46.0860  94.8050  36.6579   O.3       1 RES1   0.0000
    16 C16     43.9996  94.1502  35.7074   C.3       1 RES1   0.0000
    17 C17     43.0470  95.0017  36.5384   C.3       1 RES1   0.0000
    18 O18     43.5128  95.3033  37.8648   O.3       1 RES1   0.0000
    19 C19     42.7514  89.0695  33.5464   C.3       1 RES1   0.0000
    20 O20     42.3272  87.7683  33.9851   O.3       1 RES1   0.0000
    21 C21     42.9889  89.0239  32.0257   C.3       1 RES1   0.0000
    22 O22     43.2933  90.3108  31.5055   O.3       1 RES1   0.0000
    23 C23     41.7664  88.5157  31.2590   C.3       1 RES1   0.0000
    24 O24     40.6740  89.4351  31.3767   O.3       1 RES1   0.0000
    25 C25     42.1040  88.2530  29.7779   C.3       1 RES1   0.0000
    26 O26     42.4556  89.5289  29.1946   O.3       1 RES1   0.0000
@<TRIPOS>BOND
     1     1     2    2
     2     2     3    2
     3     2     4    1
     4     2     5    1
     5     6     5    1
     6     6     7    1
     7     7     8    1
     8     7     9    1
     9    10     9    1
    10    10    11    1
    11    11    12    1
    12    12    13    1
    13    12    14    1
    14    14    15    1
    15    14    16    1
    16    16    17    1
    17    17    18    1
    18     6    19    1
    19    19    20    1
    20    19    21    1
    21    21    22    1
    22    21    23    1
    23    23    24    1
    24    23    25    1
    25    25    26    1
    26    16    10    1
@<TRIPOS>SUBSTRUCTURE
     1 RES1        1 GROUP             0 ****  ****    0  
@<TRIPOS>MOLECULE
ligand_21
    26    26     1     0     0
SMALL
USER_CHARGES
****
Generated from the CSD

@<TRIPOS>ATOM
     1 O1      44.3967  88.6212  34.2035   O.2       1 RES1   0.0000
     2 S2      43.7261  88.3032  35.4894   S.o2      1 RES1   0.0000
     3 O3      44.6849  88.1300  36.5966   O.2       1 RES1   0.0000
     4 O4      42.9584  87.0619  35.2398   O.3       1 RES1  -1.0000
     5 O5      42.7637  89.5162  35.9891   O.3       1 RES1   0.0000
     6 C6      41.6976  89.9940  35.1850   C.3       1 RES1   0.0000
     7 C7      41.8483  91.5212  35.0399   C.3       1 RES1   0.0000
     8 O8      40.7141  92.0203  34.3268   O.3       1 RES1   0.0000
     9 C9      43.1811  91.9729  34.4106   C.3       1 RES1   0.0000
    10 S10     43.4627  93.6239  34.1742   S.3       1 RES1   1.0000
    11 C11     45.0961  93.7721  33.3856   C.3       1 RES1   0.0000
    12 C12     46.0269  94.2707  34.3625   C.3       1 RES1   0.0000
    13 O13     47.0116  95.2468  33.9354   O.3       1 RES1   0.0000
    14 C14     45.3723  94.8417  35.4898   C.3       1 RES1   0.0000
    15 O15     46.1903  94.7895  36.6593   O.3       1 RES1   0.0000
    16 C16     44.0737  94.1487  35.7678   C.3       1 RES1   0.0000
    17 C17     43.1501  95.0015  36.6296   C.3       1 RES1   0.0000
    18 O18     43.6561  95.2954  37.9430   O.3       1 RES1   0.0000
    19 C19     40.4044  89.6439  35.9438   C.3       1 RES1   0.0000
    20 O20     40.4964  90.2012  37.2654   O.3       1 RES1   0.0000
    21 C21     40.0694  88.1457  36.0627   C.3       1 RES1   0.0000
    22 O22     40.1428  87.4923  34.8030   O.3       1 RES1   0.0000
    23 C23     38.6590  87.9041  36.6038   C.3       1 RES1   0.0000
    24 O24     38.2785  86.5329  36.4380   O.3       1 RES1   0.0000
    25 C25     38.5460  88.3290  38.0815   C.3       1 RES1   0.0000
    26 O26     39.5565  87.5929  38.8086   O.3       1 RES1   0.0000
@<TRIPOS>BOND
     1     1     2    2
     2     2     3    2
     3     2     4    1
     4     2     5    1
     5     6     5    1
     6     6     7    1
     7     7     8    1
     8     7     9    1
     9    10     9    1
    10    10    11    1
    11    11    12    1
    12    12    13    1
    13    12    14    1
    14    14    15    1
    15    14    16    1
    16    16    17    1
    17    17    18    1
    18     6    19    1
    19    19    20    1
    20    19    21    1
    21    21    22    1
    22    21    23    1
    23    23    24    1
    24    23    25    1
    25    25    26    1
    26    16    10    1
@<TRIPOS>SUBSTRUCTURE
     1 RES1        1 GROUP             0 ****  ****    0  
@<TRIPOS>MOLECULE
ligand_22
    26    26     1     0     0
SMALL
USER_CHARGES
****
Generated from the CSD

@<TRIPOS>ATOM
     1 O1      44.4987  88.7367  35.1608   O.2       1 RES1   0.0000
     2 S2      43.2987  88.4450  35.9849   S.o2      1 RES1   0.0000
     3 O3      43.5972  88.4326  37.4293   O.2       1 RES1   0.0000
     4 O4      42.8113  87.1255  35.5224   O.3       1 RES1  -1.0000
     5 O5      42.1597  89.5962  35.8289   O.3       1 RES1   0.0000
     6 C6      41.6043  89.9210  34.5650   C.3       1 RES1   0.0000
     7 C7      41.7331  91.4430  34.3571   C.3       1 RES1   0.0000
     8 O8      41.0702  91.7890  33.1384   O.3       1 RES1   0.0000
     9 C9      43.1799  91.9728  34.4078   C.3       1 RES1   0.0000
    10 S10     43.4613  93.6238  34.1712   S.3       1 RES1   1.0000
    11 C11     45.0937  93.7719  33.3805   C.3       1 RES1   0.0000
    12 C12     46.0257  94.2704  34.3563   C.3       1 RES1   0.0000
    13 O13     47.0100  95.2464  33.9281   O.3       1 RES1   0.0000
    14 C14     45.3726  94.8414  35.4844   C.3       1 RES1   0.0000
    15 O15     46.1920  94.7890  36.6530   O.3       1 RES1   0.0000
    16 C16     44.0743  94.1484  35.7640   C.3       1 RES1   0.0000
    17 C17     43.1518  95.0012  36.6270   C.3       1 RES1   0.0000
    18 O18     41.9151  94.3660  36.9933   O.3       1 RES1   0.0000
    19 C19     40.1237  89.5038  34.6325   C.3       1 RES1   0.0000
    20 O20     39.5275  90.1525  35.7680   O.3       1 RES1   0.0000
    21 C21     39.8463  87.9921  34.7265   C.3       1 RES1   0.0000
    22 O22     40.4112  87.2880  33.6290   O.3       1 RES1   0.0000
    23 C23     38.3501  87.6727  34.7328   C.3       1 RES1   0.0000
    24 O24     37.7356  88.0908  33.5079   O.3       1 RES1   0.0000
    25 C25     38.0990  86.1731  34.9874   C.3       1 RES1   0.0000
    26 O26     36.6722  86.0092  35.1584   O.3       1 RES1   0.0000
@<TRIPOS>BOND
     1     1     2    2
     2     2     3    2
     3     2     4    1
     4     2     5    1
     5     6     5    1
     6     6     7    1
     7     7     8    1
     8     7     9    1
     9    10     9    1
    10    10    11    1
    11    11    12    1
    12    12    13    1
    13    12    14    1
    14    14    15    1
    15    14    16    1
    16    16    17    1
    17    17    18    1
    18     6    19    1
    19    19    20    1
    20    19    21    1
    21    21    22    1
    22    21    23    1
    23    23    24    1
    24    23    25    1
    25    25    26    1
    26    16    10    1
@<TRIPOS>SUBSTRUCTURE
     1 RES1        1 GROUP             0 ****  ****    0  
@<TRIPOS>MOLECULE
ligand_23
    26    26     1     0     0
SMALL
USER_CHARGES
****
Generated from the CSD

@<TRIPOS>ATOM
     1 O1      42.3955  89.0461  33.0854   O.2       1 RES1   0.0000
     2 S2      42.0049  89.0295  34.5177   S.o2      1 RES1   0.0000
     3 O3      43.0674  88.4867  35.3847   O.2       1 RES1   0.0000
     4 O4      40.7780  88.2032  34.5844   O.3       1 RES1  -1.0000
     5 O5      41.7531  90.5291  35.0965   O.3       1 RES1   0.0000
     6 C6      40.7908  91.3942  34.5162   C.3       1 RES1   0.0000
     7 C7      41.5363  92.4694  33.7011   C.3       1 RES1   0.0000
     8 O8      42.1924  91.8288  32.6040   O.3       1 RES1   0.0000
     9 C9      42.4985  93.3437  34.5294   C.3       1 RES1   0.0000
    10 S10     43.4056  94.5383  33.7478   S.3       1 RES1   1.0000
    11 C11     45.0712  93.8515  33.4911   C.3       1 RES1   0.0000
    12 C12     45.9477  94.4047  34.4886   C.3       1 RES1   0.0000
    13 O13     46.9258  95.3913  34.0706   O.3       1 RES1   0.0000
    14 C14     45.2325  94.9949  35.5683   C.3       1 RES1   0.0000
    15 O15     44.9753  94.0528  36.6104   O.3       1 RES1   0.0000
    16 C16     43.9337  95.5766  35.1010   C.3       1 RES1   0.0000
    17 C17     44.0462  97.0736  34.8371   C.3       1 RES1   0.0000
    18 O18     42.8153  97.7100  34.4537   O.3       1 RES1   0.0000
    19 C19     40.0304  92.0327  35.6930   C.3       1 RES1   0.0000
    20 O20     39.5291  90.9756  36.5279   O.3       1 RES1   0.0000
    21 C21     38.8619  92.9647  35.3228   C.3       1 RES1   0.0000
    22 O22     39.3097  94.1006  34.5959   O.3       1 RES1   0.0000
    23 C23     38.1231  93.4918  36.5544   C.3       1 RES1   0.0000
    24 O24     38.9936  94.2876  37.3677   O.3       1 RES1   0.0000
    25 C25     36.8662  94.2898  36.1541   C.3       1 RES1   0.0000
    26 O26     36.1472  94.5812  37.3748   O.3       1 RES1   0.0000
@<TRIPOS>BOND
     1     1     2    2
     2     2     3    2
     3     2     4    1
     4     2     5    1
     5     6     5    1
     6     6     7    1
     7     7     8    1
     8     7     9    1
     9    10     9    1
    10    10    11    1
    11    11    12    1
    12    12    13    1
    13    12    14    1
    14    14    15    1
    15    14    16    1
    16    16    17    1
    17    17    18    1
    18     6    19    1
    19    19    20    1
    20    19    21    1
    21    21    22    1
    22    21    23    1
    23    23    24    1
    24    23    25    1
    25    25    26    1
    26    16    10    1
@<TRIPOS>SUBSTRUCTURE
     1 RES1        1 GROUP             0 ****  ****    0  
@<TRIPOS>MOLECULE
ligand_24
    26    26     1     0     0
SMALL
USER_CHARGES
****
Generated from the CSD

@<TRIPOS>ATOM
     1 O1      42.4837  90.5205  36.7702   O.2       1 RES1   0.0000
     2 S2      41.1899  91.0040  37.3148   S.o2      1 RES1   0.0000
     3 O3      41.3238  91.5590  38.6748   O.2       1 RES1   0.0000
     4 O4      40.2884  89.8296  37.2966   O.3       1 RES1  -1.0000
     5 O5      40.5875  92.2392  36.4439   O.3       1 RES1   0.0000
     6 C6      40.3173  92.1049  35.0582   C.3       1 RES1   0.0000
     7 C7      41.0278  93.2525  34.3136   C.3       1 RES1   0.0000
     8 O8      40.6612  93.1890  32.9331   O.3       1 RES1   0.0000
     9 C9      42.5560  93.2912  34.5126   C.3       1 RES1   0.0000
    10 S10     43.4585  94.4889  33.7304   S.3       1 RES1   1.0000
    11 C11     45.0926  93.7704  33.3765   C.3       1 RES1   0.0000
    12 C12     46.0265  94.2678  34.3511   C.3       1 RES1   0.0000
    13 O13     47.0106  95.2435  33.9218   O.3       1 RES1   0.0000
    14 C14     45.3755  94.8385  35.4805   C.3       1 RES1   0.0000
    15 O15     45.1401  93.8683  36.5019   O.3       1 RES1   0.0000
    16 C16     44.0728  95.4676  35.0916   C.3       1 RES1   0.0000
    17 C17     44.2127  96.9693  34.8719   C.3       1 RES1   0.0000
    18 O18     42.9831  97.6485  34.5655   O.3       1 RES1   0.0000
    19 C19     38.7892  92.2236  34.9107   C.3       1 RES1   0.0000
    20 O20     38.3760  93.4596  35.5168   O.3       1 RES1   0.0000
    21 C21     37.9563  91.0768  35.5124   C.3       1 RES1   0.0000
    22 O22     38.3162  89.8207  34.9538   O.3       1 RES1   0.0000
    23 C23     36.4564  91.2547  35.2688   C.3       1 RES1   0.0000
    24 O24     36.1536  91.1614  33.8716   O.3       1 RES1   0.0000
    25 C25     35.6329  90.2324  36.0771   C.3       1 RES1   0.0000
    26 O26     35.9779  88.9218  35.5722   O.3       1 RES1   0.0000
@<TRIPOS>BOND
     1     1     2    2
     2     2     3    2
     3     2     4    1
     4     2     5    1
     5     6     5    1
     6     6     7    1
     7     7     8    1
     8     7     9    1
     9    10     9    1
    10    10    11    1
    11    11    12    1
    12    12    13    1
    13    12    14    1
    14    14    15    1
    15    14    16    1
    16    16    17    1
    17    17    18    1
    18     6    19    1
    19    19    20    1
    20    19    21    1
    21    21    22    1
    22    21    23    1
    23    23    24    1
    24    23    25    1
    25    25    26    1
    26    16    10    1
@<TRIPOS>SUBSTRUCTURE
     1 RES1        1 GROUP             0 ****  ****    0  
@<TRIPOS>MOLECULE
ligand_25
    26    26     1     0     0
SMALL
USER_CHARGES
****
Generated from the CSD

@<TRIPOS>ATOM
     1 O1      43.0154  90.6546  35.7712   O.2       1 RES1   0.0000
     2 S2      41.9815  90.7001  36.8357   S.o2      1 RES1   0.0000
     3 O3      42.5675  90.7215  38.1891   O.2       1 RES1   0.0000
     4 O4      41.1452  89.4961  36.6278   O.3       1 RES1  -1.0000
     5 O5      41.0991  92.0653  36.7679   O.3       1 RES1   0.0000
     6 C6      40.3720  92.4193  35.6028   C.3       1 RES1   0.0000
     7 C7      41.0989  93.5932  34.9174   C.3       1 RES1   0.0000
     8 O8      40.3110  94.0229  33.8044   O.3       1 RES1   0.0000
     9 C9      42.5585  93.2948  34.5214   C.3       1 RES1   0.0000
    10 S10     43.4607  94.4920  33.7378   S.3       1 RES1   1.0000
    11 C11     45.0991  93.7776  33.3957   C.3       1 RES1   0.0000
    12 C12     46.0263  94.2831  34.3725   C.3       1 RES1   0.0000
    13 O13     47.0090  95.2604  33.9435   O.3       1 RES1   0.0000
    14 C14     45.3675  94.8570  35.4959   C.3       1 RES1   0.0000
    15 O15     45.1304  93.8910  36.5208   O.3       1 RES1   0.0000
    16 C16     44.0646  95.4794  35.0973   C.3       1 RES1   0.0000
    17 C17     44.2002  96.9806  34.8710   C.3       1 RES1   0.0000
    18 O18     42.9697  97.6538  34.5550   O.3       1 RES1   0.0000
    19 C19     38.9765  92.8518  36.0889   C.3       1 RES1   0.0000
    20 O20     38.1002  92.8959  34.9506   O.3       1 RES1   0.0000
    21 C21     38.9001  94.2035  36.8226   C.3       1 RES1   0.0000
    22 O22     39.7396  94.2240  37.9689   O.3       1 RES1   0.0000
    23 C23     37.4849  94.5258  37.3061   C.3       1 RES1   0.0000
    24 O24     37.0406  93.5553  38.2618   O.3       1 RES1   0.0000
    25 C25     37.4045  95.9490  37.8930   C.3       1 RES1   0.0000
    26 O26     36.0066  96.2209  38.1457   O.3       1 RES1   0.0000
@<TRIPOS>BOND
     1     1     2    2
     2     2     3    2
     3     2     4    1
     4     2     5    1
     5     6     5    1
     6     6     7    1
     7     7     8    1
     8     7     9    1
     9    10     9    1
    10    10    11    1
    11    11    12    1
    12    12    13    1
    13    12    14    1
    14    14    15    1
    15    14    16    1
    16    16    17    1
    17    17    18    1
    18     6    19    1
    19    19    20    1
    20    19    21    1
    21    21    22    1
    22    21    23    1
    23    23    24    1
    24    23    25    1
    25    25    26    1
    26    16    10    1
@<TRIPOS>SUBSTRUCTURE
     1 RES1        1 GROUP             0 ****  ****    0  
@<TRIPOS>MOLECULE
ligand_26
    26    26     1     0     0
SMALL
USER_CHARGES
****
Generated from the CSD

@<TRIPOS>ATOM
     1 O1      40.8828  90.1750  34.9139   O.2       1 RES1   0.0000
     2 S2      41.3569  88.9583  34.2073   S.o2      1 RES1   0.0000
     3 O3      40.5249  88.6280  33.0351   O.2       1 RES1   0.0000
     4 O4      41.3232  87.8754  35.2166   O.3       1 RES1  -1.0000
     5 O5      42.8479  89.1576  33.5875   O.3       1 RES1   0.0000
     6 C6      43.9516  89.4987  34.4101   C.3       1 RES1   0.0000
     7 C7      44.3201  90.9708  34.1389   C.3       1 RES1   0.0000
     8 O8      45.5044  91.2822  34.8768   O.3       1 RES1   0.0000
     9 C9      43.1806  91.9730  34.4100   C.3       1 RES1   0.0000
    10 S10     43.4627  93.6242  34.1754   S.3       1 RES1   1.0000
    11 C11     45.0759  93.7703  33.3460   C.3       1 RES1   0.0000
    12 C12     46.0334  94.2599  34.3014   C.3       1 RES1   0.0000
    13 O13     47.0108  95.2345  33.8546   O.3       1 RES1   0.0000
    14 C14     45.4102  94.8272  35.4482   C.3       1 RES1   0.0000
    15 O15     46.2577  94.7653  36.5961   O.3       1 RES1   0.0000
    16 C16     44.1164  94.1377  35.7556   C.3       1 RES1   0.0000
    17 C17     43.2186  94.9893  36.6455   C.3       1 RES1   0.0000
    18 O18     43.7592  95.2740  37.9470   O.3       1 RES1   0.0000
    19 C19     45.0997  88.5633  33.9885   C.3       1 RES1   0.0000
    20 O20     45.2995  88.7102  32.5728   O.3       1 RES1   0.0000
    21 C21     44.9117  87.0686  34.3074   C.3       1 RES1   0.0000
    22 O22     44.5285  86.8673  35.6608   O.3       1 RES1   0.0000
    23 C23     46.1909  86.2592  34.0857   C.3       1 RES1   0.0000
    24 O24     46.0693  84.9500  34.6546   O.3       1 RES1   0.0000
    25 C25     46.5473  86.1747  32.5882   C.3       1 RES1   0.0000
    26 O26     45.4020  85.6023  31.9155   O.3       1 RES1   0.0000
@<TRIPOS>BOND
     1     1     2    2
     2     2     3    2
     3     2     4    1
     4     2     5    1
     5     6     5    1
     6     6     7    1
     7     7     8    1
     8     7     9    1
     9    10     9    1
    10    10    11    1
    11    11    12    1
    12    12    13    1
    13    12    14    1
    14    14    15    1
    15    14    16    1
    16    16    17    1
    17    17    18    1
    18     6    19    1
    19    19    20    1
    20    19    21    1
    21    21    22    1
    22    21    23    1
    23    23    24    1
    24    23    25    1
    25    25    26    1
    26    16    10    1
@<TRIPOS>SUBSTRUCTURE
     1 RES1        1 GROUP             0 ****  ****    0  
@<TRIPOS>MOLECULE
ligand_27
    26    26     1     0     0
SMALL
USER_CHARGES
****
Generated from the CSD

@<TRIPOS>ATOM
     1 O1      45.3259  87.7086  32.7644   O.2       1 RES1   0.0000
     2 S2      43.9368  88.1795  32.5341   S.o2      1 RES1   0.0000
     3 O3      42.9660  87.0699  32.4915   O.2       1 RES1   0.0000
     4 O4      43.9751  88.9138  31.2488   O.3       1 RES1  -1.0000
     5 O5      43.4047  89.1208  33.7498   O.3       1 RES1   0.0000
     6 C6      42.1162  89.7124  33.7180   C.3       1 RES1   0.0000
     7 C7      42.2811  91.2141  33.4114   C.3       1 RES1   0.0000
     8 O8      42.8015  91.3490  32.0866   O.3       1 RES1   0.0000
     9 C9      43.1159  91.9885  34.4505   C.3       1 RES1   0.0000
    10 S10     43.4025  93.6384  34.2125   S.3       1 RES1   1.0000
    11 C11     45.0773  93.7870  33.5160   C.3       1 RES1   0.0000
    12 C12     45.9488  94.3010  34.5386   C.3       1 RES1   0.0000
    13 O13     46.9515  95.2778  34.1573   O.3       1 RES1   0.0000
    14 C14     45.2287  94.8803  35.6207   C.3       1 RES1   0.0000
    15 O15     45.9794  94.8449  36.8352   O.3       1 RES1   0.0000
    16 C16     43.9198  94.1833  35.8322   C.3       1 RES1   0.0000
    17 C17     42.9448  95.0401  36.6311   C.3       1 RES1   0.0000
    18 O18     41.6920  94.4021  36.9322   O.3       1 RES1   0.0000
    19 C19     41.5198  89.5054  35.1223   C.3       1 RES1   0.0000
    20 O20     41.5797  88.1030  35.4314   O.3       1 RES1   0.0000
    21 C21     40.0738  89.9938  35.3264   C.3       1 RES1   0.0000
    22 O22     39.9682  91.4003  35.1536   O.3       1 RES1   0.0000
    23 C23     39.5441  89.6801  36.7270   C.3       1 RES1   0.0000
    24 O24     40.3137  90.3602  37.7259   O.3       1 RES1   0.0000
    25 C25     38.0490  90.0344  36.8522   C.3       1 RES1   0.0000
    26 O26     37.6047  89.5341  38.1345   O.3       1 RES1   0.0000
@<TRIPOS>BOND
     1     1     2    2
     2     2     3    2
     3     2     4    1
     4     2     5    1
     5     6     5    1
     6     6     7    1
     7     7     8    1
     8     7     9    1
     9    10     9    1
    10    10    11    1
    11    11    12    1
    12    12    13    1
    13    12    14    1
    14    14    15    1
    15    14    16    1
    16    16    17    1
    17    17    18    1
    18     6    19    1
    19    19    20    1
    20    19    21    1
    21    21    22    1
    22    21    23    1
    23    23    24    1
    24    23    25    1
    25    25    26    1
    26    16    10    1
@<TRIPOS>SUBSTRUCTURE
     1 RES1        1 GROUP             0 ****  ****    0  
@<TRIPOS>MOLECULE
ligand_28
    26    26     1     0     0
SMALL
USER_CHARGES
****
Generated from the CSD

@<TRIPOS>ATOM
     1 O1      42.2367  92.7011  31.5780   O.2       1 RES1   0.0000
     2 S2      40.8171  92.2666  31.5848   S.o2      1 RES1   0.0000
     3 O3      40.6651  90.8347  31.2655   O.2       1 RES1   0.0000
     4 O4      40.1367  93.1189  30.5833   O.3       1 RES1  -1.0000
     5 O5      40.1433  92.4143  33.0584   O.3       1 RES1   0.0000
     6 C6      40.1112  93.6598  33.7358   C.3       1 RES1   0.0000
     7 C7      41.0989  93.5932  34.9174   C.3       1 RES1   0.0000
     8 O8      41.0043  94.8154  35.6532   O.3       1 RES1   0.0000
     9 C9      42.5500  93.2614  34.5168   C.3       1 RES1   0.0000
    10 S10     43.4595  94.4184  33.6831   S.3       1 RES1   1.0000
    11 C11     45.0845  93.6703  33.3488   C.3       1 RES1   0.0000
    12 C12     46.0289  94.1963  34.2980   C.3       1 RES1   0.0000
    13 O13     47.0199  95.1446  33.8253   O.3       1 RES1   0.0000
    14 C14     45.3900  94.8173  35.4077   C.3       1 RES1   0.0000
    15 O15     45.1512  93.8904  36.4676   O.3       1 RES1   0.0000
    16 C16     44.0913  95.4436  35.0014   C.3       1 RES1   0.0000
    17 C17     44.2445  96.9341  34.7221   C.3       1 RES1   0.0000
    18 O18     43.0198  97.6129  34.3959   O.3       1 RES1   0.0000
    19 C19     38.6670  93.8301  34.2419   C.3       1 RES1   0.0000
    20 O20     38.3300  92.6759  35.0293   O.3       1 RES1   0.0000
    21 C21     37.5859  94.0233  33.1625   C.3       1 RES1   0.0000
    22 O22     37.8597  95.1531  32.3452   O.3       1 RES1   0.0000
    23 C23     36.1949  94.2389  33.7619   C.3       1 RES1   0.0000
    24 O24     36.1592  95.4371  34.5464   O.3       1 RES1   0.0000
    25 C25     35.1117  94.2698  32.6654   C.3       1 RES1   0.0000
    26 O26     33.8322  94.2901  33.3393   O.3       1 RES1   0.0000
@<TRIPOS>BOND
     1     1     2    2
     2     2     3    2
     3     2     4    1
     4     2     5    1
     5     6     5    1
     6     6     7    1
     7     7     8    1
     8     7     9    1
     9    10     9    1
    10    10    11    1
    11    11    12    1
    12    12    13    1
    13    12    14    1
    14    14    15    1
    15    14    16    1
    16    16    17    1
    17    17    18    1
    18     6    19    1
    19    19    20    1
    20    19    21    1
    21    21    22    1
    22    21    23    1
    23    23    24    1
    24    23    25    1
    25    25    26    1
    26    16    10    1
@<TRIPOS>SUBSTRUCTURE
     1 RES1        1 GROUP             0 ****  ****    0  
@<TRIPOS>MOLECULE
ligand_29
    26    26     1     0     0
SMALL
USER_CHARGES
****
Generated from the CSD

@<TRIPOS>ATOM
     1 O1      45.0155  88.3156  36.3685   O.2       1 RES1   0.0000
     2 S2      43.9960  88.6686  35.3486   S.o2      1 RES1   0.0000
     3 O3      43.3459  87.4791  34.7672   O.2       1 RES1   0.0000
     4 O4      44.7195  89.4473  34.3178   O.3       1 RES1  -1.0000
     5 O5      42.7637  89.5162  35.9891   O.3       1 RES1   0.0000
     6 C6      41.6976  89.9940  35.1850   C.3       1 RES1   0.0000
     7 C7      41.8483  91.5212  35.0399   C.3       1 RES1   0.0000
     8 O8      40.7148  92.0201  34.3256   O.3       1 RES1   0.0000
     9 C9      43.1818  91.9730  34.4120   C.3       1 RES1   0.0000
    10 S10     43.4614  93.6237  34.1713   S.3       1 RES1   1.0000
    11 C11     45.0962  93.7719  33.3854   C.3       1 RES1   0.0000
    12 C12     46.0243  94.2748  34.3628   C.3       1 RES1   0.0000
    13 O13     47.0085  95.2510  33.9348   O.3       1 RES1   0.0000
    14 C14     45.3666  94.8482  35.4870   C.3       1 RES1   0.0000
    15 O15     46.1823  94.8006  36.6584   O.3       1 RES1   0.0000
    16 C16     44.0684  94.1541  35.7644   C.3       1 RES1   0.0000
    17 C17     43.1419  95.0081  36.6219   C.3       1 RES1   0.0000
    18 O18     41.9049  94.3721  36.9861   O.3       1 RES1   0.0000
    19 C19     40.4044  89.6439  35.9438   C.3       1 RES1   0.0000
    20 O20     39.2997  89.7898  35.0360   O.3       1 RES1   0.0000
    21 C21     40.1138  90.4696  37.2106   C.3       1 RES1   0.0000
    22 O22     41.1692  90.3644  38.1563   O.3       1 RES1   0.0000
    23 C23     38.8370  90.0173  37.9219   C.3       1 RES1   0.0000
    24 O24     38.9604  88.6643  38.3768   O.3       1 RES1   0.0000
    25 C25     38.4844  90.9582  39.0911   C.3       1 RES1   0.0000
    26 O26     37.1805  90.5588  39.5731   O.3       1 RES1   0.0000
@<TRIPOS>BOND
     1     1     2    2
     2     2     3    2
     3     2     4    1
     4     2     5    1
     5     6     5    1
     6     6     7    1
     7     7     8    1
     8     7     9    1
     9    10     9    1
    10    10    11    1
    11    11    12    1
    12    12    13    1
    13    12    14    1
    14    14    15    1
    15    14    16    1
    16    16    17    1
    17    17    18    1
    18     6    19    1
    19    19    20    1
    20    19    21    1
    21    21    22    1
    22    21    23    1
    23    23    24    1
    24    23    25    1
    25    25    26    1
    26    16    10    1
@<TRIPOS>SUBSTRUCTURE
     1 RES1        1 GROUP             0 ****  ****    0  
@<TRIPOS>MOLECULE
ligand_30
    26    26     1     0     0
SMALL
USER_CHARGES
****
Generated from the CSD

@<TRIPOS>ATOM
     1 O1      38.5535  91.9080  33.0402   O.2       1 RES1   0.0000
     2 S2      39.0873  90.8266  33.9061   S.o2      1 RES1   0.0000
     3 O3      39.5522  89.6617  33.1300   O.2       1 RES1   0.0000
     4 O4      37.9769  90.4622  34.8152   O.3       1 RES1  -1.0000
     5 O5      40.4076  91.3029  34.7290   O.3       1 RES1   0.0000
     6 C6      40.3720  92.4193  35.6028   C.3       1 RES1   0.0000
     7 C7      41.0989  93.5932  34.9174   C.3       1 RES1   0.0000
     8 O8      40.3480  93.9753  33.7622   O.3       1 RES1   0.0000
     9 C9      42.5804  93.3210  34.5894   C.3       1 RES1   0.0000
    10 S10     43.4790  94.5103  33.7900   S.3       1 RES1   1.0000
    11 C11     45.1484  93.8300  33.5402   C.3       1 RES1   0.0000
    12 C12     46.0229  94.4023  34.5287   C.3       1 RES1   0.0000
    13 O13     46.9945  95.3889  34.0956   O.3       1 RES1   0.0000
    14 C14     45.3058  95.0030  35.6012   C.3       1 RES1   0.0000
    15 O15     45.0558  94.0738  36.6566   O.3       1 RES1   0.0000
    16 C16     44.0027  95.5704  35.1279   C.3       1 RES1   0.0000
    17 C17     44.1058  97.0641  34.8431   C.3       1 RES1   0.0000
    18 O18     44.4070  97.8750  35.9916   O.3       1 RES1   0.0000
    19 C19     41.1199  91.9847  36.8767   C.3       1 RES1   0.0000
    20 O20     40.5509  90.7445  37.3282   O.3       1 RES1   0.0000
    21 C21     41.1108  92.9861  38.0463   C.3       1 RES1   0.0000
    22 O22     41.6135  94.2553  37.6514   O.3       1 RES1   0.0000
    23 C23     41.9697  92.5176  39.2224   C.3       1 RES1   0.0000
    24 O24     42.2188  93.5962  40.1318   O.3       1 RES1   0.0000
    25 C25     41.3180  91.3259  39.9517   C.3       1 RES1   0.0000
    26 O26     39.9984  91.7543  40.3605   O.3       1 RES1   0.0000
@<TRIPOS>BOND
     1     1     2    2
     2     2     3    2
     3     2     4    1
     4     2     5    1
     5     6     5    1
     6     6     7    1
     7     7     8    1
     8     7     9    1
     9    10     9    1
    10    10    11    1
    11    11    12    1
    12    12    13    1
    13    12    14    1
    14    14    15    1
    15    14    16    1
    16    16    17    1
    17    17    18    1
    18     6    19    1
    19    19    20    1
    20    19    21    1
    21    21    22    1
    22    21    23    1
    23    23    24    1
    24    23    25    1
    25    25    26    1
    26    16    10    1
@<TRIPOS>SUBSTRUCTURE
     1 RES1        1 GROUP             0 ****  ****    0  
@<TRIPOS>MOLECULE
ligand_31
    26    26     1     0     0
SMALL
USER_CHARGES
****
Generated from the CSD

@<TRIPOS>ATOM
     1 O1      42.0147  92.3919  37.2796   O.2       1 RES1   0.0000
     2 S2      40.6198  91.9097  37.1184   S.o2      1 RES1   0.0000
     3 O3      39.6526  92.7180  37.8842   O.2       1 RES1   0.0000
     4 O4      40.6314  90.5021  37.5776   O.3       1 RES1  -1.0000
     5 O5      40.1069  92.0369  35.5796   O.3       1 RES1   0.0000
     6 C6      40.7908  91.3942  34.5162   C.3       1 RES1   0.0000
     7 C7      41.5363  92.4694  33.7011   C.3       1 RES1   0.0000
     8 O8      42.1267  91.8412  32.5604   O.3       1 RES1   0.0000
     9 C9      42.5586  93.2894  34.5128   C.3       1 RES1   0.0000
    10 S10     43.4629  94.4854  33.7300   S.3       1 RES1   1.0000
    11 C11     45.0955  93.7638  33.3755   C.3       1 RES1   0.0000
    12 C12     46.0308  94.2596  34.3496   C.3       1 RES1   0.0000
    13 O13     47.0165  95.2336  33.9198   O.3       1 RES1   0.0000
    14 C14     45.3813  94.8317  35.4793   C.3       1 RES1   0.0000
    15 O15     45.1446  93.8620  36.5009   O.3       1 RES1   0.0000
    16 C16     44.0796  95.4631  35.0909   C.3       1 RES1   0.0000
    17 C17     44.2221  96.9645  34.8710   C.3       1 RES1   0.0000
    18 O18     42.9936  97.6459  34.5650   O.3       1 RES1   0.0000
    19 C19     39.7040  90.7179  33.6605   C.3       1 RES1   0.0000
    20 O20     38.7465  91.7199  33.2798   O.3       1 RES1   0.0000
    21 C21     38.9544  89.5435  34.3161   C.3       1 RES1   0.0000
    22 O22     39.8538  88.6024  34.8858   O.3       1 RES1   0.0000
    23 C23     38.0857  88.7756  33.3179   C.3       1 RES1   0.0000
    24 O24     37.6616  87.5237  33.8706   O.3       1 RES1   0.0000
    25 C25     36.8730  89.6152  32.8695   C.3       1 RES1   0.0000
    26 O26     36.1744  88.8419  31.8666   O.3       1 RES1   0.0000
@<TRIPOS>BOND
     1     1     2    2
     2     2     3    2
     3     2     4    1
     4     2     5    1
     5     6     5    1
     6     6     7    1
     7     7     8    1
     8     7     9    1
     9    10     9    1
    10    10    11    1
    11    11    12    1
    12    12    13    1
    13    12    14    1
    14    14    15    1
    15    14    16    1
    16    16    17    1
    17    17    18    1
    18     6    19    1
    19    19    20    1
    20    19    21    1
    21    21    22    1
    22    21    23    1
    23    23    24    1
    24    23    25    1
    25    25    26    1
    26    16    10    1
@<TRIPOS>SUBSTRUCTURE
     1 RES1        1 GROUP             0 ****  ****    0  
@<TRIPOS>MOLECULE
ligand_32
    26    26     1     0     0
SMALL
USER_CHARGES
****
Generated from the CSD

@<TRIPOS>ATOM
     1 O1      42.0149  92.3909  37.2796   O.2       1 RES1   0.0000
     2 S2      40.6197  91.9096  37.1184   S.o2      1 RES1   0.0000
     3 O3      39.6530  92.7186  37.8841   O.2       1 RES1   0.0000
     4 O4      40.6304  90.5020  37.5778   O.3       1 RES1  -1.0000
     5 O5      40.1069  92.0369  35.5796   O.3       1 RES1   0.0000
     6 C6      40.7908  91.3942  34.5162   C.3       1 RES1   0.0000
     7 C7      41.5363  92.4694  33.7011   C.3       1 RES1   0.0000
     8 O8      42.1291  91.8407  32.5619   O.3       1 RES1   0.0000
     9 C9      42.5564  93.2914  34.5135   C.3       1 RES1   0.0000
    10 S10     43.4620  94.4863  33.7304   S.3       1 RES1   1.0000
    11 C11     45.0957  93.7648  33.3808   C.3       1 RES1   0.0000
    12 C12     46.0285  94.2629  34.3561   C.3       1 RES1   0.0000
    13 O13     47.0148  95.2364  33.9266   O.3       1 RES1   0.0000
    14 C14     45.3763  94.8368  35.4833   C.3       1 RES1   0.0000
    15 O15     45.1378  93.8689  36.5061   O.3       1 RES1   0.0000
    16 C16     44.0753  95.4668  35.0907   C.3       1 RES1   0.0000
    17 C17     44.2176  96.9679  34.8683   C.3       1 RES1   0.0000
    18 O18     44.6058  97.7137  36.0346   O.3       1 RES1   0.0000
    19 C19     39.7040  90.7179  33.6605   C.3       1 RES1   0.0000
    20 O20     38.7469  91.7201  33.2793   O.3       1 RES1   0.0000
    21 C21     38.9539  89.5439  34.3163   C.3       1 RES1   0.0000
    22 O22     39.8459  88.5135  34.7186   O.3       1 RES1   0.0000
    23 C23     37.9350  88.9023  33.3725   C.3       1 RES1   0.0000
    24 O24     38.5926  88.2726  32.2663   O.3       1 RES1   0.0000
    25 C25     37.0358  87.8972  34.1194   C.3       1 RES1   0.0000
    26 O26     37.8957  86.8342  34.5913   O.3       1 RES1   0.0000
@<TRIPOS>BOND
     1     1     2    2
     2     2     3    2
     3     2     4    1
     4     2     5    1
     5     6     5    1
     6     6     7    1
     7     7     8    1
     8     7     9    1
     9    10     9    1
    10    10    11    1
    11    11    12    1
    12    12    13    1
    13    12    14    1
    14    14    15    1
    15    14    16    1
    16    16    17    1
    17    17    18    1
    18     6    19    1
    19    19    20    1
    20    19    21    1
    21    21    22    1
    22    21    23    1
    23    23    24    1
    24    23    25    1
    25    25    26    1
    26    16    10    1
@<TRIPOS>SUBSTRUCTURE
     1 RES1        1 GROUP             0 ****  ****    0  
@<TRIPOS>MOLECULE
ligand_33
    26    26     1     0     0
SMALL
USER_CHARGES
****
Generated from the CSD

@<TRIPOS>ATOM
     1 O1      42.9613  91.2418  36.6055   O.2       1 RES1   0.0000
     2 S2      41.6062  91.2294  37.2118   S.o2      1 RES1   0.0000
     3 O3      41.6078  91.7159  38.6042   O.2       1 RES1   0.0000
     4 O4      41.1486  89.8234  37.1310   O.3       1 RES1  -1.0000
     5 O5      40.5875  92.2392  36.4439   O.3       1 RES1   0.0000
     6 C6      40.3173  92.1049  35.0582   C.3       1 RES1   0.0000
     7 C7      41.0278  93.2525  34.3136   C.3       1 RES1   0.0000
     8 O8      40.6593  93.1905  32.9335   O.3       1 RES1   0.0000
     9 C9      42.5563  93.2897  34.5106   C.3       1 RES1   0.0000
    10 S10     43.4590  94.4863  33.7269   S.3       1 RES1   1.0000
    11 C11     45.0919  93.7660  33.3710   C.3       1 RES1   0.0000
    12 C12     46.0275  94.2628  34.3442   C.3       1 RES1   0.0000
    13 O13     47.0121  95.2374  33.9134   O.3       1 RES1   0.0000
    14 C14     45.3786  94.8344  35.4744   C.3       1 RES1   0.0000
    15 O15     45.1435  93.8648  36.4963   O.3       1 RES1   0.0000
    16 C16     44.0761  95.4647  35.0870   C.3       1 RES1   0.0000
    17 C17     44.2172  96.9663  34.8667   C.3       1 RES1   0.0000
    18 O18     44.6089  97.7101  36.0331   O.3       1 RES1   0.0000
    19 C19     38.7892  92.2236  34.9107   C.3       1 RES1   0.0000
    20 O20     38.3762  93.4602  35.5157   O.3       1 RES1   0.0000
    21 C21     37.9562  91.0774  35.5136   C.3       1 RES1   0.0000
    22 O22     38.3160  89.8208  34.9562   O.3       1 RES1   0.0000
    23 C23     36.4564  91.2553  35.2699   C.3       1 RES1   0.0000
    24 O24     36.1629  91.2341  33.8677   O.3       1 RES1   0.0000
    25 C25     35.6371  90.1843  36.0170   C.3       1 RES1   0.0000
    26 O26     34.2441  90.5469  35.8761   O.3       1 RES1   0.0000
@<TRIPOS>BOND
     1     1     2    2
     2     2     3    2
     3     2     4    1
     4     2     5    1
     5     6     5    1
     6     6     7    1
     7     7     8    1
     8     7     9    1
     9    10     9    1
    10    10    11    1
    11    11    12    1
    12    12    13    1
    13    12    14    1
    14    14    15    1
    15    14    16    1
    16    16    17    1
    17    17    18    1
    18     6    19    1
    19    19    20    1
    20    19    21    1
    21    21    22    1
    22    21    23    1
    23    23    24    1
    24    23    25    1
    25    25    26    1
    26    16    10    1
@<TRIPOS>SUBSTRUCTURE
     1 RES1        1 GROUP             0 ****  ****    0  
@<TRIPOS>MOLECULE
ligand_34
    26    26     1     0     0
SMALL
USER_CHARGES
****
Generated from the CSD

@<TRIPOS>ATOM
     1 O1      39.9847  93.0096  36.0689   O.2       1 RES1   0.0000
     2 S2      39.6044  91.6428  35.6314   S.o2      1 RES1   0.0000
     3 O3      38.3893  91.6369  34.7955   O.2       1 RES1   0.0000
     4 O4      39.4070  90.8680  36.8777   O.3       1 RES1  -1.0000
     5 O5      40.7399  90.9717  34.6787   O.3       1 RES1   0.0000
     6 C6      42.0790  90.8177  35.1197   C.3       1 RES1   0.0000
     7 C7      42.9615  91.8146  34.3428   C.3       1 RES1   0.0000
     8 O8      44.3234  91.6017  34.7226   O.3       1 RES1   0.0000
     9 C9      42.5365  93.2893  34.4882   C.3       1 RES1   0.0000
    10 S10     43.2736  94.4589  33.5137   S.3       1 RES1   1.0000
    11 C11     44.7920  93.7088  32.8476   C.3       1 RES1   0.0000
    12 C12     45.9115  94.2085  33.6002   C.3       1 RES1   0.0000
    13 O13     46.7982  95.1611  32.9590   O.3       1 RES1   0.0000
    14 C14     45.5124  94.8089  34.8272   C.3       1 RES1   0.0000
    15 O15     45.4799  93.8605  35.8946   O.3       1 RES1   0.0000
    16 C16     44.1652  95.4514  34.7003   C.3       1 RES1   0.0000
    17 C17     44.2747  96.9467  34.4263   C.3       1 RES1   0.0000
    18 O18     43.0165  97.6396  34.3642   O.3       1 RES1   0.0000
    19 C19     42.4715  89.3669  34.7848   C.3       1 RES1   0.0000
    20 O20     42.2410  89.1536  33.3822   O.3       1 RES1   0.0000
    21 C21     41.7442  88.2649  35.5771   C.3       1 RES1   0.0000
    22 O22     41.9321  88.4177  36.9773   O.3       1 RES1   0.0000
    23 C23     42.2390  86.8631  35.2156   C.3       1 RES1   0.0000
    24 O24     43.6242  86.7113  35.5481   O.3       1 RES1   0.0000
    25 C25     41.3887  85.7754  35.9015   C.3       1 RES1   0.0000
    26 O26     41.8126  84.5047  35.3560   O.3       1 RES1   0.0000
@<TRIPOS>BOND
     1     1     2    2
     2     2     3    2
     3     2     4    1
     4     2     5    1
     5     6     5    1
     6     6     7    1
     7     7     8    1
     8     7     9    1
     9    10     9    1
    10    10    11    1
    11    11    12    1
    12    12    13    1
    13    12    14    1
    14    14    15    1
    15    14    16    1
    16    16    17    1
    17    17    18    1
    18     6    19    1
    19    19    20    1
    20    19    21    1
    21    21    22    1
    22    21    23    1
    23    23    24    1
    24    23    25    1
    25    25    26    1
    26    16    10    1
@<TRIPOS>SUBSTRUCTURE
     1 RES1        1 GROUP             0 ****  ****    0  
@<TRIPOS>MOLECULE
ligand_35
    26    26     1     0     0
SMALL
USER_CHARGES
****
Generated from the CSD

@<TRIPOS>ATOM
     1 O1      40.8735  89.4579  31.5012   O.2       1 RES1   0.0000
     2 S2      41.7059  88.5270  32.3039   S.o2      1 RES1   0.0000
     3 O3      42.8533  87.9985  31.5426   O.2       1 RES1   0.0000
     4 O4      40.7917  87.4416  32.7266   O.3       1 RES1  -1.0000
     5 O5      42.3896  89.2695  33.5800   O.3       1 RES1   0.0000
     6 C6      41.6043  89.9210  34.5650   C.3       1 RES1   0.0000
     7 C7      41.7331  91.4430  34.3571   C.3       1 RES1   0.0000
     8 O8      41.1362  91.7784  33.1019   O.3       1 RES1   0.0000
     9 C9      43.1708  91.9841  34.4853   C.3       1 RES1   0.0000
    10 S10     43.4546  93.6340  34.2437   S.3       1 RES1   1.0000
    11 C11     45.1295  93.7841  33.5478   C.3       1 RES1   0.0000
    12 C12     45.9995  94.3019  34.5697   C.3       1 RES1   0.0000
    13 O13     47.0006  95.2797  34.1868   O.3       1 RES1   0.0000
    14 C14     45.2777  94.8824  35.6501   C.3       1 RES1   0.0000
    15 O15     46.0277  94.8512  36.8651   O.3       1 RES1   0.0000
    16 C16     43.9699  94.1835  35.8625   C.3       1 RES1   0.0000
    17 C17     42.9929  95.0404  36.6589   C.3       1 RES1   0.0000
    18 O18     41.7411  94.4008  36.9607   O.3       1 RES1   0.0000
    19 C19     42.1972  89.5047  35.9236   C.3       1 RES1   0.0000
    20 O20     42.2359  88.0689  35.9737   O.3       1 RES1   0.0000
    21 C21     41.4625  90.0220  37.1741   C.3       1 RES1   0.0000
    22 O22     41.4935  91.4408  37.2488   O.3       1 RES1   0.0000
    23 C23     42.0797  89.4980  38.4721   C.3       1 RES1   0.0000
    24 O24     43.4296  89.9562  38.6147   O.3       1 RES1   0.0000
    25 C25     41.2330  89.8993  39.6964   C.3       1 RES1   0.0000
    26 O26     41.7907  89.2079  40.8377   O.3       1 RES1   0.0000
@<TRIPOS>BOND
     1     1     2    2
     2     2     3    2
     3     2     4    1
     4     2     5    1
     5     6     5    1
     6     6     7    1
     7     7     8    1
     8     7     9    1
     9    10     9    1
    10    10    11    1
    11    11    12    1
    12    12    13    1
    13    12    14    1
    14    14    15    1
    15    14    16    1
    16    16    17    1
    17    17    18    1
    18     6    19    1
    19    19    20    1
    20    19    21    1
    21    21    22    1
    22    21    23    1
    23    23    24    1
    24    23    25    1
    25    25    26    1
    26    16    10    1
@<TRIPOS>SUBSTRUCTURE
     1 RES1        1 GROUP             0 ****  ****    0  
@<TRIPOS>MOLECULE
ligand_36
    26    26     1     0     0
SMALL
USER_CHARGES
****
Generated from the CSD

@<TRIPOS>ATOM
     1 O1      39.1570  90.0704  32.9020   O.2       1 RES1   0.0000
     2 S2      39.9673  89.6596  34.0762   S.o2      1 RES1   0.0000
     3 O3      40.9387  88.5999  33.7469   O.2       1 RES1   0.0000
     4 O4      38.9910  89.2017  35.0910   O.3       1 RES1  -1.0000
     5 O5      40.8894  90.8783  34.6346   O.3       1 RES1   0.0000
     6 C6      40.3173  92.1049  35.0582   C.3       1 RES1   0.0000
     7 C7      41.0278  93.2525  34.3136   C.3       1 RES1   0.0000
     8 O8      40.7242  93.1421  32.9208   O.3       1 RES1   0.0000
     9 C9      42.5441  93.3406  34.5774   C.3       1 RES1   0.0000
    10 S10     43.4487  94.5351  33.7926   S.3       1 RES1   1.0000
    11 C11     45.1152  93.8504  33.5362   C.3       1 RES1   0.0000
    12 C12     45.9915  94.4072  34.5320   C.3       1 RES1   0.0000
    13 O13     46.9677  95.3944  34.1111   O.3       1 RES1   0.0000
    14 C14     45.2761  94.9984  35.6108   C.3       1 RES1   0.0000
    15 O15     45.0211  94.0581  36.6551   O.3       1 RES1   0.0000
    16 C16     43.9760  95.5771  35.1432   C.3       1 RES1   0.0000
    17 C17     44.0860  97.0736  34.8760   C.3       1 RES1   0.0000
    18 O18     42.8538  97.7073  34.4922   O.3       1 RES1   0.0000
    19 C19     40.5788  92.1941  36.5729   C.3       1 RES1   0.0000
    20 O20     40.0688  90.9984  37.1860   O.3       1 RES1   0.0000
    21 C21     39.9788  93.4136  37.2965   C.3       1 RES1   0.0000
    22 O22     40.5338  94.6308  36.8172   O.3       1 RES1   0.0000
    23 C23     40.2291  93.3784  38.8054   C.3       1 RES1   0.0000
    24 O24     41.6325  93.4275  39.0894   O.3       1 RES1   0.0000
    25 C25     39.4848  94.5218  39.5231   C.3       1 RES1   0.0000
    26 O26     39.6321  94.2924  40.9435   O.3       1 RES1   0.0000
@<TRIPOS>BOND
     1     1     2    2
     2     2     3    2
     3     2     4    1
     4     2     5    1
     5     6     5    1
     6     6     7    1
     7     7     8    1
     8     7     9    1
     9    10     9    1
    10    10    11    1
    11    11    12    1
    12    12    13    1
    13    12    14    1
    14    14    15    1
    15    14    16    1
    16    16    17    1
    17    17    18    1
    18     6    19    1
    19    19    20    1
    20    19    21    1
    21    21    22    1
    22    21    23    1
    23    23    24    1
    24    23    25    1
    25    25    26    1
    26    16    10    1
@<TRIPOS>SUBSTRUCTURE
     1 RES1        1 GROUP             0 ****  ****    0  
@<TRIPOS>MOLECULE
ligand_37
    26    26     1     0     0
SMALL
USER_CHARGES
****
Generated from the CSD

@<TRIPOS>ATOM
     1 O1      40.8828  90.1800  34.9100   O.2       1 RES1   0.0000
     2 S2      41.3563  88.9611  34.2069   S.o2      1 RES1   0.0000
     3 O3      40.5249  88.6284  33.0350   O.2       1 RES1   0.0000
     4 O4      41.3211  87.8808  35.2189   O.3       1 RES1  -1.0000
     5 O5      42.8479  89.1576  33.5875   O.3       1 RES1   0.0000
     6 C6      43.9516  89.4987  34.4101   C.3       1 RES1   0.0000
     7 C7      44.3201  90.9708  34.1389   C.3       1 RES1   0.0000
     8 O8      45.5017  91.2835  34.8806   O.3       1 RES1   0.0000
     9 C9      43.1790  91.9725  34.4052   C.3       1 RES1   0.0000
    10 S10     43.4610  93.6237  34.1704   S.3       1 RES1   1.0000
    11 C11     45.0774  93.7702  33.3473   C.3       1 RES1   0.0000
    12 C12     46.0308  94.2612  34.3062   C.3       1 RES1   0.0000
    13 O13     47.0093  95.2361  33.8624   O.3       1 RES1   0.0000
    14 C14     45.4026  94.8290  35.4500   C.3       1 RES1   0.0000
    15 O15     46.2456  94.7686  36.6013   O.3       1 RES1   0.0000
    16 C16     44.1081  94.1389  35.7528   C.3       1 RES1   0.0000
    17 C17     43.2062  94.9906  36.6384   C.3       1 RES1   0.0000
    18 O18     41.9751  94.3577  37.0270   O.3       1 RES1   0.0000
    19 C19     45.0997  88.5633  33.9885   C.3       1 RES1   0.0000
    20 O20     46.1187  88.6218  35.0004   O.3       1 RES1   0.0000
    21 C21     45.7457  88.8521  32.6210   C.3       1 RES1   0.0000
    22 O22     44.7893  88.8053  31.5710   O.3       1 RES1   0.0000
    23 C23     46.8394  87.8425  32.2672   C.3       1 RES1   0.0000
    24 O24     46.2950  86.5222  32.1529   O.3       1 RES1   0.0000
    25 C25     47.5758  88.2451  30.9741   C.3       1 RES1   0.0000
    26 O26     48.6963  87.3421  30.8303   O.3       1 RES1   0.0000
@<TRIPOS>BOND
     1     1     2    2
     2     2     3    2
     3     2     4    1
     4     2     5    1
     5     6     5    1
     6     6     7    1
     7     7     8    1
     8     7     9    1
     9    10     9    1
    10    10    11    1
    11    11    12    1
    12    12    13    1
    13    12    14    1
    14    14    15    1
    15    14    16    1
    16    16    17    1
    17    17    18    1
    18     6    19    1
    19    19    20    1
    20    19    21    1
    21    21    22    1
    22    21    23    1
    23    23    24    1
    24    23    25    1
    25    25    26    1
    26    16    10    1
@<TRIPOS>SUBSTRUCTURE
     1 RES1        1 GROUP             0 ****  ****    0  
@<TRIPOS>MOLECULE
ligand_38
    26    26     1     0     0
SMALL
USER_CHARGES
****
Generated from the CSD

@<TRIPOS>ATOM
     1 O1      43.6579  89.0618  36.4262   O.2       1 RES1   0.0000
     2 S2      42.2601  88.6457  36.1485   S.o2      1 RES1   0.0000
     3 O3      41.3838  88.7952  37.3254   O.2       1 RES1   0.0000
     4 O4      42.3460  87.2326  35.7146   O.3       1 RES1  -1.0000
     5 O5      41.5608  89.5818  35.0164   O.3       1 RES1   0.0000
     6 C6      42.1162  89.7124  33.7180   C.3       1 RES1   0.0000
     7 C7      42.2811  91.2141  33.4114   C.3       1 RES1   0.0000
     8 O8      42.7296  91.3517  32.0608   O.3       1 RES1   0.0000
     9 C9      43.1804  91.9727  34.4075   C.3       1 RES1   0.0000
    10 S10     43.4619  93.6236  34.1708   S.3       1 RES1   1.0000
    11 C11     45.0932  93.7715  33.3778   C.3       1 RES1   0.0000
    12 C12     46.0267  94.2696  34.3525   C.3       1 RES1   0.0000
    13 O13     47.0106  95.2455  33.9231   O.3       1 RES1   0.0000
    14 C14     45.3752  94.8405  35.4816   C.3       1 RES1   0.0000
    15 O15     46.1963  94.7877  36.6490   O.3       1 RES1   0.0000
    16 C16     44.0772  94.1478  35.7628   C.3       1 RES1   0.0000
    17 C17     43.1561  95.0006  36.6273   C.3       1 RES1   0.0000
    18 O18     41.9197  94.3656  36.9952   O.3       1 RES1   0.0000
    19 C19     41.1012  89.0682  32.7559   C.3       1 RES1   0.0000
    20 O20     39.8263  89.6984  32.9631   O.3       1 RES1   0.0000
    21 C21     40.9228  87.5434  32.8758   C.3       1 RES1   0.0000
    22 O22     42.1734  86.8689  32.8687   O.3       1 RES1   0.0000
    23 C23     40.0999  86.9599  31.7257   C.3       1 RES1   0.0000
    24 O24     40.2203  85.5328  31.6871   O.3       1 RES1   0.0000
    25 C25     38.6205  87.3822  31.8254   C.3       1 RES1   0.0000
    26 O26     37.9547  86.8601  30.6524   O.3       1 RES1   0.0000
@<TRIPOS>BOND
     1     1     2    2
     2     2     3    2
     3     2     4    1
     4     2     5    1
     5     6     5    1
     6     6     7    1
     7     7     8    1
     8     7     9    1
     9    10     9    1
    10    10    11    1
    11    11    12    1
    12    12    13    1
    13    12    14    1
    14    14    15    1
    15    14    16    1
    16    16    17    1
    17    17    18    1
    18     6    19    1
    19    19    20    1
    20    19    21    1
    21    21    22    1
    22    21    23    1
    23    23    24    1
    24    23    25    1
    25    25    26    1
    26    16    10    1
@<TRIPOS>SUBSTRUCTURE
     1 RES1        1 GROUP             0 ****  ****    0  
@<TRIPOS>MOLECULE
ligand_39
    26    26     1     0     0
SMALL
USER_CHARGES
****
Generated from the CSD

@<TRIPOS>ATOM
     1 O1      42.1380  89.7945  35.2469   O.2       1 RES1   0.0000
     2 S2      41.5760  90.2448  36.5452   S.o2      1 RES1   0.0000
     3 O3      42.5249  90.0694  37.6606   O.2       1 RES1   0.0000
     4 O4      40.3498  89.4395  36.7469   O.3       1 RES1  -1.0000
     5 O5      41.2561  91.8400  36.5485   O.3       1 RES1   0.0000
     6 C6      40.3720  92.4193  35.6028   C.3       1 RES1   0.0000
     7 C7      41.0989  93.5932  34.9174   C.3       1 RES1   0.0000
     8 O8      40.3063  94.0292  33.8101   O.3       1 RES1   0.0000
     9 C9      42.5554  93.2915  34.5124   C.3       1 RES1   0.0000
    10 S10     43.4578  94.4893  33.7301   S.3       1 RES1   1.0000
    11 C11     45.0919  93.7707  33.3761   C.3       1 RES1   0.0000
    12 C12     46.0259  94.2681  34.3506   C.3       1 RES1   0.0000
    13 O13     47.0100  95.2439  33.9213   O.3       1 RES1   0.0000
    14 C14     45.3749  94.8387  35.4802   C.3       1 RES1   0.0000
    15 O15     45.1396  93.8685  36.5015   O.3       1 RES1   0.0000
    16 C16     44.0723  95.4678  35.0913   C.3       1 RES1   0.0000
    17 C17     44.2121  96.9696  34.8717   C.3       1 RES1   0.0000
    18 O18     42.9825  97.6488  34.5654   O.3       1 RES1   0.0000
    19 C19     39.1609  92.9242  36.4084   C.3       1 RES1   0.0000
    20 O20     39.6441  93.7996  37.4410   O.3       1 RES1   0.0000
    21 C21     38.2741  91.8433  37.0535   C.3       1 RES1   0.0000
    22 O22     37.9088  90.8395  36.1164   O.3       1 RES1   0.0000
    23 C23     36.9721  92.4162  37.6167   C.3       1 RES1   0.0000
    24 O24     36.0523  91.3664  37.9398   O.3       1 RES1   0.0000
    25 C25     37.2385  93.3084  38.8454   C.3       1 RES1   0.0000
    26 O26     37.9509  92.4967  39.8074   O.3       1 RES1   0.0000
@<TRIPOS>BOND
     1     1     2    2
     2     2     3    2
     3     2     4    1
     4     2     5    1
     5     6     5    1
     6     6     7    1
     7     7     8    1
     8     7     9    1
     9    10     9    1
    10    10    11    1
    11    11    12    1
    12    12    13    1
    13    12    14    1
    14    14    15    1
    15    14    16    1
    16    16    17    1
    17    17    18    1
    18     6    19    1
    19    19    20    1
    20    19    21    1
    21    21    22    1
    22    21    23    1
    23    23    24    1
    24    23    25    1
    25    25    26    1
    26    16    10    1
@<TRIPOS>SUBSTRUCTURE
     1 RES1        1 GROUP             0 ****  ****    0  
@<TRIPOS>MOLECULE
ligand_40
    26    26     1     0     0
SMALL
USER_CHARGES
****
Generated from the CSD

@<TRIPOS>ATOM
     1 O1      43.6578  89.0614  36.4262   O.2       1 RES1   0.0000
     2 S2      42.2600  88.6455  36.1484   S.o2      1 RES1   0.0000
     3 O3      41.3837  88.7950  37.3253   O.2       1 RES1   0.0000
     4 O4      42.3457  87.2324  35.7143   O.3       1 RES1  -1.0000
     5 O5      41.5608  89.5818  35.0164   O.3       1 RES1   0.0000
     6 C6      42.1162  89.7124  33.7180   C.3       1 RES1   0.0000
     7 C7      42.2811  91.2141  33.4114   C.3       1 RES1   0.0000
     8 O8      42.7290  91.3517  32.0606   O.3       1 RES1   0.0000
     9 C9      43.1809  91.9725  34.4071   C.3       1 RES1   0.0000
    10 S10     43.4624  93.6235  34.1704   S.3       1 RES1   1.0000
    11 C11     45.0934  93.7713  33.3767   C.3       1 RES1   0.0000
    12 C12     46.0274  94.2692  34.3510   C.3       1 RES1   0.0000
    13 O13     47.0112  95.2451  33.9212   O.3       1 RES1   0.0000
    14 C14     45.3765  94.8401  35.4804   C.3       1 RES1   0.0000
    15 O15     46.1980  94.7872  36.6475   O.3       1 RES1   0.0000
    16 C16     44.0785  94.1475  35.7622   C.3       1 RES1   0.0000
    17 C17     43.1578  95.0004  36.6271   C.3       1 RES1   0.0000
    18 O18     43.6679  95.2937  37.9390   O.3       1 RES1   0.0000
    19 C19     41.1012  89.0682  32.7559   C.3       1 RES1   0.0000
    20 O20     39.8264  89.6988  32.9627   O.3       1 RES1   0.0000
    21 C21     40.9223  87.5435  32.8762   C.3       1 RES1   0.0000
    22 O22     42.1508  86.8563  32.6814   O.3       1 RES1   0.0000
    23 C23     39.9377  86.9883  31.8454   C.3       1 RES1   0.0000
    24 O24     40.4532  87.1387  30.5172   O.3       1 RES1   0.0000
    25 C25     39.5952  85.5136  32.1362   C.3       1 RES1   0.0000
    26 O26     40.8197  84.7596  31.9815   O.3       1 RES1   0.0000
@<TRIPOS>BOND
     1     1     2    2
     2     2     3    2
     3     2     4    1
     4     2     5    1
     5     6     5    1
     6     6     7    1
     7     7     8    1
     8     7     9    1
     9    10     9    1
    10    10    11    1
    11    11    12    1
    12    12    13    1
    13    12    14    1
    14    14    15    1
    15    14    16    1
    16    16    17    1
    17    17    18    1
    18     6    19    1
    19    19    20    1
    20    19    21    1
    21    21    22    1
    22    21    23    1
    23    23    24    1
    24    23    25    1
    25    25    26    1
    26    16    10    1
@<TRIPOS>SUBSTRUCTURE
     1 RES1        1 GROUP             0 ****  ****    0  
@<TRIPOS>MOLECULE
ligand_41
    26    26     1     0     0
SMALL
USER_CHARGES
****
Generated from the CSD

@<TRIPOS>ATOM
     1 O1      41.7236  89.6136  36.2632   O.2       1 RES1   0.0000
     2 S2      41.1654  90.5266  37.2923   S.o2      1 RES1   0.0000
     3 O3      42.0099  90.5977  38.4994   O.2       1 RES1   0.0000
     4 O4      39.8190  89.9956  37.6049   O.3       1 RES1  -1.0000
     5 O5      41.0991  92.0653  36.7679   O.3       1 RES1   0.0000
     6 C6      40.3720  92.4193  35.6028   C.3       1 RES1   0.0000
     7 C7      41.0989  93.5932  34.9174   C.3       1 RES1   0.0000
     8 O8      40.3087  94.0260  33.8072   O.3       1 RES1   0.0000
     9 C9      42.5570  93.2932  34.5169   C.3       1 RES1   0.0000
    10 S10     43.4596  94.4910  33.7351   S.3       1 RES1   1.0000
    11 C11     45.0958  93.7745  33.3867   C.3       1 RES1   0.0000
    12 C12     46.0263  94.2750  34.3630   C.3       1 RES1   0.0000
    13 O13     47.0100  95.2516  33.9347   O.3       1 RES1   0.0000
    14 C14     45.3714  94.8466  35.4898   C.3       1 RES1   0.0000
    15 O15     45.1348  93.8777  36.5121   O.3       1 RES1   0.0000
    16 C16     44.0688  95.4729  35.0963   C.3       1 RES1   0.0000
    17 C17     44.2068  96.9745  34.8745   C.3       1 RES1   0.0000
    18 O18     42.9770  97.6512  34.5637   O.3       1 RES1   0.0000
    19 C19     38.9765  92.8518  36.0889   C.3       1 RES1   0.0000
    20 O20     38.1000  92.8951  34.9507   O.3       1 RES1   0.0000
    21 C21     38.9000  94.2038  36.8219   C.3       1 RES1   0.0000
    22 O22     39.7401  94.2253  37.9677   O.3       1 RES1   0.0000
    23 C23     37.4849  94.5259  37.3060   C.3       1 RES1   0.0000
    24 O24     37.0700  93.5994  38.3170   O.3       1 RES1   0.0000
    25 C25     37.3852  95.9764  37.8184   C.3       1 RES1   0.0000
    26 O26     38.2513  96.0747  38.9725   O.3       1 RES1   0.0000
@<TRIPOS>BOND
     1     1     2    2
     2     2     3    2
     3     2     4    1
     4     2     5    1
     5     6     5    1
     6     6     7    1
     7     7     8    1
     8     7     9    1
     9    10     9    1
    10    10    11    1
    11    11    12    1
    12    12    13    1
    13    12    14    1
    14    14    15    1
    15    14    16    1
    16    16    17    1
    17    17    18    1
    18     6    19    1
    19    19    20    1
    20    19    21    1
    21    21    22    1
    22    21    23    1
    23    23    24    1
    24    23    25    1
    25    25    26    1
    26    16    10    1
@<TRIPOS>SUBSTRUCTURE
     1 RES1        1 GROUP             0 ****  ****    0  
@<TRIPOS>MOLECULE
ligand_42
    26    26     1     0     0
SMALL
USER_CHARGES
****
Generated from the CSD

@<TRIPOS>ATOM
     1 O1      45.7719  89.4136  37.0206   O.2       1 RES1   0.0000
     2 S2      44.4682  88.7142  36.8968   S.o2      1 RES1   0.0000
     3 O3      43.6616  88.8046  38.1283   O.2       1 RES1   0.0000
     4 O4      44.8017  87.3088  36.5709   O.3       1 RES1  -1.0000
     5 O5      43.5226  89.3884  35.7573   O.3       1 RES1   0.0000
     6 C6      43.9516  89.4987  34.4101   C.3       1 RES1   0.0000
     7 C7      44.3201  90.9708  34.1389   C.3       1 RES1   0.0000
     8 O8      45.4565  91.3057  34.9392   O.3       1 RES1   0.0000
     9 C9      43.1566  91.9641  34.3289   C.3       1 RES1   0.0000
    10 S10     43.4389  93.6164  34.1027   S.3       1 RES1   1.0000
    11 C11     45.0963  93.7718  33.3674   C.3       1 RES1   0.0000
    12 C12     45.9929  94.2735  34.3743   C.3       1 RES1   0.0000
    13 O13     46.9870  95.2540  33.9799   O.3       1 RES1   0.0000
    14 C14     45.2998  94.8411  35.4801   C.3       1 RES1   0.0000
    15 O15     46.0797  94.7914  36.6755   O.3       1 RES1   0.0000
    16 C16     43.9958  94.1426  35.7155   C.3       1 RES1   0.0000
    17 C17     43.0413  94.9909  36.5474   C.3       1 RES1   0.0000
    18 O18     43.5031  95.2860  37.8766   O.3       1 RES1   0.0000
    19 C19     42.7514  89.0695  33.5464   C.3       1 RES1   0.0000
    20 O20     42.2959  87.7904  34.0176   O.3       1 RES1   0.0000
    21 C21     43.0031  88.9753  32.0302   C.3       1 RES1   0.0000
    22 O22     43.5107  90.1955  31.5080   O.3       1 RES1   0.0000
    23 C23     41.7290  88.6555  31.2459   C.3       1 RES1   0.0000
    24 O24     41.9149  88.9098  29.8483   O.3       1 RES1   0.0000
    25 C25     41.2764  87.2009  31.4824   C.3       1 RES1   0.0000
    26 O26     42.3863  86.3503  31.1130   O.3       1 RES1   0.0000
@<TRIPOS>BOND
     1     1     2    2
     2     2     3    2
     3     2     4    1
     4     2     5    1
     5     6     5    1
     6     6     7    1
     7     7     8    1
     8     7     9    1
     9    10     9    1
    10    10    11    1
    11    11    12    1
    12    12    13    1
    13    12    14    1
    14    14    15    1
    15    14    16    1
    16    16    17    1
    17    17    18    1
    18     6    19    1
    19    19    20    1
    20    19    21    1
    21    21    22    1
    22    21    23    1
    23    23    24    1
    24    23    25    1
    25    25    26    1
    26    16    10    1
@<TRIPOS>SUBSTRUCTURE
     1 RES1        1 GROUP             0 ****  ****    0  
@<TRIPOS>MOLECULE
ligand_43
    26    26     1     0     0
SMALL
USER_CHARGES
****
Generated from the CSD

@<TRIPOS>ATOM
     1 O1      44.6838  89.5859  35.2957   O.2       1 RES1   0.0000
     2 S2      43.5896  88.8306  35.9562   S.o2      1 RES1   0.0000
     3 O3      43.7948  88.6988  37.4108   O.2       1 RES1   0.0000
     4 O4      43.5639  87.5075  35.2919   O.3       1 RES1  -1.0000
     5 O5      42.1597  89.5962  35.8289   O.3       1 RES1   0.0000
     6 C6      41.6043  89.9210  34.5650   C.3       1 RES1   0.0000
     7 C7      41.7331  91.4430  34.3571   C.3       1 RES1   0.0000
     8 O8      41.0694  91.7892  33.1389   O.3       1 RES1   0.0000
     9 C9      43.1800  91.9727  34.4068   C.3       1 RES1   0.0000
    10 S10     43.4616  93.6233  34.1678   S.3       1 RES1   1.0000
    11 C11     45.0939  93.7700  33.3766   C.3       1 RES1   0.0000
    12 C12     46.0262  94.2697  34.3515   C.3       1 RES1   0.0000
    13 O13     47.0105  95.2450  33.9217   O.3       1 RES1   0.0000
    14 C14     45.3733  94.8424  35.4789   C.3       1 RES1   0.0000
    15 O15     46.1930  94.7916  36.6474   O.3       1 RES1   0.0000
    16 C16     44.0750  94.1501  35.7597   C.3       1 RES1   0.0000
    17 C17     43.1528  95.0042  36.6217   C.3       1 RES1   0.0000
    18 O18     43.6606  95.2998  37.9339   O.3       1 RES1   0.0000
    19 C19     40.1237  89.5038  34.6325   C.3       1 RES1   0.0000
    20 O20     39.5276  90.1524  35.7681   O.3       1 RES1   0.0000
    21 C21     39.8463  87.9921  34.7263   C.3       1 RES1   0.0000
    22 O22     40.4112  87.2881  33.6287   O.3       1 RES1   0.0000
    23 C23     38.3501  87.6727  34.7326   C.3       1 RES1   0.0000
    24 O24     37.7498  88.0239  33.4801   O.3       1 RES1   0.0000
    25 C25     38.0960  86.1888  35.0647   C.3       1 RES1   0.0000
    26 O26     38.6762  85.4127  33.9910   O.3       1 RES1   0.0000
@<TRIPOS>BOND
     1     1     2    2
     2     2     3    2
     3     2     4    1
     4     2     5    1
     5     6     5    1
     6     6     7    1
     7     7     8    1
     8     7     9    1
     9    10     9    1
    10    10    11    1
    11    11    12    1
    12    12    13    1
    13    12    14    1
    14    14    15    1
    15    14    16    1
    16    16    17    1
    17    17    18    1
    18     6    19    1
    19    19    20    1
    20    19    21    1
    21    21    22    1
    22    21    23    1
    23    23    24    1
    24    23    25    1
    25    25    26    1
    26    16    10    1
@<TRIPOS>SUBSTRUCTURE
     1 RES1        1 GROUP             0 ****  ****    0  
@<TRIPOS>MOLECULE
ligand_44
    26    26     1     0     0
SMALL
USER_CHARGES
****
Generated from the CSD

@<TRIPOS>ATOM
     1 O1      39.8078  88.4167  33.6921   O.2       1 RES1   0.0000
     2 S2      41.1937  87.9768  33.9922   S.o2      1 RES1   0.0000
     3 O3      41.8667  87.3945  32.8160   O.2       1 RES1   0.0000
     4 O4      41.0674  86.9881  35.0873   O.3       1 RES1  -1.0000
     5 O5      42.1493  89.2241  34.4143   O.3       1 RES1   0.0000
     6 C6      41.8351  90.0561  35.5190   C.3       1 RES1   0.0000
     7 C7      41.8483  91.5212  35.0399   C.3       1 RES1   0.0000
     8 O8      40.7443  91.7152  34.1524   O.3       1 RES1   0.0000
     9 C9      43.1846  91.9771  34.4210   C.3       1 RES1   0.0000
    10 S10     43.4374  93.6236  34.1278   S.3       1 RES1   1.0000
    11 C11     45.0800  93.7757  33.3593   C.3       1 RES1   0.0000
    12 C12     45.9850  94.3287  34.3312   C.3       1 RES1   0.0000
    13 O13     46.9570  95.3082  33.8834   O.3       1 RES1   0.0000
    14 C14     45.3012  94.9275  35.4263   C.3       1 RES1   0.0000
    15 O15     46.1012  94.9350  36.6095   O.3       1 RES1   0.0000
    16 C16     44.0122  94.2190  35.7099   C.3       1 RES1   0.0000
    17 C17     43.0583  95.0841  36.5252   C.3       1 RES1   0.0000
    18 O18     43.5371  95.4364  37.8344   O.3       1 RES1   0.0000
    19 C19     42.9424  89.8136  36.5610   C.3       1 RES1   0.0000
    20 O20     43.0027  88.4030  36.8295   O.3       1 RES1   0.0000
    21 C21     42.7954  90.5641  37.8975   C.3       1 RES1   0.0000
    22 O22     42.8673  91.9717  37.7170   O.3       1 RES1   0.0000
    23 C23     43.8895  90.1910  38.8997   C.3       1 RES1   0.0000
    24 O24     45.1729  90.6295  38.4381   O.3       1 RES1   0.0000
    25 C25     43.5858  90.7632  40.2986   C.3       1 RES1   0.0000
    26 O26     43.6189  92.2042  40.1794   O.3       1 RES1   0.0000
@<TRIPOS>BOND
     1     1     2    2
     2     2     3    2
     3     2     4    1
     4     2     5    1
     5     6     5    1
     6     6     7    1
     7     7     8    1
     8     7     9    1
     9    10     9    1
    10    10    11    1
    11    11    12    1
    12    12    13    1
    13    12    14    1
    14    14    15    1
    15    14    16    1
    16    16    17    1
    17    17    18    1
    18     6    19    1
    19    19    20    1
    20    19    21    1
    21    21    22    1
    22    21    23    1
    23    23    24    1
    24    23    25    1
    25    25    26    1
    26    16    10    1
@<TRIPOS>SUBSTRUCTURE
     1 RES1        1 GROUP             0 ****  ****    0  
@<TRIPOS>MOLECULE
ligand_45
    26    26     1     0     0
SMALL
USER_CHARGES
****
Generated from the CSD

@<TRIPOS>ATOM
     1 O1      44.5537  87.7860  36.6662   O.2       1 RES1   0.0000
     2 S2      43.4265  88.0518  35.7372   S.o2      1 RES1   0.0000
     3 O3      42.3042  87.1147  35.9310   O.2       1 RES1   0.0000
     4 O4      43.9986  87.9360  34.3764   O.3       1 RES1  -1.0000
     5 O5      42.7637  89.5162  35.9891   O.3       1 RES1   0.0000
     6 C6      41.6976  89.9940  35.1850   C.3       1 RES1   0.0000
     7 C7      41.8483  91.5212  35.0399   C.3       1 RES1   0.0000
     8 O8      40.7156  92.0199  34.3241   O.3       1 RES1   0.0000
     9 C9      43.1825  91.9731  34.4135   C.3       1 RES1   0.0000
    10 S10     43.4642  93.6241  34.1774   S.3       1 RES1   1.0000
    11 C11     45.0994  93.7724  33.3924   C.3       1 RES1   0.0000
    12 C12     46.0278  94.2715  34.3714   C.3       1 RES1   0.0000
    13 O13     47.0133  95.2477  33.9463   O.3       1 RES1   0.0000
    14 C14     45.3706  94.8426  35.4970   C.3       1 RES1   0.0000
    15 O15     46.1860  94.7908  36.6684   O.3       1 RES1   0.0000
    16 C16     44.0715  94.1493  35.7722   C.3       1 RES1   0.0000
    17 C17     43.1458  95.0021  36.6318   C.3       1 RES1   0.0000
    18 O18     41.9080  94.3667  36.9940   O.3       1 RES1   0.0000
    19 C19     40.4044  89.6439  35.9438   C.3       1 RES1   0.0000
    20 O20     39.2992  89.7947  35.0374   O.3       1 RES1   0.0000
    21 C21     40.1164  90.4661  37.2135   C.3       1 RES1   0.0000
    22 O22     41.1723  90.3559  38.1580   O.3       1 RES1   0.0000
    23 C23     38.8393  90.0141  37.9243   C.3       1 RES1   0.0000
    24 O24     38.9865  88.6849  38.4382   O.3       1 RES1   0.0000
    25 C25     38.4465  90.9949  39.0469   C.3       1 RES1   0.0000
    26 O26     39.5080  90.9566  40.0286   O.3       1 RES1   0.0000
@<TRIPOS>BOND
     1     1     2    2
     2     2     3    2
     3     2     4    1
     4     2     5    1
     5     6     5    1
     6     6     7    1
     7     7     8    1
     8     7     9    1
     9    10     9    1
    10    10    11    1
    11    11    12    1
    12    12    13    1
    13    12    14    1
    14    14    15    1
    15    14    16    1
    16    16    17    1
    17    17    18    1
    18     6    19    1
    19    19    20    1
    20    19    21    1
    21    21    22    1
    22    21    23    1
    23    23    24    1
    24    23    25    1
    25    25    26    1
    26    16    10    1
@<TRIPOS>SUBSTRUCTURE
     1 RES1        1 GROUP             0 ****  ****    0  
@<TRIPOS>MOLECULE
ligand_46
    26    26     1     0     0
SMALL
USER_CHARGES
****
Generated from the CSD

@<TRIPOS>ATOM
     1 O1      41.5474  87.7191  32.4072   O.2       1 RES1   0.0000
     2 S2      40.9839  88.5325  33.5140   S.o2      1 RES1   0.0000
     3 O3      40.2231  87.7183  34.4802   O.2       1 RES1   0.0000
     4 O4      40.1214  89.5447  32.8627   O.3       1 RES1  -1.0000
     5 O5      42.1493  89.2241  34.4143   O.3       1 RES1   0.0000
     6 C6      41.8351  90.0561  35.5190   C.3       1 RES1   0.0000
     7 C7      41.8483  91.5212  35.0399   C.3       1 RES1   0.0000
     8 O8      40.7220  91.7255  34.1833   O.3       1 RES1   0.0000
     9 C9      43.1711  91.9652  34.3844   C.3       1 RES1   0.0000
    10 S10     43.4374  93.6111  34.0994   S.3       1 RES1   1.0000
    11 C11     45.0617  93.7495  33.2906   C.3       1 RES1   0.0000
    12 C12     45.9981  94.2822  34.2439   C.3       1 RES1   0.0000
    13 O13     46.9709  95.2535  33.7800   O.3       1 RES1   0.0000
    14 C14     45.3502  94.8795  35.3613   C.3       1 RES1   0.0000
    15 O15     46.1800  94.8661  36.5237   O.3       1 RES1   0.0000
    16 C16     44.0598  94.1847  35.6715   C.3       1 RES1   0.0000
    17 C17     43.1381  95.0541  36.5185   C.3       1 RES1   0.0000
    18 O18     43.6545  95.3884  37.8181   O.3       1 RES1   0.0000
    19 C19     42.9424  89.8136  36.5610   C.3       1 RES1   0.0000
    20 O20     42.9929  88.4047  36.8403   O.3       1 RES1   0.0000
    21 C21     42.8031  90.5754  37.8920   C.3       1 RES1   0.0000
    22 O22     42.8930  91.9807  37.7015   O.3       1 RES1   0.0000
    23 C23     43.8911  90.1957  38.8983   C.3       1 RES1   0.0000
    24 O24     45.1884  90.5453  38.4007   O.3       1 RES1   0.0000
    25 C25     43.6366  90.8496  40.2710   C.3       1 RES1   0.0000
    26 O26     44.6020  90.2873  41.1895   O.3       1 RES1   0.0000
@<TRIPOS>BOND
     1     1     2    2
     2     2     3    2
     3     2     4    1
     4     2     5    1
     5     6     5    1
     6     6     7    1
     7     7     8    1
     8     7     9    1
     9    10     9    1
    10    10    11    1
    11    11    12    1
    12    12    13    1
    13    12    14    1
    14    14    15    1
    15    14    16    1
    16    16    17    1
    17    17    18    1
    18     6    19    1
    19    19    20    1
    20    19    21    1
    21    21    22    1
    22    21    23    1
    23    23    24    1
    24    23    25    1
    25    25    26    1
    26    16    10    1
@<TRIPOS>SUBSTRUCTURE
     1 RES1        1 GROUP             0 ****  ****    0  
@<TRIPOS>MOLECULE
ligand_47
    26    26     1     0     0
SMALL
USER_CHARGES
****
Generated from the CSD

@<TRIPOS>ATOM
     1 O1      39.8412  96.8204  34.0066   O.2       1 RES1   0.0000
     2 S2      39.8467  96.0977  32.7097   S.o2      1 RES1   0.0000
     3 O3      40.6265  96.8031  31.6755   O.2       1 RES1   0.0000
     4 O4      38.4237  95.9702  32.3208   O.3       1 RES1  -1.0000
     5 O5      40.5715  94.6457  32.8262   O.3       1 RES1   0.0000
     6 C6      40.1112  93.6598  33.7358   C.3       1 RES1   0.0000
     7 C7      41.0989  93.5932  34.9174   C.3       1 RES1   0.0000
     8 O8      41.0284  94.8285  35.6338   O.3       1 RES1   0.0000
     9 C9      42.5430  93.2276  34.5208   C.3       1 RES1   0.0000
    10 S10     43.4743  94.3551  33.6708   S.3       1 RES1   1.0000
    11 C11     45.0841  93.5708  33.3461   C.3       1 RES1   0.0000
    12 C12     46.0392  94.0913  34.2876   C.3       1 RES1   0.0000
    13 O13     47.0483  95.0135  33.8014   O.3       1 RES1   0.0000
    14 C14     45.4135  94.7399  35.3889   C.3       1 RES1   0.0000
    15 O15     45.1573  93.8325  36.4616   O.3       1 RES1   0.0000
    16 C16     44.1269  95.3858  34.9746   C.3       1 RES1   0.0000
    17 C17     44.3090  96.8690  34.6747   C.3       1 RES1   0.0000
    18 O18     43.0975  97.5671  34.3397   O.3       1 RES1   0.0000
    19 C19     40.1052  92.3326  32.9553   C.3       1 RES1   0.0000
    20 O20     39.2898  92.5059  31.7844   O.3       1 RES1   0.0000
    21 C21     39.6085  91.0937  33.7230   C.3       1 RES1   0.0000
    22 O22     40.4571  90.7838  34.8199   O.3       1 RES1   0.0000
    23 C23     39.5524  89.8446  32.8416   C.3       1 RES1   0.0000
    24 O24     40.8598  89.4946  32.3717   O.3       1 RES1   0.0000
    25 C25     38.9038  88.6617  33.5877   C.3       1 RES1   0.0000
    26 O26     38.7302  87.5998  32.6212   O.3       1 RES1   0.0000
@<TRIPOS>BOND
     1     1     2    2
     2     2     3    2
     3     2     4    1
     4     2     5    1
     5     6     5    1
     6     6     7    1
     7     7     8    1
     8     7     9    1
     9    10     9    1
    10    10    11    1
    11    11    12    1
    12    12    13    1
    13    12    14    1
    14    14    15    1
    15    14    16    1
    16    16    17    1
    17    17    18    1
    18     6    19    1
    19    19    20    1
    20    19    21    1
    21    21    22    1
    22    21    23    1
    23    23    24    1
    24    23    25    1
    25    25    26    1
    26    16    10    1
@<TRIPOS>SUBSTRUCTURE
     1 RES1        1 GROUP             0 ****  ****    0  
@<TRIPOS>MOLECULE
ligand_48
    26    26     1     0     0
SMALL
USER_CHARGES
****
Generated from the CSD

@<TRIPOS>ATOM
     1 O1      44.6836  89.5830  35.2948   O.2       1 RES1   0.0000
     2 S2      43.5889  88.8292  35.9562   S.o2      1 RES1   0.0000
     3 O3      43.7944  88.6981  37.4108   O.2       1 RES1   0.0000
     4 O4      43.5616  87.5058  35.2926   O.3       1 RES1  -1.0000
     5 O5      42.1597  89.5962  35.8289   O.3       1 RES1   0.0000
     6 C6      41.6043  89.9210  34.5650   C.3       1 RES1   0.0000
     7 C7      41.7331  91.4430  34.3571   C.3       1 RES1   0.0000
     8 O8      41.0682  91.7894  33.1396   O.3       1 RES1   0.0000
     9 C9      43.1801  91.9725  34.4054   C.3       1 RES1   0.0000
    10 S10     43.4617  93.6230  34.1660   S.3       1 RES1   1.0000
    11 C11     45.0932  93.7695  33.3733   C.3       1 RES1   0.0000
    12 C12     46.0266  94.2691  34.3473   C.3       1 RES1   0.0000
    13 O13     47.0106  95.2443  33.9165   O.3       1 RES1   0.0000
    14 C14     45.3749  94.8419  35.4753   C.3       1 RES1   0.0000
    15 O15     46.1957  94.7910  36.6430   O.3       1 RES1   0.0000
    16 C16     44.0767  94.1498  35.7574   C.3       1 RES1   0.0000
    17 C17     43.1555  95.0041  36.6203   C.3       1 RES1   0.0000
    18 O18     41.9190  94.3698  36.9889   O.3       1 RES1   0.0000
    19 C19     40.1237  89.5038  34.6325   C.3       1 RES1   0.0000
    20 O20     39.5278  90.1517  35.7686   O.3       1 RES1   0.0000
    21 C21     39.8462  87.9920  34.7254   C.3       1 RES1   0.0000
    22 O22     40.5600  87.2678  33.7328   O.3       1 RES1   0.0000
    23 C23     38.3653  87.6578  34.5363   C.3       1 RES1   0.0000
    24 O24     38.1823  86.2501  34.3429   O.3       1 RES1   0.0000
    25 C25     37.5217  88.1616  35.7242   C.3       1 RES1   0.0000
    26 O26     38.0804  87.5668  36.9183   O.3       1 RES1   0.0000
@<TRIPOS>BOND
     1     1     2    2
     2     2     3    2
     3     2     4    1
     4     2     5    1
     5     6     5    1
     6     6     7    1
     7     7     8    1
     8     7     9    1
     9    10     9    1
    10    10    11    1
    11    11    12    1
    12    12    13    1
    13    12    14    1
    14    14    15    1
    15    14    16    1
    16    16    17    1
    17    17    18    1
    18     6    19    1
    19    19    20    1
    20    19    21    1
    21    21    22    1
    22    21    23    1
    23    23    24    1
    24    23    25    1
    25    25    26    1
    26    16    10    1
@<TRIPOS>SUBSTRUCTURE
     1 RES1        1 GROUP             0 ****  ****    0  
@<TRIPOS>MOLECULE
ligand_49
    26    26     1     0     0
SMALL
USER_CHARGES
****
Generated from the CSD

@<TRIPOS>ATOM
     1 O1      42.3946  89.0455  33.0857   O.2       1 RES1   0.0000
     2 S2      42.0045  89.0293  34.5180   S.o2      1 RES1   0.0000
     3 O3      43.0672  88.4866  35.3849   O.2       1 RES1   0.0000
     4 O4      40.7775  88.2032  34.5854   O.3       1 RES1  -1.0000
     5 O5      41.7531  90.5291  35.0965   O.3       1 RES1   0.0000
     6 C6      40.7908  91.3942  34.5162   C.3       1 RES1   0.0000
     7 C7      41.5363  92.4694  33.7011   C.3       1 RES1   0.0000
     8 O8      42.1966  91.8281  32.6069   O.3       1 RES1   0.0000
     9 C9      42.4946  93.3471  34.5304   C.3       1 RES1   0.0000
    10 S10     43.4129  94.5318  33.7466   S.3       1 RES1   1.0000
    11 C11     45.0780  93.8367  33.5101   C.3       1 RES1   0.0000
    12 C12     45.9479  94.3951  34.5106   C.3       1 RES1   0.0000
    13 O13     46.9333  95.3745  34.0928   O.3       1 RES1   0.0000
    14 C14     45.2256  94.9970  35.5790   C.3       1 RES1   0.0000
    15 O15     44.9559  94.0647  36.6267   O.3       1 RES1   0.0000
    16 C16     43.9331  95.5796  35.0955   C.3       1 RES1   0.0000
    17 C17     44.0536  97.0737  34.8200   C.3       1 RES1   0.0000
    18 O18     42.8284  97.7115  34.4206   O.3       1 RES1   0.0000
    19 C19     40.0304  92.0327  35.6930   C.3       1 RES1   0.0000
    20 O20     39.5698  90.9774  36.5532   O.3       1 RES1   0.0000
    21 C21     38.8320  92.9265  35.3242   C.3       1 RES1   0.0000
    22 O22     39.2120  93.9705  34.4382   O.3       1 RES1   0.0000
    23 C23     38.2030  93.5939  36.5487   C.3       1 RES1   0.0000
    24 O24     37.3733  94.6946  36.1581   O.3       1 RES1   0.0000
    25 C25     37.4053  92.5789  37.3914   C.3       1 RES1   0.0000
    26 O26     36.9389  93.2824  38.5659   O.3       1 RES1   0.0000
@<TRIPOS>BOND
     1     1     2    2
     2     2     3    2
     3     2     4    1
     4     2     5    1
     5     6     5    1
     6     6     7    1
     7     7     8    1
     8     7     9    1
     9    10     9    1
    10    10    11    1
    11    11    12    1
    12    12    13    1
    13    12    14    1
    14    14    15    1
    15    14    16    1
    16    16    17    1
    17    17    18    1
    18     6    19    1
    19    19    20    1
    20    19    21    1
    21    21    22    1
    22    21    23    1
    23    23    24    1
    24    23    25    1
    25    25    26    1
    26    16    10    1
@<TRIPOS>SUBSTRUCTURE
     1 RES1        1 GROUP             0 ****  ****    0  
@<TRIPOS>MOLECULE
ligand_50
    26    26     1     0     0
SMALL
USER_CHARGES
****
Generated from the CSD

@<TRIPOS>ATOM
     1 O1      42.4865  90.5234  36.7688   O.2       1 RES1   0.0000
     2 S2      41.1924  91.0048  37.3143   S.o2      1 RES1   0.0000
     3 O3      41.3261  91.5597  38.6742   O.2       1 RES1   0.0000
     4 O4      40.2926  89.8290  37.2964   O.3       1 RES1  -1.0000
     5 O5      40.5875  92.2392  36.4439   O.3       1 RES1   0.0000
     6 C6      40.3173  92.1049  35.0582   C.3       1 RES1   0.0000
     7 C7      41.0278  93.2525  34.3136   C.3       1 RES1   0.0000
     8 O8      40.6645  93.1865  32.9323   O.3       1 RES1   0.0000
     9 C9      42.5555  93.2938  34.5161   C.3       1 RES1   0.0000
    10 S10     43.4580  94.4918  33.7342   S.3       1 RES1   1.0000
    11 C11     45.0939  93.7751  33.3851   C.3       1 RES1   0.0000
    12 C12     46.0248  94.2753  34.3611   C.3       1 RES1   0.0000
    13 O13     47.0085  95.2520  33.9328   O.3       1 RES1   0.0000
    14 C14     45.3704  94.8467  35.4883   C.3       1 RES1   0.0000
    15 O15     45.1341  93.8776  36.5105   O.3       1 RES1   0.0000
    16 C16     44.0677  95.4732  35.0954   C.3       1 RES1   0.0000
    17 C17     44.2058  96.9749  34.8740   C.3       1 RES1   0.0000
    18 O18     42.9759  97.6518  34.5637   O.3       1 RES1   0.0000
    19 C19     38.7892  92.2236  34.9107   C.3       1 RES1   0.0000
    20 O20     38.3760  93.4595  35.5170   O.3       1 RES1   0.0000
    21 C21     37.9563  91.0767  35.5123   C.3       1 RES1   0.0000
    22 O22     38.4361  89.8067  35.0926   O.3       1 RES1   0.0000
    23 C23     36.4835  91.1490  35.1046   C.3       1 RES1   0.0000
    24 O24     35.8030  89.9334  35.4390   O.3       1 RES1   0.0000
    25 C25     35.7838  92.3630  35.7473   C.3       1 RES1   0.0000
    26 O26     35.9618  92.2419  37.1775   O.3       1 RES1   0.0000
@<TRIPOS>BOND
     1     1     2    2
     2     2     3    2
     3     2     4    1
     4     2     5    1
     5     6     5    1
     6     6     7    1
     7     7     8    1
     8     7     9    1
     9    10     9    1
    10    10    11    1
    11    11    12    1
    12    12    13    1
    13    12    14    1
    14    14    15    1
    15    14    16    1
    16    16    17    1
    17    17    18    1
    18     6    19    1
    19    19    20    1
    20    19    21    1
    21    21    22    1
    22    21    23    1
    23    23    24    1
    24    23    25    1
    25    25    26    1
    26    16    10    1
@<TRIPOS>SUBSTRUCTURE
     1 RES1        1 GROUP             0 ****  ****    0  
@<TRIPOS>MOLECULE
ligand_51
    26    26     1     0     0
SMALL
USER_CHARGES
****
Generated from the CSD

@<TRIPOS>ATOM
     1 O1      39.1892  91.4086  32.8254   O.2       1 RES1   0.0000
     2 S2      39.6348  90.5032  33.9143   S.o2      1 RES1   0.0000
     3 O3      40.3649  89.3271  33.4052   O.2       1 RES1   0.0000
     4 O4      38.4006  90.1055  34.6291   O.3       1 RES1  -1.0000
     5 O5      40.7000  91.2268  34.9087   O.3       1 RES1   0.0000
     6 C6      40.3720  92.4193  35.6028   C.3       1 RES1   0.0000
     7 C7      41.0989  93.5932  34.9174   C.3       1 RES1   0.0000
     8 O8      40.2625  94.0914  33.8703   O.3       1 RES1   0.0000
     9 C9      42.5208  93.2609  34.4233   C.3       1 RES1   0.0000
    10 S10     43.3966  94.4381  33.5819   S.3       1 RES1   1.0000
    11 C11     44.9904  93.6855  33.1289   C.3       1 RES1   0.0000
    12 C12     45.9934  94.1659  34.0414   C.3       1 RES1   0.0000
    13 O13     46.9683  95.1204  33.5480   O.3       1 RES1   0.0000
    14 C14     45.4261  94.7524  35.2074   C.3       1 RES1   0.0000
    15 O15     45.2356  93.7895  36.2448   O.3       1 RES1   0.0000
    16 C16     44.1147  95.4071  34.8985   C.3       1 RES1   0.0000
    17 C17     44.2709  96.9051  34.6652   C.3       1 RES1   0.0000
    18 O18     43.0386  97.6086  34.4339   O.3       1 RES1   0.0000
    19 C19     40.8846  92.2269  37.0419   C.3       1 RES1   0.0000
    20 O20     42.2543  91.7965  36.9751   O.3       1 RES1   0.0000
    21 C21     40.0980  91.2341  37.9176   C.3       1 RES1   0.0000
    22 O22     38.7299  91.6030  38.0256   O.3       1 RES1   0.0000
    23 C23     40.6468  91.1516  39.3432   C.3       1 RES1   0.0000
    24 O24     40.5263  92.4147  40.0085   O.3       1 RES1   0.0000
    25 C25     39.9467  90.0393  40.1490   C.3       1 RES1   0.0000
    26 O26     40.6556  89.9199  41.4039   O.3       1 RES1   0.0000
@<TRIPOS>BOND
     1     1     2    2
     2     2     3    2
     3     2     4    1
     4     2     5    1
     5     6     5    1
     6     6     7    1
     7     7     8    1
     8     7     9    1
     9    10     9    1
    10    10    11    1
    11    11    12    1
    12    12    13    1
    13    12    14    1
    14    14    15    1
    15    14    16    1
    16    16    17    1
    17    17    18    1
    18     6    19    1
    19    19    20    1
    20    19    21    1
    21    21    22    1
    22    21    23    1
    23    23    24    1
    24    23    25    1
    25    25    26    1
    26    16    10    1
@<TRIPOS>SUBSTRUCTURE
     1 RES1        1 GROUP             0 ****  ****    0  
@<TRIPOS>MOLECULE
ligand_52
    26    26     1     0     0
SMALL
USER_CHARGES
****
Generated from the CSD

@<TRIPOS>ATOM
     1 O1      43.0142  90.6525  35.7719   O.2       1 RES1   0.0000
     2 S2      41.9803  90.6993  36.8363   S.o2      1 RES1   0.0000
     3 O3      42.5661  90.7206  38.1897   O.2       1 RES1   0.0000
     4 O4      41.1428  89.4960  36.6286   O.3       1 RES1  -1.0000
     5 O5      41.0991  92.0653  36.7679   O.3       1 RES1   0.0000
     6 C6      40.3720  92.4193  35.6028   C.3       1 RES1   0.0000
     7 C7      41.0989  93.5932  34.9174   C.3       1 RES1   0.0000
     8 O8      40.3162  94.0160  33.7981   O.3       1 RES1   0.0000
     9 C9      42.5619  93.2985  34.5313   C.3       1 RES1   0.0000
    10 S10     43.4653  94.4967  33.7509   S.3       1 RES1   1.0000
    11 C11     45.1081  93.7867  33.4206   C.3       1 RES1   0.0000
    12 C12     46.0275  94.2972  34.4022   C.3       1 RES1   0.0000
    13 O13     47.0099  95.2765  33.9773   O.3       1 RES1   0.0000
    14 C14     45.3598  94.8714  35.5202   C.3       1 RES1   0.0000
    15 O15     45.1193  93.9068  36.5456   O.3       1 RES1   0.0000
    16 C16     44.0576  95.4890  35.1120   C.3       1 RES1   0.0000
    17 C17     44.1900  96.9900  34.8834   C.3       1 RES1   0.0000
    18 O18     42.9594  97.6588  34.5582   O.3       1 RES1   0.0000
    19 C19     38.9765  92.8518  36.0889   C.3       1 RES1   0.0000
    20 O20     38.1063  92.9195  34.9471   O.3       1 RES1   0.0000
    21 C21     38.9040  94.1917  36.8442   C.3       1 RES1   0.0000
    22 O22     39.8401  94.2408  37.9122   O.3       1 RES1   0.0000
    23 C23     37.5240  94.4434  37.4548   C.3       1 RES1   0.0000
    24 O24     37.5801  95.5008  38.4199   O.3       1 RES1   0.0000
    25 C25     36.4776  94.7513  36.3654   C.3       1 RES1   0.0000
    26 O26     35.2012  94.8801  37.0333   O.3       1 RES1   0.0000
@<TRIPOS>BOND
     1     1     2    2
     2     2     3    2
     3     2     4    1
     4     2     5    1
     5     6     5    1
     6     6     7    1
     7     7     8    1
     8     7     9    1
     9    10     9    1
    10    10    11    1
    11    11    12    1
    12    12    13    1
    13    12    14    1
    14    14    15    1
    15    14    16    1
    16    16    17    1
    17    17    18    1
    18     6    19    1
    19    19    20    1
    20    19    21    1
    21    21    22    1
    22    21    23    1
    23    23    24    1
    24    23    25    1
    25    25    26    1
    26    16    10    1
@<TRIPOS>SUBSTRUCTURE
     1 RES1        1 GROUP             0 ****  ****    0  
@<TRIPOS>MOLECULE
ligand_53
    26    26     1     0     0
SMALL
USER_CHARGES
****
Generated from the CSD

@<TRIPOS>ATOM
     1 O1      38.9978  89.9636  33.4987   O.2       1 RES1   0.0000
     2 S2      40.0328  88.9018  33.4239   S.o2      1 RES1   0.0000
     3 O3      40.2555  88.4288  32.0448   O.2       1 RES1   0.0000
     4 O4      39.5450  87.8104  34.2976   O.3       1 RES1  -1.0000
     5 O5      41.4934  89.4426  33.8945   O.3       1 RES1   0.0000
     6 C6      41.6976  89.9940  35.1850   C.3       1 RES1   0.0000
     7 C7      41.8483  91.5212  35.0399   C.3       1 RES1   0.0000
     8 O8      40.6946  92.0256  34.3628   O.3       1 RES1   0.0000
     9 C9      43.1629  91.9711  34.3721   C.3       1 RES1   0.0000
    10 S10     43.4305  93.6202  34.1083   S.3       1 RES1   1.0000
    11 C11     45.0429  93.7659  33.2772   C.3       1 RES1   0.0000
    12 C12     45.9954  94.2809  34.2243   C.3       1 RES1   0.0000
    13 O13     46.9645  95.2561  33.7607   O.3       1 RES1   0.0000
    14 C14     45.3664  94.8630  35.3605   C.3       1 RES1   0.0000
    15 O15     46.2136  94.8291  36.5098   O.3       1 RES1   0.0000
    16 C16     44.0785  94.1676  35.6794   C.3       1 RES1   0.0000
    17 C17     43.1726  95.0269  36.5535   C.3       1 RES1   0.0000
    18 O18     41.9480  94.3907  36.9570   O.3       1 RES1   0.0000
    19 C19     43.0003  89.3658  35.7133   C.3       1 RES1   0.0000
    20 O20     42.8733  87.9365  35.6304   O.3       1 RES1   0.0000
    21 C21     43.4033  89.7423  37.1509   C.3       1 RES1   0.0000
    22 O22     43.6129  91.1414  37.2853   O.3       1 RES1   0.0000
    23 C23     44.6983  89.0576  37.5923   C.3       1 RES1   0.0000
    24 O24     45.8108  89.5289  36.8224   O.3       1 RES1   0.0000
    25 C25     44.9515  89.2577  39.0998   C.3       1 RES1   0.0000
    26 O26     45.1454  90.6757  39.3085   O.3       1 RES1   0.0000
@<TRIPOS>BOND
     1     1     2    2
     2     2     3    2
     3     2     4    1
     4     2     5    1
     5     6     5    1
     6     6     7    1
     7     7     8    1
     8     7     9    1
     9    10     9    1
    10    10    11    1
    11    11    12    1
    12    12    13    1
    13    12    14    1
    14    14    15    1
    15    14    16    1
    16    16    17    1
    17    17    18    1
    18     6    19    1
    19    19    20    1
    20    19    21    1
    21    21    22    1
    22    21    23    1
    23    23    24    1
    24    23    25    1
    25    25    26    1
    26    16    10    1
@<TRIPOS>SUBSTRUCTURE
     1 RES1        1 GROUP             0 ****  ****    0  
@<TRIPOS>MOLECULE
ligand_54
    26    26     1     0     0
SMALL
USER_CHARGES
****
Generated from the CSD

@<TRIPOS>ATOM
     1 O1      42.3962  89.0468  33.0852   O.2       1 RES1   0.0000
     2 S2      42.0053  89.0297  34.5173   S.o2      1 RES1   0.0000
     3 O3      43.0678  88.4869  35.3844   O.2       1 RES1   0.0000
     4 O4      40.7785  88.2031  34.5836   O.3       1 RES1  -1.0000
     5 O5      41.7531  90.5291  35.0965   O.3       1 RES1   0.0000
     6 C6      40.7908  91.3942  34.5162   C.3       1 RES1   0.0000
     7 C7      41.5363  92.4694  33.7011   C.3       1 RES1   0.0000
     8 O8      42.1925  91.8288  32.6041   O.3       1 RES1   0.0000
     9 C9      42.4984  93.3437  34.5294   C.3       1 RES1   0.0000
    10 S10     43.4075  94.5366  33.7474   S.3       1 RES1   1.0000
    11 C11     45.0727  93.8479  33.4933   C.3       1 RES1   0.0000
    12 C12     45.9486  94.4015  34.4912   C.3       1 RES1   0.0000
    13 O13     46.9282  95.3867  34.0731   O.3       1 RES1   0.0000
    14 C14     45.2328  94.9936  35.5693   C.3       1 RES1   0.0000
    15 O15     44.9735  94.0530  36.6123   O.3       1 RES1   0.0000
    16 C16     43.9350  95.5760  35.0999   C.3       1 RES1   0.0000
    17 C17     44.0493  97.0725  34.8344   C.3       1 RES1   0.0000
    18 O18     44.3673  97.8652  35.9910   O.3       1 RES1   0.0000
    19 C19     40.0304  92.0327  35.6930   C.3       1 RES1   0.0000
    20 O20     39.5279  90.9756  36.5271   O.3       1 RES1   0.0000
    21 C21     38.8628  92.9658  35.3228   C.3       1 RES1   0.0000
    22 O22     39.3124  94.1037  34.5999   O.3       1 RES1   0.0000
    23 C23     38.1214  93.4898  36.5542   C.3       1 RES1   0.0000
    24 O24     38.9679  94.3449  37.3318   O.3       1 RES1   0.0000
    25 C25     36.8225  94.2191  36.1572   C.3       1 RES1   0.0000
    26 O26     37.2104  95.3719  35.3746   O.3       1 RES1   0.0000
@<TRIPOS>BOND
     1     1     2    2
     2     2     3    2
     3     2     4    1
     4     2     5    1
     5     6     5    1
     6     6     7    1
     7     7     8    1
     8     7     9    1
     9    10     9    1
    10    10    11    1
    11    11    12    1
    12    12    13    1
    13    12    14    1
    14    14    15    1
    15    14    16    1
    16    16    17    1
    17    17    18    1
    18     6    19    1
    19    19    20    1
    20    19    21    1
    21    21    22    1
    22    21    23    1
    23    23    24    1
    24    23    25    1
    25    25    26    1
    26    16    10    1
@<TRIPOS>SUBSTRUCTURE
     1 RES1        1 GROUP             0 ****  ****    0  
@<TRIPOS>MOLECULE
ligand_55
    26    26     1     0     0
SMALL
USER_CHARGES
****
Generated from the CSD

@<TRIPOS>ATOM
     1 O1      43.0131  90.6512  35.7716   O.2       1 RES1   0.0000
     2 S2      41.9797  90.6990  36.8365   S.o2      1 RES1   0.0000
     3 O3      42.5663  90.7208  38.1896   O.2       1 RES1   0.0000
     4 O4      41.1416  89.4959  36.6300   O.3       1 RES1  -1.0000
     5 O5      41.0991  92.0653  36.7679   O.3       1 RES1   0.0000
     6 C6      40.3720  92.4193  35.6028   C.3       1 RES1   0.0000
     7 C7      41.0989  93.5932  34.9174   C.3       1 RES1   0.0000
     8 O8      40.3061  94.0294  33.8104   O.3       1 RES1   0.0000
     9 C9      42.5553  93.2914  34.5121   C.3       1 RES1   0.0000
    10 S10     43.4570  94.4884  33.7278   S.3       1 RES1   1.0000
    11 C11     45.0911  93.7698  33.3738   C.3       1 RES1   0.0000
    12 C12     46.0254  94.2687  34.3472   C.3       1 RES1   0.0000
    13 O13     47.0090  95.2442  33.9162   O.3       1 RES1   0.0000
    14 C14     45.3749  94.8406  35.4764   C.3       1 RES1   0.0000
    15 O15     45.1404  93.8717  36.4991   O.3       1 RES1   0.0000
    16 C16     44.0719  95.4689  35.0874   C.3       1 RES1   0.0000
    17 C17     44.2112  96.9704  34.8658   C.3       1 RES1   0.0000
    18 O18     44.5940  97.7168  36.0335   O.3       1 RES1   0.0000
    19 C19     38.9765  92.8518  36.0889   C.3       1 RES1   0.0000
    20 O20     38.0987  92.8898  34.9516   O.3       1 RES1   0.0000
    21 C21     38.8991  94.2064  36.8170   C.3       1 RES1   0.0000
    22 O22     39.7441  94.2348  37.9591   O.3       1 RES1   0.0000
    23 C23     37.4851  94.5261  37.3059   C.3       1 RES1   0.0000
    24 O24     37.0776  93.6027  38.3227   O.3       1 RES1   0.0000
    25 C25     37.3831  95.9785  37.8125   C.3       1 RES1   0.0000
    26 O26     38.2567  96.0854  38.9602   O.3       1 RES1   0.0000
@<TRIPOS>BOND
     1     1     2    2
     2     2     3    2
     3     2     4    1
     4     2     5    1
     5     6     5    1
     6     6     7    1
     7     7     8    1
     8     7     9    1
     9    10     9    1
    10    10    11    1
    11    11    12    1
    12    12    13    1
    13    12    14    1
    14    14    15    1
    15    14    16    1
    16    16    17    1
    17    17    18    1
    18     6    19    1
    19    19    20    1
    20    19    21    1
    21    21    22    1
    22    21    23    1
    23    23    24    1
    24    23    25    1
    25    25    26    1
    26    16    10    1
@<TRIPOS>SUBSTRUCTURE
     1 RES1        1 GROUP             0 ****  ****    0  
@<TRIPOS>MOLECULE
ligand_56
    26    26     1     0     0
SMALL
USER_CHARGES
****
Generated from the CSD

@<TRIPOS>ATOM
     1 O1      43.9338  88.8970  31.2346   O.2       1 RES1   0.0000
     2 S2      43.9367  88.1792  32.5342   S.o2      1 RES1   0.0000
     3 O3      45.2937  87.7850  32.9566   O.2       1 RES1   0.0000
     4 O4      43.0674  86.9970  32.3360   O.3       1 RES1  -1.0000
     5 O5      43.4047  89.1208  33.7498   O.3       1 RES1   0.0000
     6 C6      42.1162  89.7124  33.7180   C.3       1 RES1   0.0000
     7 C7      42.2811  91.2141  33.4114   C.3       1 RES1   0.0000
     8 O8      42.8066  91.3489  32.0886   O.3       1 RES1   0.0000
     9 C9      43.1112  91.9896  34.4534   C.3       1 RES1   0.0000
    10 S10     43.4107  93.6362  34.2079   S.3       1 RES1   1.0000
    11 C11     45.0927  93.7697  33.5261   C.3       1 RES1   0.0000
    12 C12     45.9581  94.2844  34.5535   C.3       1 RES1   0.0000
    13 O13     46.9705  95.2524  34.1756   O.3       1 RES1   0.0000
    14 C14     45.2317  94.8751  35.6253   C.3       1 RES1   0.0000
    15 O15     45.9709  94.8424  36.8469   O.3       1 RES1   0.0000
    16 C16     43.9164  94.1878  35.8290   C.3       1 RES1   0.0000
    17 C17     42.9396  95.0558  36.6135   C.3       1 RES1   0.0000
    18 O18     41.6800  94.4277  36.9068   O.3       1 RES1   0.0000
    19 C19     41.5198  89.5054  35.1223   C.3       1 RES1   0.0000
    20 O20     41.6229  88.1100  35.4508   O.3       1 RES1   0.0000
    21 C21     40.0580  89.9500  35.3133   C.3       1 RES1   0.0000
    22 O22     39.8775  91.3157  34.9644   O.3       1 RES1   0.0000
    23 C23     39.5861  89.7981  36.7606   C.3       1 RES1   0.0000
    24 O24     38.3974  90.5639  36.9910   O.3       1 RES1   0.0000
    25 C25     39.3622  88.3167  37.1237   C.3       1 RES1   0.0000
    26 O26     39.0170  88.2758  38.5276   O.3       1 RES1   0.0000
@<TRIPOS>BOND
     1     1     2    2
     2     2     3    2
     3     2     4    1
     4     2     5    1
     5     6     5    1
     6     6     7    1
     7     7     8    1
     8     7     9    1
     9    10     9    1
    10    10    11    1
    11    11    12    1
    12    12    13    1
    13    12    14    1
    14    14    15    1
    15    14    16    1
    16    16    17    1
    17    17    18    1
    18     6    19    1
    19    19    20    1
    20    19    21    1
    21    21    22    1
    22    21    23    1
    23    23    24    1
    24    23    25    1
    25    25    26    1
    26    16    10    1
@<TRIPOS>SUBSTRUCTURE
     1 RES1        1 GROUP             0 ****  ****    0  
@<TRIPOS>MOLECULE
ligand_57
    26    26     1     0     0
SMALL
USER_CHARGES
****
Generated from the CSD

@<TRIPOS>ATOM
     1 O1      42.3277  92.4986  31.5677   O.2       1 RES1   0.0000
     2 S2      41.1497  91.5968  31.5113   S.o2      1 RES1   0.0000
     3 O3      41.3544  90.4599  30.5943   O.2       1 RES1   0.0000
     4 O4      40.0197  92.4477  31.0734   O.3       1 RES1  -1.0000
     5 O5      40.8528  90.8942  32.9484   O.3       1 RES1   0.0000
     6 C6      40.6230  91.6658  34.1159   C.3       1 RES1   0.0000
     7 C7      41.8483  91.5212  35.0399   C.3       1 RES1   0.0000
     8 O8      41.5825  92.2271  36.2546   O.3       1 RES1   0.0000
     9 C9      43.1844  91.9437  34.3973   C.3       1 RES1   0.0000
    10 S10     43.4715  93.5831  34.0958   S.3       1 RES1   1.0000
    11 C11     45.1077  93.6949  33.3071   C.3       1 RES1   0.0000
    12 C12     46.0369  94.2298  34.2662   C.3       1 RES1   0.0000
    13 O13     47.0258  95.1852  33.8035   O.3       1 RES1   0.0000
    14 C14     45.3805  94.8473  35.3676   C.3       1 RES1   0.0000
    15 O15     46.1948  94.8397  36.5409   O.3       1 RES1   0.0000
    16 C16     44.0791  94.1696  35.6690   C.3       1 RES1   0.0000
    17 C17     43.1554  95.0588  36.4931   C.3       1 RES1   0.0000
    18 O18     43.6581  95.4037  37.7952   O.3       1 RES1   0.0000
    19 C19     39.3677  91.0691  34.7783   C.3       1 RES1   0.0000
    20 O20     39.5959  89.6654  34.9858   O.3       1 RES1   0.0000
    21 C21     38.0443  91.2453  34.0110   C.3       1 RES1   0.0000
    22 O22     37.7576  92.6164  33.7718   O.3       1 RES1   0.0000
    23 C23     36.8478  90.6703  34.7715   C.3       1 RES1   0.0000
    24 O24     36.6556  91.3592  36.0129   O.3       1 RES1   0.0000
    25 C25     35.5663  90.7159  33.9158   C.3       1 RES1   0.0000
    26 O26     34.5492  89.9896  34.6436   O.3       1 RES1   0.0000
@<TRIPOS>BOND
     1     1     2    2
     2     2     3    2
     3     2     4    1
     4     2     5    1
     5     6     5    1
     6     6     7    1
     7     7     8    1
     8     7     9    1
     9    10     9    1
    10    10    11    1
    11    11    12    1
    12    12    13    1
    13    12    14    1
    14    14    15    1
    15    14    16    1
    16    16    17    1
    17    17    18    1
    18     6    19    1
    19    19    20    1
    20    19    21    1
    21    21    22    1
    22    21    23    1
    23    23    24    1
    24    23    25    1
    25    25    26    1
    26    16    10    1
@<TRIPOS>SUBSTRUCTURE
     1 RES1        1 GROUP             0 ****  ****    0  
@<TRIPOS>MOLECULE
ligand_58
    26    26     1     0     0
SMALL
USER_CHARGES
****
Generated from the CSD

@<TRIPOS>ATOM
     1 O1      42.2367  92.7009  31.5780   O.2       1 RES1   0.0000
     2 S2      40.8171  92.2666  31.5848   S.o2      1 RES1   0.0000
     3 O3      40.6649  90.8347  31.2654   O.2       1 RES1   0.0000
     4 O4      40.1369  93.1191  30.5833   O.3       1 RES1  -1.0000
     5 O5      40.1433  92.4143  33.0584   O.3       1 RES1   0.0000
     6 C6      40.1112  93.6598  33.7358   C.3       1 RES1   0.0000
     7 C7      41.0989  93.5932  34.9174   C.3       1 RES1   0.0000
     8 O8      41.0043  94.8154  35.6532   O.3       1 RES1   0.0000
     9 C9      42.5500  93.2614  34.5168   C.3       1 RES1   0.0000
    10 S10     43.4599  94.4189  33.6841   S.3       1 RES1   1.0000
    11 C11     45.0847  93.6708  33.3495   C.3       1 RES1   0.0000
    12 C12     46.0291  94.1959  34.2992   C.3       1 RES1   0.0000
    13 O13     47.0203  95.1444  33.8274   O.3       1 RES1   0.0000
    14 C14     45.3902  94.8163  35.4093   C.3       1 RES1   0.0000
    15 O15     45.1510  93.8886  36.4685   O.3       1 RES1   0.0000
    16 C16     44.0916  95.4430  35.0032   C.3       1 RES1   0.0000
    17 C17     44.2451  96.9337  34.7251   C.3       1 RES1   0.0000
    18 O18     43.0205  97.6130  34.3992   O.3       1 RES1   0.0000
    19 C19     38.6670  93.8301  34.2419   C.3       1 RES1   0.0000
    20 O20     38.3302  92.6762  35.0299   O.3       1 RES1   0.0000
    21 C21     37.5858  94.0226  33.1625   C.3       1 RES1   0.0000
    22 O22     37.9516  95.0311  32.2306   O.3       1 RES1   0.0000
    23 C23     36.2374  94.4369  33.7546   C.3       1 RES1   0.0000
    24 O24     35.3562  94.9118  32.7296   O.3       1 RES1   0.0000
    25 C25     35.5907  93.2779  34.5390   C.3       1 RES1   0.0000
    26 O26     34.3769  93.7965  35.1301   O.3       1 RES1   0.0000
@<TRIPOS>BOND
     1     1     2    2
     2     2     3    2
     3     2     4    1
     4     2     5    1
     5     6     5    1
     6     6     7    1
     7     7     8    1
     8     7     9    1
     9    10     9    1
    10    10    11    1
    11    11    12    1
    12    12    13    1
    13    12    14    1
    14    14    15    1
    15    14    16    1
    16    16    17    1
    17    17    18    1
    18     6    19    1
    19    19    20    1
    20    19    21    1
    21    21    22    1
    22    21    23    1
    23    23    24    1
    24    23    25    1
    25    25    26    1
    26    16    10    1
@<TRIPOS>SUBSTRUCTURE
     1 RES1        1 GROUP             0 ****  ****    0  
@<TRIPOS>MOLECULE
ligand_59
    26    26     1     0     0
SMALL
USER_CHARGES
****
Generated from the CSD

@<TRIPOS>ATOM
     1 O1      44.6994  89.4361  34.2853   O.2       1 RES1   0.0000
     2 S2      43.9982  88.6723  35.3479   S.o2      1 RES1   0.0000
     3 O3      44.8698  88.3836  36.5022   O.2       1 RES1   0.0000
     4 O4      43.5312  87.4264  34.6981   O.3       1 RES1  -1.0000
     5 O5      42.7637  89.5162  35.9891   O.3       1 RES1   0.0000
     6 C6      41.6976  89.9940  35.1850   C.3       1 RES1   0.0000
     7 C7      41.8483  91.5212  35.0399   C.3       1 RES1   0.0000
     8 O8      40.7221  92.0182  34.3128   O.3       1 RES1   0.0000
     9 C9      43.1880  91.9737  34.4260   C.3       1 RES1   0.0000
    10 S10     43.4706  93.6248  34.1911   S.3       1 RES1   1.0000
    11 C11     45.1131  93.7738  33.4217   C.3       1 RES1   0.0000
    12 C12     46.0316  94.2746  34.4091   C.3       1 RES1   0.0000
    13 O13     47.0203  95.2513  33.9926   O.3       1 RES1   0.0000
    14 C14     45.3631  94.8461  35.5278   C.3       1 RES1   0.0000
    15 O15     46.1672  94.7962  36.7071   O.3       1 RES1   0.0000
    16 C16     44.0620  94.1520  35.7912   C.3       1 RES1   0.0000
    17 C17     43.1273  95.0047  36.6411   C.3       1 RES1   0.0000
    18 O18     41.8866  94.3685  36.9919   O.3       1 RES1   0.0000
    19 C19     40.4044  89.6439  35.9438   C.3       1 RES1   0.0000
    20 O20     39.2970  89.8180  35.0443   O.3       1 RES1   0.0000
    21 C21     40.1287  90.4494  37.2268   C.3       1 RES1   0.0000
    22 O22     41.2438  90.4270  38.1075   O.3       1 RES1   0.0000
    23 C23     38.9345  89.9047  38.0127   C.3       1 RES1   0.0000
    24 O24     38.9137  90.4393  39.3417   O.3       1 RES1   0.0000
    25 C25     37.6066  90.1942  37.2851   C.3       1 RES1   0.0000
    26 O26     36.5586  89.5628  38.0563   O.3       1 RES1   0.0000
@<TRIPOS>BOND
     1     1     2    2
     2     2     3    2
     3     2     4    1
     4     2     5    1
     5     6     5    1
     6     6     7    1
     7     7     8    1
     8     7     9    1
     9    10     9    1
    10    10    11    1
    11    11    12    1
    12    12    13    1
    13    12    14    1
    14    14    15    1
    15    14    16    1
    16    16    17    1
    17    17    18    1
    18     6    19    1
    19    19    20    1
    20    19    21    1
    21    21    22    1
    22    21    23    1
    23    23    24    1
    24    23    25    1
    25    25    26    1
    26    16    10    1
@<TRIPOS>SUBSTRUCTURE
     1 RES1        1 GROUP             0 ****  ****    0  
@<TRIPOS>MOLECULE
ligand_60
    26    26     1     0     0
SMALL
USER_CHARGES
****
Generated from the CSD

@<TRIPOS>ATOM
     1 O1      41.1797  89.4251  35.9739   O.2       1 RES1   0.0000
     2 S2      41.4736  88.6068  34.7705   S.o2      1 RES1   0.0000
     3 O3      40.3267  88.5329  33.8461   O.2       1 RES1   0.0000
     4 O4      41.8426  87.2673  35.2823   O.3       1 RES1  -1.0000
     5 O5      42.6630  89.2559  33.8699   O.3       1 RES1   0.0000
     6 C6      43.9516  89.4987  34.4101   C.3       1 RES1   0.0000
     7 C7      44.3201  90.9708  34.1389   C.3       1 RES1   0.0000
     8 O8      45.5059  91.2814  34.8747   O.3       1 RES1   0.0000
     9 C9      43.1814  91.9733  34.4126   C.3       1 RES1   0.0000
    10 S10     43.4631  93.6243  34.1765   S.3       1 RES1   1.0000
    11 C11     45.0740  93.7698  33.3424   C.3       1 RES1   0.0000
    12 C12     46.0343  94.2597  34.2949   C.3       1 RES1   0.0000
    13 O13     47.0106  95.2340  33.8448   O.3       1 RES1   0.0000
    14 C14     45.4145  94.8276  35.4432   C.3       1 RES1   0.0000
    15 O15     46.2652  94.7661  36.5887   O.3       1 RES1   0.0000
    16 C16     44.1214  94.1384  35.7546   C.3       1 RES1   0.0000
    17 C17     43.2263  94.9905  36.6467   C.3       1 RES1   0.0000
    18 O18     41.9974  94.3584  37.0434   O.3       1 RES1   0.0000
    19 C19     44.9094  88.5512  33.6646   C.3       1 RES1   0.0000
    20 O20     44.7632  88.7863  32.2542   O.3       1 RES1   0.0000
    21 C21     44.7257  87.0466  33.9352   C.3       1 RES1   0.0000
    22 O22     44.6831  86.7676  35.3279   O.3       1 RES1   0.0000
    23 C23     45.8623  86.2055  33.3510   C.3       1 RES1   0.0000
    24 O24     45.8178  84.8669  33.8597   O.3       1 RES1   0.0000
    25 C25     45.8247  86.2071  31.8098   C.3       1 RES1   0.0000
    26 O26     44.5174  85.7259  31.4210   O.3       1 RES1   0.0000
@<TRIPOS>BOND
     1     1     2    2
     2     2     3    2
     3     2     4    1
     4     2     5    1
     5     6     5    1
     6     6     7    1
     7     7     8    1
     8     7     9    1
     9    10     9    1
    10    10    11    1
    11    11    12    1
    12    12    13    1
    13    12    14    1
    14    14    15    1
    15    14    16    1
    16    16    17    1
    17    17    18    1
    18     6    19    1
    19    19    20    1
    20    19    21    1
    21    21    22    1
    22    21    23    1
    23    23    24    1
    24    23    25    1
    25    25    26    1
    26    16    10    1
@<TRIPOS>SUBSTRUCTURE
     1 RES1        1 GROUP             0 ****  ****    0  
@<TRIPOS>MOLECULE
ligand_61
    26    26     1     0     0
SMALL
USER_CHARGES
****
Generated from the CSD

@<TRIPOS>ATOM
     1 O1      42.2375  92.7002  31.5790   O.2       1 RES1   0.0000
     2 S2      40.8177  92.2664  31.5851   S.o2      1 RES1   0.0000
     3 O3      40.6650  90.8347  31.2655   O.2       1 RES1   0.0000
     4 O4      40.1382  93.1193  30.5834   O.3       1 RES1  -1.0000
     5 O5      40.1433  92.4143  33.0584   O.3       1 RES1   0.0000
     6 C6      40.1112  93.6598  33.7358   C.3       1 RES1   0.0000
     7 C7      41.0989  93.5932  34.9174   C.3       1 RES1   0.0000
     8 O8      41.0064  94.8166  35.6516   O.3       1 RES1   0.0000
     9 C9      42.5495  93.2585  34.5171   C.3       1 RES1   0.0000
    10 S10     43.4614  94.4137  33.6835   S.3       1 RES1   1.0000
    11 C11     45.0849  93.6624  33.3496   C.3       1 RES1   0.0000
    12 C12     46.0301  94.1866  34.2989   C.3       1 RES1   0.0000
    13 O13     47.0232  95.1329  33.8264   O.3       1 RES1   0.0000
    14 C14     45.3923  94.8090  35.4085   C.3       1 RES1   0.0000
    15 O15     45.1515  93.8825  36.4684   O.3       1 RES1   0.0000
    16 C16     44.0949  95.4377  35.0019   C.3       1 RES1   0.0000
    17 C17     44.2511  96.9279  34.7225   C.3       1 RES1   0.0000
    18 O18     44.6605  97.7117  35.8562   O.3       1 RES1   0.0000
    19 C19     38.6670  93.8301  34.2419   C.3       1 RES1   0.0000
    20 O20     38.3299  92.6757  35.0289   O.3       1 RES1   0.0000
    21 C21     37.5860  94.0238  33.1626   C.3       1 RES1   0.0000
    22 O22     37.8599  95.1537  32.3455   O.3       1 RES1   0.0000
    23 C23     36.1950  94.2393  33.7619   C.3       1 RES1   0.0000
    24 O24     36.1377  95.4761  34.4826   O.3       1 RES1   0.0000
    25 C25     35.1030  94.1879  32.6748   C.3       1 RES1   0.0000
    26 O26     35.3497  95.2962  31.7789   O.3       1 RES1   0.0000
@<TRIPOS>BOND
     1     1     2    2
     2     2     3    2
     3     2     4    1
     4     2     5    1
     5     6     5    1
     6     6     7    1
     7     7     8    1
     8     7     9    1
     9    10     9    1
    10    10    11    1
    11    11    12    1
    12    12    13    1
    13    12    14    1
    14    14    15    1
    15    14    16    1
    16    16    17    1
    17    17    18    1
    18     6    19    1
    19    19    20    1
    20    19    21    1
    21    21    22    1
    22    21    23    1
    23    23    24    1
    24    23    25    1
    25    25    26    1
    26    16    10    1
@<TRIPOS>SUBSTRUCTURE
     1 RES1        1 GROUP             0 ****  ****    0  
@<TRIPOS>MOLECULE
ligand_62
    26    26     1     0     0
SMALL
USER_CHARGES
****
Generated from the CSD

@<TRIPOS>ATOM
     1 O1      41.0722  88.5139  35.3449   O.2       1 RES1   0.0000
     2 S2      41.7210  88.0915  34.0781   S.o2      1 RES1   0.0000
     3 O3      40.7712  88.0332  32.9513   O.2       1 RES1   0.0000
     4 O4      42.3096  86.7620  34.3583   O.3       1 RES1  -1.0000
     5 O5      42.8479  89.1576  33.5875   O.3       1 RES1   0.0000
     6 C6      43.9516  89.4987  34.4101   C.3       1 RES1   0.0000
     7 C7      44.3201  90.9708  34.1389   C.3       1 RES1   0.0000
     8 O8      45.4997  91.2846  34.8833   O.3       1 RES1   0.0000
     9 C9      43.1779  91.9722  34.4017   C.3       1 RES1   0.0000
    10 S10     43.4596  93.6233  34.1662   S.3       1 RES1   1.0000
    11 C11     45.0786  93.7700  33.3482   C.3       1 RES1   0.0000
    12 C12     46.0285  94.2626  34.3098   C.3       1 RES1   0.0000
    13 O13     47.0079  95.2377  33.8683   O.3       1 RES1   0.0000
    14 C14     45.3962  94.8311  35.4509   C.3       1 RES1   0.0000
    15 O15     46.2354  94.7724  36.6051   O.3       1 RES1   0.0000
    16 C16     44.1011  94.1405  35.7502   C.3       1 RES1   0.0000
    17 C17     43.1958  94.9925  36.6320   C.3       1 RES1   0.0000
    18 O18     41.9638  94.3592  37.0171   O.3       1 RES1   0.0000
    19 C19     45.0997  88.5633  33.9885   C.3       1 RES1   0.0000
    20 O20     46.1214  88.6264  34.9974   O.3       1 RES1   0.0000
    21 C21     45.7416  88.8483  32.6182   C.3       1 RES1   0.0000
    22 O22     44.7826  88.7957  31.5709   O.3       1 RES1   0.0000
    23 C23     46.8364  87.8396  32.2654   C.3       1 RES1   0.0000
    24 O24     46.2829  86.5304  32.0860   O.3       1 RES1   0.0000
    25 C25     47.6200  88.2793  31.0128   C.3       1 RES1   0.0000
    26 O26     46.6833  88.2821  29.9108   O.3       1 RES1   0.0000
@<TRIPOS>BOND
     1     1     2    2
     2     2     3    2
     3     2     4    1
     4     2     5    1
     5     6     5    1
     6     6     7    1
     7     7     8    1
     8     7     9    1
     9    10     9    1
    10    10    11    1
    11    11    12    1
    12    12    13    1
    13    12    14    1
    14    14    15    1
    15    14    16    1
    16    16    17    1
    17    17    18    1
    18     6    19    1
    19    19    20    1
    20    19    21    1
    21    21    22    1
    22    21    23    1
    23    23    24    1
    24    23    25    1
    25    25    26    1
    26    16    10    1
@<TRIPOS>SUBSTRUCTURE
     1 RES1        1 GROUP             0 ****  ****    0  
@<TRIPOS>MOLECULE
ligand_63
    26    26     1     0     0
SMALL
USER_CHARGES
****
Generated from the CSD

@<TRIPOS>ATOM
     1 O1      42.7842  89.4651  37.3238   O.2       1 RES1   0.0000
     2 S2      41.7111  90.1125  36.5279   S.o2      1 RES1   0.0000
     3 O3      40.3698  89.6067  36.8747   O.2       1 RES1   0.0000
     4 O4      42.0445  89.8338  35.1123   O.3       1 RES1  -1.0000
     5 O5      41.6166  91.7100  36.8210   O.3       1 RES1   0.0000
     6 C6      40.6850  92.5336  36.1390   C.3       1 RES1   0.0000
     7 C7      41.4530  93.7108  35.5060   C.3       1 RES1   0.0000
     8 O8      40.5039  94.6042  34.9186   O.3       1 RES1   0.0000
     9 C9      42.5555  93.2920  34.5133   C.3       1 RES1   0.0000
    10 S10     43.4295  94.4898  33.6994   S.3       1 RES1   1.0000
    11 C11     45.0463  93.7682  33.2789   C.3       1 RES1   0.0000
    12 C12     46.0195  94.2603  34.2171   C.3       1 RES1   0.0000
    13 O13     46.9884  95.2349  33.7520   O.3       1 RES1   0.0000
    14 C14     45.4153  94.8292  35.3732   C.3       1 RES1   0.0000
    15 O15     45.2180  93.8565  36.4002   O.3       1 RES1   0.0000
    16 C16     44.0999  95.4627  35.0381   C.3       1 RES1   0.0000
    17 C17     44.2349  96.9648  34.8175   C.3       1 RES1   0.0000
    18 O18     42.9959  97.6480  34.5620   O.3       1 RES1   0.0000
    19 C19     39.7012  93.0382  37.2105   C.3       1 RES1   0.0000
    20 O20     40.4611  93.6753  38.2509   O.3       1 RES1   0.0000
    21 C21     38.7859  91.9767  37.8481   C.3       1 RES1   0.0000
    22 O22     38.0046  91.3048  36.8696   O.3       1 RES1   0.0000
    23 C23     37.8066  92.5803  38.8566   C.3       1 RES1   0.0000
    24 O24     36.9188  93.5030  38.2139   O.3       1 RES1   0.0000
    25 C25     37.0150  91.4821  39.5942   C.3       1 RES1   0.0000
    26 O26     36.2635  92.1377  40.6418   O.3       1 RES1   0.0000
@<TRIPOS>BOND
     1     1     2    2
     2     2     3    2
     3     2     4    1
     4     2     5    1
     5     6     5    1
     6     6     7    1
     7     7     8    1
     8     7     9    1
     9    10     9    1
    10    10    11    1
    11    11    12    1
    12    12    13    1
    13    12    14    1
    14    14    15    1
    15    14    16    1
    16    16    17    1
    17    17    18    1
    18     6    19    1
    19    19    20    1
    20    19    21    1
    21    21    22    1
    22    21    23    1
    23    23    24    1
    24    23    25    1
    25    25    26    1
    26    16    10    1
@<TRIPOS>SUBSTRUCTURE
     1 RES1        1 GROUP             0 ****  ****    0  
@<TRIPOS>MOLECULE
ligand_64
    26    26     1     0     0
SMALL
USER_CHARGES
****
Generated from the CSD

@<TRIPOS>ATOM
     1 O1      42.0147  92.3918  37.2796   O.2       1 RES1   0.0000
     2 S2      40.6198  91.9097  37.1184   S.o2      1 RES1   0.0000
     3 O3      39.6527  92.7181  37.8842   O.2       1 RES1   0.0000
     4 O4      40.6313  90.5021  37.5776   O.3       1 RES1  -1.0000
     5 O5      40.1069  92.0369  35.5796   O.3       1 RES1   0.0000
     6 C6      40.7908  91.3942  34.5162   C.3       1 RES1   0.0000
     7 C7      41.5363  92.4694  33.7011   C.3       1 RES1   0.0000
     8 O8      42.1276  91.8410  32.5610   O.3       1 RES1   0.0000
     9 C9      42.5578  93.2902  34.5131   C.3       1 RES1   0.0000
    10 S10     43.4621  94.4861  33.7303   S.3       1 RES1   1.0000
    11 C11     45.0953  93.7650  33.3771   C.3       1 RES1   0.0000
    12 C12     46.0297  94.2616  34.3516   C.3       1 RES1   0.0000
    13 O13     47.0153  95.2357  33.9220   O.3       1 RES1   0.0000
    14 C14     45.3793  94.8339  35.4806   C.3       1 RES1   0.0000
    15 O15     45.1423  93.8646  36.5025   O.3       1 RES1   0.0000
    16 C16     44.0777  95.4646  35.0910   C.3       1 RES1   0.0000
    17 C17     44.2197  96.9661  34.8706   C.3       1 RES1   0.0000
    18 O18     44.6112  97.7099  36.0370   O.3       1 RES1   0.0000
    19 C19     39.7040  90.7179  33.6605   C.3       1 RES1   0.0000
    20 O20     38.7467  91.7200  33.2795   O.3       1 RES1   0.0000
    21 C21     38.9541  89.5438  34.3162   C.3       1 RES1   0.0000
    22 O22     39.8535  88.5986  34.8793   O.3       1 RES1   0.0000
    23 C23     38.0789  88.7810  33.3198   C.3       1 RES1   0.0000
    24 O24     37.6299  87.5420  33.8819   O.3       1 RES1   0.0000
    25 C25     36.8837  89.6366  32.8552   C.3       1 RES1   0.0000
    26 O26     36.1594  90.0275  34.0446   O.3       1 RES1   0.0000
@<TRIPOS>BOND
     1     1     2    2
     2     2     3    2
     3     2     4    1
     4     2     5    1
     5     6     5    1
     6     6     7    1
     7     7     8    1
     8     7     9    1
     9    10     9    1
    10    10    11    1
    11    11    12    1
    12    12    13    1
    13    12    14    1
    14    14    15    1
    15    14    16    1
    16    16    17    1
    17    17    18    1
    18     6    19    1
    19    19    20    1
    20    19    21    1
    21    21    22    1
    22    21    23    1
    23    23    24    1
    24    23    25    1
    25    25    26    1
    26    16    10    1
@<TRIPOS>SUBSTRUCTURE
     1 RES1        1 GROUP             0 ****  ****    0  
@<TRIPOS>MOLECULE
ligand_65
    26    26     1     0     0
SMALL
USER_CHARGES
****
Generated from the CSD

@<TRIPOS>ATOM
     1 O1      41.7236  89.6136  36.2632   O.2       1 RES1   0.0000
     2 S2      41.1654  90.5266  37.2923   S.o2      1 RES1   0.0000
     3 O3      42.0099  90.5977  38.4994   O.2       1 RES1   0.0000
     4 O4      39.8190  89.9956  37.6049   O.3       1 RES1  -1.0000
     5 O5      41.0991  92.0653  36.7679   O.3       1 RES1   0.0000
     6 C6      40.3720  92.4193  35.6028   C.3       1 RES1   0.0000
     7 C7      41.0989  93.5932  34.9174   C.3       1 RES1   0.0000
     8 O8      40.3093  94.0251  33.8064   O.3       1 RES1   0.0000
     9 C9      42.5574  93.2936  34.5182   C.3       1 RES1   0.0000
    10 S10     43.4601  94.4915  33.7365   S.3       1 RES1   1.0000
    11 C11     45.0969  93.7756  33.3897   C.3       1 RES1   0.0000
    12 C12     46.0264  94.2770  34.3664   C.3       1 RES1   0.0000
    13 O13     47.0101  95.2538  33.9384   O.3       1 RES1   0.0000
    14 C14     45.3704  94.8487  35.4924   C.3       1 RES1   0.0000
    15 O15     45.1335  93.8802  36.5150   O.3       1 RES1   0.0000
    16 C16     44.0678  95.4743  35.0977   C.3       1 RES1   0.0000
    17 C17     44.2054  96.9759  34.8753   C.3       1 RES1   0.0000
    18 O18     44.5878  97.7233  36.0425   O.3       1 RES1   0.0000
    19 C19     38.9765  92.8518  36.0889   C.3       1 RES1   0.0000
    20 O20     38.0996  92.8936  34.9509   O.3       1 RES1   0.0000
    21 C21     38.8997  94.2046  36.8205   C.3       1 RES1   0.0000
    22 O22     39.7446  94.2295  37.9628   O.3       1 RES1   0.0000
    23 C23     37.4858  94.5238  37.3100   C.3       1 RES1   0.0000
    24 O24     37.0488  93.5538  38.2696   O.3       1 RES1   0.0000
    25 C25     37.4042  95.9479  37.8948   C.3       1 RES1   0.0000
    26 O26     36.0068  96.2162  38.1536   O.3       1 RES1   0.0000
@<TRIPOS>BOND
     1     1     2    2
     2     2     3    2
     3     2     4    1
     4     2     5    1
     5     6     5    1
     6     6     7    1
     7     7     8    1
     8     7     9    1
     9    10     9    1
    10    10    11    1
    11    11    12    1
    12    12    13    1
    13    12    14    1
    14    14    15    1
    15    14    16    1
    16    16    17    1
    17    17    18    1
    18     6    19    1
    19    19    20    1
    20    19    21    1
    21    21    22    1
    22    21    23    1
    23    23    24    1
    24    23    25    1
    25    25    26    1
    26    16    10    1
@<TRIPOS>SUBSTRUCTURE
     1 RES1        1 GROUP             0 ****  ****    0  
@<TRIPOS>MOLECULE
ligand_66
    26    26     1     0     0
SMALL
USER_CHARGES
****
Generated from the CSD

@<TRIPOS>ATOM
     1 O1      39.9843  88.9125  32.7295   O.2       1 RES1   0.0000
     2 S2      41.2760  88.3220  33.1620   S.o2      1 RES1   0.0000
     3 O3      42.1326  87.9453  32.0220   O.2       1 RES1   0.0000
     4 O4      40.9177  87.1422  33.9820   O.3       1 RES1  -1.0000
     5 O5      42.1802  89.3847  33.9988   O.3       1 RES1   0.0000
     6 C6      41.6976  89.9940  35.1850   C.3       1 RES1   0.0000
     7 C7      41.8483  91.5212  35.0399   C.3       1 RES1   0.0000
     8 O8      40.6683  92.0333  34.4159   O.3       1 RES1   0.0000
     9 C9      43.1344  91.9687  34.3172   C.3       1 RES1   0.0000
    10 S10     43.3845  93.6158  34.0251   S.3       1 RES1   1.0000
    11 C11     44.9634  93.7585  33.1314   C.3       1 RES1   0.0000
    12 C12     45.9491  94.2878  34.0357   C.3       1 RES1   0.0000
    13 O13     46.8955  95.2615  33.5245   O.3       1 RES1   0.0000
    14 C14     45.3614  94.8802  35.1885   C.3       1 RES1   0.0000
    15 O15     46.2520  94.8626  36.3049   O.3       1 RES1   0.0000
    16 C16     44.0897  94.1834  35.5641   C.3       1 RES1   0.0000
    17 C17     43.2141  95.0489  36.4626   C.3       1 RES1   0.0000
    18 O18     42.0086  94.4125  36.9197   O.3       1 RES1   0.0000
    19 C19     42.5865  89.4648  36.3254   C.3       1 RES1   0.0000
    20 O20     43.9600  89.6482  35.9438   O.3       1 RES1   0.0000
    21 C21     42.3778  87.9920  36.7235   C.3       1 RES1   0.0000
    22 O22     41.0345  87.7415  37.1135   O.3       1 RES1   0.0000
    23 C23     43.2639  87.5739  37.8985   C.3       1 RES1   0.0000
    24 O24     42.9410  88.3286  39.0727   O.3       1 RES1   0.0000
    25 C25     43.1532  86.0608  38.1723   C.3       1 RES1   0.0000
    26 O26     44.1551  85.7391  39.1646   O.3       1 RES1   0.0000
@<TRIPOS>BOND
     1     1     2    2
     2     2     3    2
     3     2     4    1
     4     2     5    1
     5     6     5    1
     6     6     7    1
     7     7     8    1
     8     7     9    1
     9    10     9    1
    10    10    11    1
    11    11    12    1
    12    12    13    1
    13    12    14    1
    14    14    15    1
    15    14    16    1
    16    16    17    1
    17    17    18    1
    18     6    19    1
    19    19    20    1
    20    19    21    1
    21    21    22    1
    22    21    23    1
    23    23    24    1
    24    23    25    1
    25    25    26    1
    26    16    10    1
@<TRIPOS>SUBSTRUCTURE
     1 RES1        1 GROUP             0 ****  ****    0  
@<TRIPOS>MOLECULE
ligand_67
    26    26     1     0     0
SMALL
USER_CHARGES
****
Generated from the CSD

@<TRIPOS>ATOM
     1 O1      42.9604  91.2397  36.6060   O.2       1 RES1   0.0000
     2 S2      41.6052  91.2286  37.2121   S.o2      1 RES1   0.0000
     3 O3      41.6071  91.7153  38.6044   O.2       1 RES1   0.0000
     4 O4      41.1464  89.8230  37.1314   O.3       1 RES1  -1.0000
     5 O5      40.5875  92.2392  36.4439   O.3       1 RES1   0.0000
     6 C6      40.3173  92.1049  35.0582   C.3       1 RES1   0.0000
     7 C7      41.0278  93.2525  34.3136   C.3       1 RES1   0.0000
     8 O8      40.6595  93.1903  32.9335   O.3       1 RES1   0.0000
     9 C9      42.5562  93.2899  34.5109   C.3       1 RES1   0.0000
    10 S10     43.4589  94.4866  33.7272   S.3       1 RES1   1.0000
    11 C11     45.0920  93.7665  33.3717   C.3       1 RES1   0.0000
    12 C12     46.0274  94.2633  34.3450   C.3       1 RES1   0.0000
    13 O13     47.0119  95.2381  33.9143   O.3       1 RES1   0.0000
    14 C14     45.3782  94.8350  35.4751   C.3       1 RES1   0.0000
    15 O15     45.1431  93.8653  36.4970   O.3       1 RES1   0.0000
    16 C16     44.0757  95.4651  35.0874   C.3       1 RES1   0.0000
    17 C17     44.2166  96.9667  34.8671   C.3       1 RES1   0.0000
    18 O18     44.6091  97.7105  36.0333   O.3       1 RES1   0.0000
    19 C19     38.7892  92.2236  34.9107   C.3       1 RES1   0.0000
    20 O20     38.3759  93.4591  35.5176   O.3       1 RES1   0.0000
    21 C21     37.9563  91.0763  35.5116   C.3       1 RES1   0.0000
    22 O22     38.4395  89.8064  35.0955   O.3       1 RES1   0.0000
    23 C23     36.4847  91.1455  35.0992   C.3       1 RES1   0.0000
    24 O24     35.8138  89.9159  35.4004   O.3       1 RES1   0.0000
    25 C25     35.7712  92.3369  35.7686   C.3       1 RES1   0.0000
    26 O26     34.4232  92.3671  35.2455   O.3       1 RES1   0.0000
@<TRIPOS>BOND
     1     1     2    2
     2     2     3    2
     3     2     4    1
     4     2     5    1
     5     6     5    1
     6     6     7    1
     7     7     8    1
     8     7     9    1
     9    10     9    1
    10    10    11    1
    11    11    12    1
    12    12    13    1
    13    12    14    1
    14    14    15    1
    15    14    16    1
    16    16    17    1
    17    17    18    1
    18     6    19    1
    19    19    20    1
    20    19    21    1
    21    21    22    1
    22    21    23    1
    23    23    24    1
    24    23    25    1
    25    25    26    1
    26    16    10    1
@<TRIPOS>SUBSTRUCTURE
     1 RES1        1 GROUP             0 ****  ****    0  
@<TRIPOS>MOLECULE
ligand_68
    26    26     1     0     0
SMALL
USER_CHARGES
****
Generated from the CSD

@<TRIPOS>ATOM
     1 O1      45.1823  87.4085  32.9987   O.2       1 RES1   0.0000
     2 S2      43.7675  87.8268  32.8326   S.o2      1 RES1   0.0000
     3 O3      42.8179  86.7926  33.2841   O.2       1 RES1   0.0000
     4 O4      43.6064  88.1157  31.3893   O.3       1 RES1  -1.0000
     5 O5      43.4047  89.1208  33.7498   O.3       1 RES1   0.0000
     6 C6      42.1162  89.7124  33.7180   C.3       1 RES1   0.0000
     7 C7      42.2811  91.2141  33.4114   C.3       1 RES1   0.0000
     8 O8      42.8037  91.3490  32.0874   O.3       1 RES1   0.0000
     9 C9      43.1139  91.9890  34.4517   C.3       1 RES1   0.0000
    10 S10     43.4017  93.6386  34.2131   S.3       1 RES1   1.0000
    11 C11     45.0780  93.7860  33.5202   C.3       1 RES1   0.0000
    12 C12     45.9475  94.3004  34.5444   C.3       1 RES1   0.0000
    13 O13     46.9514  95.2765  34.1646   O.3       1 RES1   0.0000
    14 C14     45.2252  94.8809  35.6244   C.3       1 RES1   0.0000
    15 O15     45.9731  94.8461  36.8406   O.3       1 RES1   0.0000
    16 C16     43.9155  94.1845  35.8336   C.3       1 RES1   0.0000
    17 C17     42.9391  95.0424  36.6296   C.3       1 RES1   0.0000
    18 O18     43.3654  95.3538  37.9669   O.3       1 RES1   0.0000
    19 C19     41.5198  89.5054  35.1223   C.3       1 RES1   0.0000
    20 O20     41.5793  88.1030  35.4312   O.3       1 RES1   0.0000
    21 C21     40.0740  89.9943  35.3266   C.3       1 RES1   0.0000
    22 O22     39.9690  91.4010  35.1550   O.3       1 RES1   0.0000
    23 C23     39.5439  89.6796  36.7268   C.3       1 RES1   0.0000
    24 O24     40.2662  90.4156  37.7213   O.3       1 RES1   0.0000
    25 C25     38.0314  89.9601  36.8287   C.3       1 RES1   0.0000
    26 O26     37.8538  91.3820  36.6325   O.3       1 RES1   0.0000
@<TRIPOS>BOND
     1     1     2    2
     2     2     3    2
     3     2     4    1
     4     2     5    1
     5     6     5    1
     6     6     7    1
     7     7     8    1
     8     7     9    1
     9    10     9    1
    10    10    11    1
    11    11    12    1
    12    12    13    1
    13    12    14    1
    14    14    15    1
    15    14    16    1
    16    16    17    1
    17    17    18    1
    18     6    19    1
    19    19    20    1
    20    19    21    1
    21    21    22    1
    22    21    23    1
    23    23    24    1
    24    23    25    1
    25    25    26    1
    26    16    10    1
@<TRIPOS>SUBSTRUCTURE
     1 RES1        1 GROUP             0 ****  ****    0  
@<TRIPOS>MOLECULE
ligand_69
    26    26     1     0     0
SMALL
USER_CHARGES
****
Generated from the CSD

@<TRIPOS>ATOM
     1 O1      38.1783  90.9774  34.4212   O.2       1 RES1   0.0000
     2 S2      39.2620  90.3324  35.2046   S.o2      1 RES1   0.0000
     3 O3      39.7747  89.1108  34.5564   O.2       1 RES1   0.0000
     4 O4      38.6703  90.0342  36.5288   O.3       1 RES1  -1.0000
     5 O5      40.5719  91.2890  35.3320   O.3       1 RES1   0.0000
     6 C6      40.4905  92.5819  35.9091   C.3       1 RES1   0.0000
     7 C7      41.0989  93.5932  34.9174   C.3       1 RES1   0.0000
     8 O8      40.2277  93.6972  33.7885   O.3       1 RES1   0.0000
     9 C9      42.5536  93.2883  34.5085   C.3       1 RES1   0.0000
    10 S10     43.4309  94.4550  33.6541   S.3       1 RES1   1.0000
    11 C11     45.0641  93.7331  33.3024   C.3       1 RES1   0.0000
    12 C12     46.0120  94.2825  34.2346   C.3       1 RES1   0.0000
    13 O13     46.9796  95.2446  33.7414   O.3       1 RES1   0.0000
    14 C14     45.3778  94.9004  35.3487   C.3       1 RES1   0.0000
    15 O15     45.1700  93.9772  36.4184   O.3       1 RES1   0.0000
    16 C16     44.0627  95.5007  34.9561   C.3       1 RES1   0.0000
    17 C17     44.1856  96.9916  34.6642   C.3       1 RES1   0.0000
    18 O18     44.5844  97.7930  35.7893   O.3       1 RES1   0.0000
    19 C19     41.3215  92.5214  37.2039   C.3       1 RES1   0.0000
    20 O20     40.8753  91.3897  37.9693   O.3       1 RES1   0.0000
    21 C21     41.2760  93.7721  38.1009   C.3       1 RES1   0.0000
    22 O22     41.6602  94.9402  37.3887   O.3       1 RES1   0.0000
    23 C23     42.2132  93.6611  39.3051   C.3       1 RES1   0.0000
    24 O24     42.4460  94.9486  39.8887   O.3       1 RES1   0.0000
    25 C25     41.6616  92.6757  40.3546   C.3       1 RES1   0.0000
    26 O26     42.6604  92.5676  41.3950   O.3       1 RES1   0.0000
@<TRIPOS>BOND
     1     1     2    2
     2     2     3    2
     3     2     4    1
     4     2     5    1
     5     6     5    1
     6     6     7    1
     7     7     8    1
     8     7     9    1
     9    10     9    1
    10    10    11    1
    11    11    12    1
    12    12    13    1
    13    12    14    1
    14    14    15    1
    15    14    16    1
    16    16    17    1
    17    17    18    1
    18     6    19    1
    19    19    20    1
    20    19    21    1
    21    21    22    1
    22    21    23    1
    23    23    24    1
    24    23    25    1
    25    25    26    1
    26    16    10    1
@<TRIPOS>SUBSTRUCTURE
     1 RES1        1 GROUP             0 ****  ****    0  
@<TRIPOS>MOLECULE
ligand_70
    26    26     1     0     0
SMALL
USER_CHARGES
****
Generated from the CSD

@<TRIPOS>ATOM
     1 O1      43.8304  88.6006  33.4162   O.2       1 RES1   0.0000
     2 S2      43.8418  88.1886  34.8425   S.o2      1 RES1   0.0000
     3 O3      45.1968  87.8579  35.3221   O.2       1 RES1   0.0000
     4 O4      42.9388  87.0181  34.9243   O.3       1 RES1  -1.0000
     5 O5      43.3594  89.3913  35.8263   O.3       1 RES1   0.0000
     6 C6      42.0861  89.9991  35.6826   C.3       1 RES1   0.0000
     7 C7      42.2869  91.5241  35.5816   C.3       1 RES1   0.0000
     8 O8      41.0004  92.1472  35.5547   O.3       1 RES1   0.0000
     9 C9      43.1798  91.9728  34.4078   C.3       1 RES1   0.0000
    10 S10     43.4700  93.6232  34.1776   S.3       1 RES1   1.0000
    11 C11     45.0940  93.7646  33.3686   C.3       1 RES1   0.0000
    12 C12     46.0409  94.2509  34.3363   C.3       1 RES1   0.0000
    13 O13     47.0269  95.2226  33.9023   O.3       1 RES1   0.0000
    14 C14     45.4050  94.8196  35.4754   C.3       1 RES1   0.0000
    15 O15     46.2378  94.7546  36.6339   O.3       1 RES1   0.0000
    16 C16     44.1053  94.1340  35.7661   C.3       1 RES1   0.0000
    17 C17     43.1990  94.9880  36.6450   C.3       1 RES1   0.0000
    18 O18     41.9634  94.3583  37.0242   O.3       1 RES1   0.0000
    19 C19     41.2972  89.6365  36.9541   C.3       1 RES1   0.0000
    20 O20     42.0685  90.0532  38.0931   O.3       1 RES1   0.0000
    21 C21     40.9276  88.1516  37.1255   C.3       1 RES1   0.0000
    22 O22     40.1608  87.6740  36.0286   O.3       1 RES1   0.0000
    23 C23     40.0994  87.8981  38.3866   C.3       1 RES1   0.0000
    24 O24     38.8469  88.5905  38.3202   O.3       1 RES1   0.0000
    25 C25     39.8797  86.3899  38.6182   C.3       1 RES1   0.0000
    26 O26     39.2559  86.2506  39.9157   O.3       1 RES1   0.0000
@<TRIPOS>BOND
     1     1     2    2
     2     2     3    2
     3     2     4    1
     4     2     5    1
     5     6     5    1
     6     6     7    1
     7     7     8    1
     8     7     9    1
     9    10     9    1
    10    10    11    1
    11    11    12    1
    12    12    13    1
    13    12    14    1
    14    14    15    1
    15    14    16    1
    16    16    17    1
    17    17    18    1
    18     6    19    1
    19    19    20    1
    20    19    21    1
    21    21    22    1
    22    21    23    1
    23    23    24    1
    24    23    25    1
    25    25    26    1
    26    16    10    1
@<TRIPOS>SUBSTRUCTURE
     1 RES1        1 GROUP             0 ****  ****    0  
@<TRIPOS>MOLECULE
ligand_71
    26    26     1     0     0
SMALL
USER_CHARGES
****
Generated from the CSD

@<TRIPOS>ATOM
     1 O1      45.0664  89.6714  37.3870   O.2       1 RES1   0.0000
     2 S2      43.8654  88.8909  36.9964   S.o2      1 RES1   0.0000
     3 O3      42.7745  89.0052  37.9824   O.2       1 RES1   0.0000
     4 O4      44.3286  87.4909  36.8626   O.3       1 RES1  -1.0000
     5 O5      43.2056  89.4415  35.6149   O.3       1 RES1   0.0000
     6 C6      43.9516  89.4987  34.4101   C.3       1 RES1   0.0000
     7 C7      44.3201  90.9708  34.1389   C.3       1 RES1   0.0000
     8 O8      45.5596  91.2530  34.7932   O.3       1 RES1   0.0000
     9 C9      43.2178  91.9823  34.5108   C.3       1 RES1   0.0000
    10 S10     43.5150  93.6353  34.3102   S.3       1 RES1   1.0000
    11 C11     45.0709  93.7813  33.3776   C.3       1 RES1   0.0000
    12 C12     46.1001  94.2229  34.2806   C.3       1 RES1   0.0000
    13 O13     47.0635  95.1950  33.7993   O.3       1 RES1   0.0000
    14 C14     45.5668  94.7625  35.4847   C.3       1 RES1   0.0000
    15 O15     46.4886  94.6484  36.5696   O.3       1 RES1   0.0000
    16 C16     44.2838  94.0853  35.8576   C.3       1 RES1   0.0000
    17 C17     43.4647  94.9221  36.8332   C.3       1 RES1   0.0000
    18 O18     42.2522  94.2980  37.2888   O.3       1 RES1   0.0000
    19 C19     43.0209  88.9584  33.3090   C.3       1 RES1   0.0000
    20 O20     41.7676  89.6560  33.4006   O.3       1 RES1   0.0000
    21 C21     42.7449  87.4437  33.3338   C.3       1 RES1   0.0000
    22 O22     43.9477  86.6920  33.2461   O.3       1 RES1   0.0000
    23 C23     41.8571  86.9931  32.1722   C.3       1 RES1   0.0000
    24 O24     42.5014  87.2358  30.9158   O.3       1 RES1   0.0000
    25 C25     41.4666  85.5081  32.3095   C.3       1 RES1   0.0000
    26 O26     40.4897  85.2336  31.2790   O.3       1 RES1   0.0000
@<TRIPOS>BOND
     1     1     2    2
     2     2     3    2
     3     2     4    1
     4     2     5    1
     5     6     5    1
     6     6     7    1
     7     7     8    1
     8     7     9    1
     9    10     9    1
    10    10    11    1
    11    11    12    1
    12    12    13    1
    13    12    14    1
    14    14    15    1
    15    14    16    1
    16    16    17    1
    17    17    18    1
    18     6    19    1
    19    19    20    1
    20    19    21    1
    21    21    22    1
    22    21    23    1
    23    23    24    1
    24    23    25    1
    25    25    26    1
    26    16    10    1
@<TRIPOS>SUBSTRUCTURE
     1 RES1        1 GROUP             0 ****  ****    0  
@<TRIPOS>MOLECULE
ligand_72
    26    26     1     0     0
SMALL
USER_CHARGES
****
Generated from the CSD

@<TRIPOS>ATOM
     1 O1      40.8829  90.1792  34.9107   O.2       1 RES1   0.0000
     2 S2      41.3564  88.9607  34.2070   S.o2      1 RES1   0.0000
     3 O3      40.5249  88.6285  33.0350   O.2       1 RES1   0.0000
     4 O4      41.3214  87.8799  35.2185   O.3       1 RES1  -1.0000
     5 O5      42.8479  89.1576  33.5875   O.3       1 RES1   0.0000
     6 C6      43.9516  89.4987  34.4101   C.3       1 RES1   0.0000
     7 C7      44.3201  90.9708  34.1389   C.3       1 RES1   0.0000
     8 O8      45.4943  91.2873  34.8908   O.3       1 RES1   0.0000
     9 C9      43.1749  91.9712  34.3923   C.3       1 RES1   0.0000
    10 S10     43.4561  93.6222  34.1559   S.3       1 RES1   1.0000
    11 C11     45.0799  93.7696  33.3475   C.3       1 RES1   0.0000
    12 C12     46.0234  94.2648  34.3140   C.3       1 RES1   0.0000
    13 O13     47.0043  95.2403  33.8769   O.3       1 RES1   0.0000
    14 C14     45.3835  94.8344  35.4504   C.3       1 RES1   0.0000
    15 O15     46.2158  94.7785  36.6097   O.3       1 RES1   0.0000
    16 C16     44.0874  94.1427  35.7429   C.3       1 RES1   0.0000
    17 C17     43.1758  94.9951  36.6178   C.3       1 RES1   0.0000
    18 O18     41.9422  94.3609  36.9965   O.3       1 RES1   0.0000
    19 C19     45.0997  88.5633  33.9885   C.3       1 RES1   0.0000
    20 O20     46.1317  88.6443  34.9856   O.3       1 RES1   0.0000
    21 C21     45.7258  88.8335  32.6079   C.3       1 RES1   0.0000
    22 O22     44.7368  88.8987  31.5895   O.3       1 RES1   0.0000
    23 C23     46.7158  87.7436  32.1927   C.3       1 RES1   0.0000
    24 O24     47.0130  87.8326  30.7940   O.3       1 RES1   0.0000
    25 C25     48.0071  87.8111  33.0322   C.3       1 RES1   0.0000
    26 O26     48.8290  86.6912  32.6295   O.3       1 RES1   0.0000
@<TRIPOS>BOND
     1     1     2    2
     2     2     3    2
     3     2     4    1
     4     2     5    1
     5     6     5    1
     6     6     7    1
     7     7     8    1
     8     7     9    1
     9    10     9    1
    10    10    11    1
    11    11    12    1
    12    12    13    1
    13    12    14    1
    14    14    15    1
    15    14    16    1
    16    16    17    1
    17    17    18    1
    18     6    19    1
    19    19    20    1
    20    19    21    1
    21    21    22    1
    22    21    23    1
    23    23    24    1
    24    23    25    1
    25    25    26    1
    26    16    10    1
@<TRIPOS>SUBSTRUCTURE
     1 RES1        1 GROUP             0 ****  ****    0  
@<TRIPOS>MOLECULE
ligand_73
    26    26     1     0     0
SMALL
USER_CHARGES
****
Generated from the CSD

@<TRIPOS>ATOM
     1 O1      39.1570  90.0704  32.9020   O.2       1 RES1   0.0000
     2 S2      39.9673  89.6596  34.0762   S.o2      1 RES1   0.0000
     3 O3      40.9387  88.5999  33.7469   O.2       1 RES1   0.0000
     4 O4      38.9910  89.2017  35.0910   O.3       1 RES1  -1.0000
     5 O5      40.8894  90.8783  34.6346   O.3       1 RES1   0.0000
     6 C6      40.3173  92.1049  35.0582   C.3       1 RES1   0.0000
     7 C7      41.0278  93.2525  34.3136   C.3       1 RES1   0.0000
     8 O8      40.7232  93.1428  32.9210   O.3       1 RES1   0.0000
     9 C9      42.5443  93.3398  34.5764   C.3       1 RES1   0.0000
    10 S10     43.4496  94.5317  33.7885   S.3       1 RES1   1.0000
    11 C11     45.1153  93.8450  33.5326   C.3       1 RES1   0.0000
    12 C12     45.9926  94.4031  34.5267   C.3       1 RES1   0.0000
    13 O13     46.9696  95.3885  34.1032   O.3       1 RES1   0.0000
    14 C14     45.2784  94.9974  35.6047   C.3       1 RES1   0.0000
    15 O15     45.0232  94.0596  36.6512   O.3       1 RES1   0.0000
    16 C16     43.9786  95.5762  35.1365   C.3       1 RES1   0.0000
    17 C17     44.0898  97.0721  34.8660   C.3       1 RES1   0.0000
    18 O18     44.4096  97.8688  36.0193   O.3       1 RES1   0.0000
    19 C19     40.5788  92.1941  36.5729   C.3       1 RES1   0.0000
    20 O20     40.0712  90.9971  37.1856   O.3       1 RES1   0.0000
    21 C21     39.9764  93.4122  37.2970   C.3       1 RES1   0.0000
    22 O22     40.5323  94.6304  36.8213   O.3       1 RES1   0.0000
    23 C23     40.2227  93.3744  38.8065   C.3       1 RES1   0.0000
    24 O24     41.6199  93.5008  39.0971   O.3       1 RES1   0.0000
    25 C25     39.4113  94.4651  39.5335   C.3       1 RES1   0.0000
    26 O26     39.9026  95.7402  39.0597   O.3       1 RES1   0.0000
@<TRIPOS>BOND
     1     1     2    2
     2     2     3    2
     3     2     4    1
     4     2     5    1
     5     6     5    1
     6     6     7    1
     7     7     8    1
     8     7     9    1
     9    10     9    1
    10    10    11    1
    11    11    12    1
    12    12    13    1
    13    12    14    1
    14    14    15    1
    15    14    16    1
    16    16    17    1
    17    17    18    1
    18     6    19    1
    19    19    20    1
    20    19    21    1
    21    21    22    1
    22    21    23    1
    23    23    24    1
    24    23    25    1
    25    25    26    1
    26    16    10    1
@<TRIPOS>SUBSTRUCTURE
     1 RES1        1 GROUP             0 ****  ****    0  
@<TRIPOS>MOLECULE
ligand_74
    26    26     1     0     0
SMALL
USER_CHARGES
****
Generated from the CSD

@<TRIPOS>ATOM
     1 O1      46.1509  88.2489  36.3429   O.2       1 RES1   0.0000
     2 S2      44.6881  88.1336  36.5688   S.o2      1 RES1   0.0000
     3 O3      44.3232  88.2957  37.9886   O.2       1 RES1   0.0000
     4 O4      44.3135  86.7929  36.0641   O.3       1 RES1  -1.0000
     5 O5      43.8616  89.3139  35.8133   O.3       1 RES1   0.0000
     6 C6      43.9516  89.4987  34.4101   C.3       1 RES1   0.0000
     7 C7      44.3201  90.9708  34.1389   C.3       1 RES1   0.0000
     8 O8      45.5240  91.2721  34.8488   O.3       1 RES1   0.0000
     9 C9      43.1924  91.9764  34.4447   C.3       1 RES1   0.0000
    10 S10     43.4813  93.6289  34.2279   S.3       1 RES1   1.0000
    11 C11     45.0768  93.7760  33.3650   C.3       1 RES1   0.0000
    12 C12     46.0587  94.2448  34.3059   C.3       1 RES1   0.0000
    13 O13     47.0331  95.2191  33.8517   O.3       1 RES1   0.0000
    14 C14     45.4652  94.7996  35.4744   C.3       1 RES1   0.0000
    15 O15     46.3374  94.7150  36.6022   O.3       1 RES1   0.0000
    16 C16     44.1735  94.1146  35.8005   C.3       1 RES1   0.0000
    17 C17     43.3019  94.9593  36.7224   C.3       1 RES1   0.0000
    18 O18     42.0764  94.3297  37.1333   O.3       1 RES1   0.0000
    19 C19     42.5549  89.1745  33.8492   C.3       1 RES1   0.0000
    20 O20     42.1817  87.8645  34.3078   O.3       1 RES1   0.0000
    21 C21     42.4092  89.2205  32.3169   C.3       1 RES1   0.0000
    22 O22     42.6994  90.5132  31.8031   O.3       1 RES1   0.0000
    23 C23     40.9939  88.8691  31.8544   C.3       1 RES1   0.0000
    24 O24     40.0562  89.8620  32.2872   O.3       1 RES1   0.0000
    25 C25     40.9336  88.6887  30.3246   C.3       1 RES1   0.0000
    26 O26     41.2500  89.9721  29.7375   O.3       1 RES1   0.0000
@<TRIPOS>BOND
     1     1     2    2
     2     2     3    2
     3     2     4    1
     4     2     5    1
     5     6     5    1
     6     6     7    1
     7     7     8    1
     8     7     9    1
     9    10     9    1
    10    10    11    1
    11    11    12    1
    12    12    13    1
    13    12    14    1
    14    14    15    1
    15    14    16    1
    16    16    17    1
    17    17    18    1
    18     6    19    1
    19    19    20    1
    20    19    21    1
    21    21    22    1
    22    21    23    1
    23    23    24    1
    24    23    25    1
    25    25    26    1
    26    16    10    1
@<TRIPOS>SUBSTRUCTURE
     1 RES1        1 GROUP             0 ****  ****    0  
@<TRIPOS>MOLECULE
ligand_75
    26    26     1     0     0
SMALL
USER_CHARGES
****
Generated from the CSD

@<TRIPOS>ATOM
     1 O1      40.5995  88.6132  31.8420   O.2       1 RES1   0.0000
     2 S2      41.7615  88.1154  32.6205   S.o2      1 RES1   0.0000
     3 O3      42.8890  87.7176  31.7569   O.2       1 RES1   0.0000
     4 O4      41.2508  86.9683  33.4053   O.3       1 RES1  -1.0000
     5 O5      42.3896  89.2695  33.5800   O.3       1 RES1   0.0000
     6 C6      41.6043  89.9210  34.5650   C.3       1 RES1   0.0000
     7 C7      41.7331  91.4430  34.3571   C.3       1 RES1   0.0000
     8 O8      41.1426  91.7775  33.0986   O.3       1 RES1   0.0000
     9 C9      43.1698  91.9852  34.4926   C.3       1 RES1   0.0000
    10 S10     43.4560  93.6325  34.2368   S.3       1 RES1   1.0000
    11 C11     45.1371  93.7753  33.5545   C.3       1 RES1   0.0000
    12 C12     45.9980  94.3034  34.5788   C.3       1 RES1   0.0000
    13 O13     47.0027  95.2772  34.1950   O.3       1 RES1   0.0000
    14 C14     45.2667  94.8950  35.6467   C.3       1 RES1   0.0000
    15 O15     46.0058  94.8760  36.8687   O.3       1 RES1   0.0000
    16 C16     43.9569  94.1984  35.8545   C.3       1 RES1   0.0000
    17 C17     42.9729  95.0635  36.6333   C.3       1 RES1   0.0000
    18 O18     41.7184  94.4271  36.9304   O.3       1 RES1   0.0000
    19 C19     42.1972  89.5047  35.9236   C.3       1 RES1   0.0000
    20 O20     42.2792  88.0702  35.9552   O.3       1 RES1   0.0000
    21 C21     41.4357  89.9826  37.1737   C.3       1 RES1   0.0000
    22 O22     41.2827  91.3954  37.1840   O.3       1 RES1   0.0000
    23 C23     42.1515  89.6066  38.4724   C.3       1 RES1   0.0000
    24 O24     41.6526  90.3799  39.5705   O.3       1 RES1   0.0000
    25 C25     42.0268  88.0979  38.7637   C.3       1 RES1   0.0000
    26 O26     42.8133  87.8323  39.9480   O.3       1 RES1   0.0000
@<TRIPOS>BOND
     1     1     2    2
     2     2     3    2
     3     2     4    1
     4     2     5    1
     5     6     5    1
     6     6     7    1
     7     7     8    1
     8     7     9    1
     9    10     9    1
    10    10    11    1
    11    11    12    1
    12    12    13    1
    13    12    14    1
    14    14    15    1
    15    14    16    1
    16    16    17    1
    17    17    18    1
    18     6    19    1
    19    19    20    1
    20    19    21    1
    21    21    22    1
    22    21    23    1
    23    23    24    1
    24    23    25    1
    25    25    26    1
    26    16    10    1
@<TRIPOS>SUBSTRUCTURE
     1 RES1        1 GROUP             0 ****  ****    0  
@<TRIPOS>MOLECULE
ligand_76
    26    26     1     0     0
SMALL
USER_CHARGES
****
Generated from the CSD

@<TRIPOS>ATOM
     1 O1      43.6587  89.0656  36.4264   O.2       1 RES1   0.0000
     2 S2      42.2614  88.6475  36.1492   S.o2      1 RES1   0.0000
     3 O3      41.3850  88.7970  37.3261   O.2       1 RES1   0.0000
     4 O4      42.3489  87.2341  35.7165   O.3       1 RES1  -1.0000
     5 O5      41.5608  89.5818  35.0164   O.3       1 RES1   0.0000
     6 C6      42.1162  89.7124  33.7180   C.3       1 RES1   0.0000
     7 C7      42.2811  91.2141  33.4114   C.3       1 RES1   0.0000
     8 O8      42.7330  91.3515  32.0619   O.3       1 RES1   0.0000
     9 C9      43.1774  91.9734  34.4096   C.3       1 RES1   0.0000
    10 S10     43.4586  93.6245  34.1731   S.3       1 RES1   1.0000
    11 C11     45.0919  93.7730  33.3844   C.3       1 RES1   0.0000
    12 C12     46.0226  94.2719  34.3613   C.3       1 RES1   0.0000
    13 O13     47.0071  95.2482  33.9342   O.3       1 RES1   0.0000
    14 C14     45.3680  94.8427  35.4886   C.3       1 RES1   0.0000
    15 O15     46.1860  94.7907  36.6581   O.3       1 RES1   0.0000
    16 C16     44.0695  94.1494  35.7666   C.3       1 RES1   0.0000
    17 C17     43.1458  95.0020  36.6285   C.3       1 RES1   0.0000
    18 O18     43.6517  95.2961  37.9418   O.3       1 RES1   0.0000
    19 C19     41.1012  89.0682  32.7559   C.3       1 RES1   0.0000
    20 O20     39.8264  89.6987  32.9628   O.3       1 RES1   0.0000
    21 C21     40.9225  87.5435  32.8761   C.3       1 RES1   0.0000
    22 O22     42.1728  86.8683  32.8636   O.3       1 RES1   0.0000
    23 C23     40.0946  86.9607  31.7292   C.3       1 RES1   0.0000
    24 O24     40.1835  85.5309  31.7131   O.3       1 RES1   0.0000
    25 C25     38.6243  87.4170  31.8121   C.3       1 RES1   0.0000
    26 O26     38.1337  87.0190  33.1131   O.3       1 RES1   0.0000
@<TRIPOS>BOND
     1     1     2    2
     2     2     3    2
     3     2     4    1
     4     2     5    1
     5     6     5    1
     6     6     7    1
     7     7     8    1
     8     7     9    1
     9    10     9    1
    10    10    11    1
    11    11    12    1
    12    12    13    1
    13    12    14    1
    14    14    15    1
    15    14    16    1
    16    16    17    1
    17    17    18    1
    18     6    19    1
    19    19    20    1
    20    19    21    1
    21    21    22    1
    22    21    23    1
    23    23    24    1
    24    23    25    1
    25    25    26    1
    26    16    10    1
@<TRIPOS>SUBSTRUCTURE
     1 RES1        1 GROUP             0 ****  ****    0  
@<TRIPOS>MOLECULE
ligand_77
    26    26     1     0     0
SMALL
USER_CHARGES
****
Generated from the CSD

@<TRIPOS>ATOM
     1 O1      39.1570  90.0704  32.9020   O.2       1 RES1   0.0000
     2 S2      39.9673  89.6596  34.0762   S.o2      1 RES1   0.0000
     3 O3      40.9387  88.5999  33.7469   O.2       1 RES1   0.0000
     4 O4      38.9910  89.2017  35.0910   O.3       1 RES1  -1.0000
     5 O5      40.8894  90.8783  34.6346   O.3       1 RES1   0.0000
     6 C6      40.3173  92.1049  35.0582   C.3       1 RES1   0.0000
     7 C7      41.0278  93.2525  34.3136   C.3       1 RES1   0.0000
     8 O8      40.7260  93.1407  32.9205   O.3       1 RES1   0.0000
     9 C9      42.5437  93.3420  34.5792   C.3       1 RES1   0.0000
    10 S10     43.4514  94.5251  33.7808   S.3       1 RES1   1.0000
    11 C11     45.1175  93.8349  33.5365   C.3       1 RES1   0.0000
    12 C12     45.9926  94.4034  34.5267   C.3       1 RES1   0.0000
    13 O13     46.9710  95.3838  34.0951   O.3       1 RES1   0.0000
    14 C14     45.2759  95.0095  35.5964   C.3       1 RES1   0.0000
    15 O15     45.0177  94.0831  36.6523   O.3       1 RES1   0.0000
    16 C16     43.9775  95.5838  35.1189   C.3       1 RES1   0.0000
    17 C17     44.0900  97.0766  34.8326   C.3       1 RES1   0.0000
    18 O18     42.8594  97.7068  34.4382   O.3       1 RES1   0.0000
    19 C19     40.5788  92.1941  36.5729   C.3       1 RES1   0.0000
    20 O20     40.1192  90.9744  37.1787   O.3       1 RES1   0.0000
    21 C21     39.9316  93.3832  37.3065   C.3       1 RES1   0.0000
    22 O22     40.3008  94.6232  36.7187   O.3       1 RES1   0.0000
    23 C23     40.3410  93.4534  38.7789   C.3       1 RES1   0.0000
    24 O24     40.0099  94.7300  39.3386   O.3       1 RES1   0.0000
    25 C25     39.6966  92.3144  39.5939   C.3       1 RES1   0.0000
    26 O26     38.2665  92.4205  39.4059   O.3       1 RES1   0.0000
@<TRIPOS>BOND
     1     1     2    2
     2     2     3    2
     3     2     4    1
     4     2     5    1
     5     6     5    1
     6     6     7    1
     7     7     8    1
     8     7     9    1
     9    10     9    1
    10    10    11    1
    11    11    12    1
    12    12    13    1
    13    12    14    1
    14    14    15    1
    15    14    16    1
    16    16    17    1
    17    17    18    1
    18     6    19    1
    19    19    20    1
    20    19    21    1
    21    21    22    1
    22    21    23    1
    23    23    24    1
    24    23    25    1
    25    25    26    1
    26    16    10    1
@<TRIPOS>SUBSTRUCTURE
     1 RES1        1 GROUP             0 ****  ****    0  
@<TRIPOS>MOLECULE
ligand_78
    26    26     1     0     0
SMALL
USER_CHARGES
****
Generated from the CSD

@<TRIPOS>ATOM
     1 O1      41.7236  89.6136  36.2632   O.2       1 RES1   0.0000
     2 S2      41.1654  90.5266  37.2923   S.o2      1 RES1   0.0000
     3 O3      42.0099  90.5977  38.4994   O.2       1 RES1   0.0000
     4 O4      39.8190  89.9956  37.6049   O.3       1 RES1  -1.0000
     5 O5      41.0991  92.0653  36.7679   O.3       1 RES1   0.0000
     6 C6      40.3720  92.4193  35.6028   C.3       1 RES1   0.0000
     7 C7      41.0989  93.5932  34.9174   C.3       1 RES1   0.0000
     8 O8      40.3136  94.0194  33.8012   O.3       1 RES1   0.0000
     9 C9      42.5602  93.2966  34.5263   C.3       1 RES1   0.0000
    10 S10     43.4634  94.4948  33.7454   S.3       1 RES1   1.0000
    11 C11     45.1039  93.7825  33.4090   C.3       1 RES1   0.0000
    12 C12     46.0271  94.2896  34.3887   C.3       1 RES1   0.0000
    13 O13     47.0100  95.2680  33.9627   O.3       1 RES1   0.0000
    14 C14     45.3638  94.8629  35.5097   C.3       1 RES1   0.0000
    15 O15     45.1247  93.8969  36.5341   O.3       1 RES1   0.0000
    16 C16     44.0614  95.4835  35.1066   C.3       1 RES1   0.0000
    17 C17     44.1957  96.9847  34.8803   C.3       1 RES1   0.0000
    18 O18     42.9654  97.6562  34.5600   O.3       1 RES1   0.0000
    19 C19     38.9765  92.8518  36.0889   C.3       1 RES1   0.0000
    20 O20     38.1060  92.9183  34.9472   O.3       1 RES1   0.0000
    21 C21     38.9038  94.1923  36.8431   C.3       1 RES1   0.0000
    22 O22     39.8387  94.2418  37.9121   O.3       1 RES1   0.0000
    23 C23     37.5232  94.4452  37.4520   C.3       1 RES1   0.0000
    24 O24     37.5722  95.5246  38.3927   O.3       1 RES1   0.0000
    25 C25     36.4710  94.7187  36.3590   C.3       1 RES1   0.0000
    26 O26     36.9532  95.8398  35.5828   O.3       1 RES1   0.0000
@<TRIPOS>BOND
     1     1     2    2
     2     2     3    2
     3     2     4    1
     4     2     5    1
     5     6     5    1
     6     6     7    1
     7     7     8    1
     8     7     9    1
     9    10     9    1
    10    10    11    1
    11    11    12    1
    12    12    13    1
    13    12    14    1
    14    14    15    1
    15    14    16    1
    16    16    17    1
    17    17    18    1
    18     6    19    1
    19    19    20    1
    20    19    21    1
    21    21    22    1
    22    21    23    1
    23    23    24    1
    24    23    25    1
    25    25    26    1
    26    16    10    1
@<TRIPOS>SUBSTRUCTURE
     1 RES1        1 GROUP             0 ****  ****    0  
@<TRIPOS>MOLECULE
ligand_79
    26    26     1     0     0
SMALL
USER_CHARGES
****
Generated from the CSD

@<TRIPOS>ATOM
     1 O1      44.0149  88.5892  33.5142   O.2       1 RES1   0.0000
     2 S2      43.6875  88.2512  34.9223   S.o2      1 RES1   0.0000
     3 O3      44.8927  88.0263  35.7421   O.2       1 RES1   0.0000
     4 O4      42.8464  87.0346  34.8527   O.3       1 RES1  -1.0000
     5 O5      42.9204  89.4711  35.6776   O.3       1 RES1   0.0000
     6 C6      41.6976  89.9940  35.1850   C.3       1 RES1   0.0000
     7 C7      41.8483  91.5212  35.0399   C.3       1 RES1   0.0000
     8 O8      40.7126  92.0207  34.3294   O.3       1 RES1   0.0000
     9 C9      43.1798  91.9728  34.4078   C.3       1 RES1   0.0000
    10 S10     43.4613  93.6238  34.1711   S.3       1 RES1   1.0000
    11 C11     45.0929  93.7718  33.3788   C.3       1 RES1   0.0000
    12 C12     46.0260  94.2700  34.3538   C.3       1 RES1   0.0000
    13 O13     47.0100  95.2460  33.9248   O.3       1 RES1   0.0000
    14 C14     45.3740  94.8409  35.4827   C.3       1 RES1   0.0000
    15 O15     46.1946  94.7882  36.6504   O.3       1 RES1   0.0000
    16 C16     44.0759  94.1481  35.7634   C.3       1 RES1   0.0000
    17 C17     43.1544  95.0008  36.6275   C.3       1 RES1   0.0000
    18 O18     41.9179  94.3658  36.9949   O.3       1 RES1   0.0000
    19 C19     40.6327  89.6497  36.2425   C.3       1 RES1   0.0000
    20 O20     41.0758  90.1664  37.5083   O.3       1 RES1   0.0000
    21 C21     40.2975  88.1562  36.4097   C.3       1 RES1   0.0000
    22 O22     39.8509  87.5811  35.1894   O.3       1 RES1   0.0000
    23 C23     39.1924  87.9179  37.4405   C.3       1 RES1   0.0000
    24 O24     37.9671  88.5322  37.0236   O.3       1 RES1   0.0000
    25 C25     38.9883  86.4128  37.7044   C.3       1 RES1   0.0000
    26 O26     40.2122  85.9206  38.2975   O.3       1 RES1   0.0000
@<TRIPOS>BOND
     1     1     2    2
     2     2     3    2
     3     2     4    1
     4     2     5    1
     5     6     5    1
     6     6     7    1
     7     7     8    1
     8     7     9    1
     9    10     9    1
    10    10    11    1
    11    11    12    1
    12    12    13    1
    13    12    14    1
    14    14    15    1
    15    14    16    1
    16    16    17    1
    17    17    18    1
    18     6    19    1
    19    19    20    1
    20    19    21    1
    21    21    22    1
    22    21    23    1
    23    23    24    1
    24    23    25    1
    25    25    26    1
    26    16    10    1
@<TRIPOS>SUBSTRUCTURE
     1 RES1        1 GROUP             0 ****  ****    0  
@<TRIPOS>MOLECULE
ligand_80
    26    26     1     0     0
SMALL
USER_CHARGES
****
Generated from the CSD

@<TRIPOS>ATOM
     1 O1      39.5378  89.8906  32.8485   O.2       1 RES1   0.0000
     2 S2      40.5608  88.8394  33.0778   S.o2      1 RES1   0.0000
     3 O3      41.1413  88.3347  31.8193   O.2       1 RES1   0.0000
     4 O4      39.8651  87.7645  33.8214   O.3       1 RES1  -1.0000
     5 O5      41.8432  89.4087  33.9015   O.3       1 RES1   0.0000
     6 C6      41.6976  89.9940  35.1850   C.3       1 RES1   0.0000
     7 C7      41.8483  91.5212  35.0399   C.3       1 RES1   0.0000
     8 O8      40.7286  92.0165  34.3016   O.3       1 RES1   0.0000
     9 C9      43.1934  91.9744  34.4383   C.3       1 RES1   0.0000
    10 S10     43.4415  93.6168  34.1195   S.3       1 RES1   1.0000
    11 C11     45.1011  93.7665  33.3879   C.3       1 RES1   0.0000
    12 C12     45.9784  94.3450  34.3704   C.3       1 RES1   0.0000
    13 O13     46.9540  95.3230  33.9271   O.3       1 RES1   0.0000
    14 C14     45.2641  94.9594  35.4369   C.3       1 RES1   0.0000
    15 O15     46.0352  94.9957  36.6385   O.3       1 RES1   0.0000
    16 C16     43.9737  94.2468  35.7031   C.3       1 RES1   0.0000
    17 C17     42.9942  95.1201  36.4784   C.3       1 RES1   0.0000
    18 O18     41.7602  94.4717  36.8303   O.3       1 RES1   0.0000
    19 C19     42.8339  89.4139  36.0470   C.3       1 RES1   0.0000
    20 O20     43.9144  89.0457  35.1737   O.3       1 RES1   0.0000
    21 C21     42.4722  88.2000  36.9227   C.3       1 RES1   0.0000
    22 O22     41.4044  88.4970  37.8120   O.3       1 RES1   0.0000
    23 C23     43.6465  87.7311  37.7838   C.3       1 RES1   0.0000
    24 O24     43.9910  88.7234  38.7581   O.3       1 RES1   0.0000
    25 C25     43.3392  86.3812  38.4621   C.3       1 RES1   0.0000
    26 O26     42.2258  86.6050  39.3578   O.3       1 RES1   0.0000
@<TRIPOS>BOND
     1     1     2    2
     2     2     3    2
     3     2     4    1
     4     2     5    1
     5     6     5    1
     6     6     7    1
     7     7     8    1
     8     7     9    1
     9    10     9    1
    10    10    11    1
    11    11    12    1
    12    12    13    1
    13    12    14    1
    14    14    15    1
    15    14    16    1
    16    16    17    1
    17    17    18    1
    18     6    19    1
    19    19    20    1
    20    19    21    1
    21    21    22    1
    22    21    23    1
    23    23    24    1
    24    23    25    1
    25    25    26    1
    26    16    10    1
@<TRIPOS>SUBSTRUCTURE
     1 RES1        1 GROUP             0 ****  ****    0  
@<TRIPOS>MOLECULE
ligand_81
    26    26     1     0     0
SMALL
USER_CHARGES
****
Generated from the CSD

@<TRIPOS>ATOM
     1 O1      39.5738  89.0563  34.5106   O.2       1 RES1   0.0000
     2 S2      39.2566  90.3436  35.1788   S.o2      1 RES1   0.0000
     3 O3      38.7880  90.1579  36.5649   O.2       1 RES1   0.0000
     4 O4      38.2181  90.9814  34.3379   O.3       1 RES1  -1.0000
     5 O5      40.5719  91.2890  35.3320   O.3       1 RES1   0.0000
     6 C6      40.4905  92.5819  35.9091   C.3       1 RES1   0.0000
     7 C7      41.0989  93.5932  34.9174   C.3       1 RES1   0.0000
     8 O8      40.2136  93.7186  33.8017   O.3       1 RES1   0.0000
     9 C9      42.5435  93.2719  34.4857   C.3       1 RES1   0.0000
    10 S10     43.4186  94.4269  33.6132   S.3       1 RES1   1.0000
    11 C11     45.0322  93.6811  33.2233   C.3       1 RES1   0.0000
    12 C12     46.0093  94.2145  34.1344   C.3       1 RES1   0.0000
    13 O13     46.9798  95.1628  33.6208   O.3       1 RES1   0.0000
    14 C14     45.4100  94.8398  35.2636   C.3       1 RES1   0.0000
    15 O15     45.2127  93.9179  36.3364   O.3       1 RES1   0.0000
    16 C16     44.0955  95.4606  34.9020   C.3       1 RES1   0.0000
    17 C17     44.2343  96.9500  34.6095   C.3       1 RES1   0.0000
    18 O18     42.9965  97.6240  34.3250   O.3       1 RES1   0.0000
    19 C19     41.3215  92.5214  37.2039   C.3       1 RES1   0.0000
    20 O20     40.8676  91.3963  37.9745   O.3       1 RES1   0.0000
    21 C21     41.2851  93.7764  38.0953   C.3       1 RES1   0.0000
    22 O22     41.8275  94.9075  37.4276   O.3       1 RES1   0.0000
    23 C23     42.0872  93.5990  39.3859   C.3       1 RES1   0.0000
    24 O24     43.4741  93.3848  39.0973   O.3       1 RES1   0.0000
    25 C25     41.9039  94.8047  40.3290   C.3       1 RES1   0.0000
    26 O26     40.5103  94.8280  40.7150   O.3       1 RES1   0.0000
@<TRIPOS>BOND
     1     1     2    2
     2     2     3    2
     3     2     4    1
     4     2     5    1
     5     6     5    1
     6     6     7    1
     7     7     8    1
     8     7     9    1
     9    10     9    1
    10    10    11    1
    11    11    12    1
    12    12    13    1
    13    12    14    1
    14    14    15    1
    15    14    16    1
    16    16    17    1
    17    17    18    1
    18     6    19    1
    19    19    20    1
    20    19    21    1
    21    21    22    1
    22    21    23    1
    23    23    24    1
    24    23    25    1
    25    25    26    1
    26    16    10    1
@<TRIPOS>SUBSTRUCTURE
     1 RES1        1 GROUP             0 ****  ****    0  
@<TRIPOS>MOLECULE
ligand_82
    26    26     1     0     0
SMALL
USER_CHARGES
****
Generated from the CSD

@<TRIPOS>ATOM
     1 O1      40.2134  89.7805  32.3768   O.2       1 RES1   0.0000
     2 S2      41.1645  88.7628  32.8903   S.o2      1 RES1   0.0000
     3 O3      42.0591  88.2464  31.8375   O.2       1 RES1   0.0000
     4 O4      40.3233  87.6861  33.4608   O.3       1 RES1  -1.0000
     5 O5      42.1802  89.3847  33.9988   O.3       1 RES1   0.0000
     6 C6      41.6976  89.9940  35.1850   C.3       1 RES1   0.0000
     7 C7      41.8483  91.5212  35.0399   C.3       1 RES1   0.0000
     8 O8      40.7425  92.0129  34.2786   O.3       1 RES1   0.0000
     9 C9      43.2042  91.9758  34.4642   C.3       1 RES1   0.0000
    10 S10     43.4877  93.6267  34.2297   S.3       1 RES1   1.0000
    11 C11     45.1513  93.7781  33.5076   C.3       1 RES1   0.0000
    12 C12     46.0391  94.2868  34.5188   C.3       1 RES1   0.0000
    13 O13     47.0361  95.2651  34.1266   O.3       1 RES1   0.0000
    14 C14     45.3363  94.8612  35.6150   C.3       1 RES1   0.0000
    15 O15     46.1060  94.8196  36.8173   O.3       1 RES1   0.0000
    16 C16     44.0306  94.1636  35.8437   C.3       1 RES1   0.0000
    17 C17     43.0687  95.0169  36.6620   C.3       1 RES1   0.0000
    18 O18     41.8209  94.3775  36.9805   O.3       1 RES1   0.0000
    19 C19     42.5865  89.4648  36.3254   C.3       1 RES1   0.0000
    20 O20     42.6427  88.0324  36.2208   O.3       1 RES1   0.0000
    21 C21     42.1534  89.8380  37.7552   C.3       1 RES1   0.0000
    22 O22     42.1914  91.2433  37.9625   O.3       1 RES1   0.0000
    23 C23     43.0541  89.2101  38.8205   C.3       1 RES1   0.0000
    24 O24     44.3799  89.7480  38.7469   O.3       1 RES1   0.0000
    25 C25     42.4648  89.3970  40.2327   C.3       1 RES1   0.0000
    26 O26     42.4427  90.8194  40.4937   O.3       1 RES1   0.0000
@<TRIPOS>BOND
     1     1     2    2
     2     2     3    2
     3     2     4    1
     4     2     5    1
     5     6     5    1
     6     6     7    1
     7     7     8    1
     8     7     9    1
     9    10     9    1
    10    10    11    1
    11    11    12    1
    12    12    13    1
    13    12    14    1
    14    14    15    1
    15    14    16    1
    16    16    17    1
    17    17    18    1
    18     6    19    1
    19    19    20    1
    20    19    21    1
    21    21    22    1
    22    21    23    1
    23    23    24    1
    24    23    25    1
    25    25    26    1
    26    16    10    1
@<TRIPOS>SUBSTRUCTURE
     1 RES1        1 GROUP             0 ****  ****    0  
@<TRIPOS>MOLECULE
ligand_83
    26    26     1     0     0
SMALL
USER_CHARGES
****
Generated from the CSD

@<TRIPOS>ATOM
     1 O1      44.4988  88.7371  35.1608   O.2       1 RES1   0.0000
     2 S2      43.2989  88.4452  35.9849   S.o2      1 RES1   0.0000
     3 O3      43.5974  88.4328  37.4292   O.2       1 RES1   0.0000
     4 O4      42.8117  87.1256  35.5223   O.3       1 RES1  -1.0000
     5 O5      42.1597  89.5962  35.8289   O.3       1 RES1   0.0000
     6 C6      41.6043  89.9210  34.5650   C.3       1 RES1   0.0000
     7 C7      41.7331  91.4430  34.3571   C.3       1 RES1   0.0000
     8 O8      41.0697  91.7891  33.1387   O.3       1 RES1   0.0000
     9 C9      43.1799  91.9727  34.4072   C.3       1 RES1   0.0000
    10 S10     43.4613  93.6237  34.1705   S.3       1 RES1   1.0000
    11 C11     45.0934  93.7717  33.3791   C.3       1 RES1   0.0000
    12 C12     46.0259  94.2701  34.3545   C.3       1 RES1   0.0000
    13 O13     47.0101  95.2461  33.9259   O.3       1 RES1   0.0000
    14 C14     45.3733  94.8411  35.4829   C.3       1 RES1   0.0000
    15 O15     46.1932  94.7887  36.6511   O.3       1 RES1   0.0000
    16 C16     44.0750  94.1482  35.7630   C.3       1 RES1   0.0000
    17 C17     43.1530  95.0011  36.6265   C.3       1 RES1   0.0000
    18 O18     43.6611  95.2948  37.9390   O.3       1 RES1   0.0000
    19 C19     40.1237  89.5038  34.6325   C.3       1 RES1   0.0000
    20 O20     39.5279  90.1514  35.7688   O.3       1 RES1   0.0000
    21 C21     39.8462  87.9920  34.7251   C.3       1 RES1   0.0000
    22 O22     40.5645  87.2674  33.7359   O.3       1 RES1   0.0000
    23 C23     38.3662  87.6573  34.5297   C.3       1 RES1   0.0000
    24 O24     38.1878  86.2541  34.3023   O.3       1 RES1   0.0000
    25 C25     37.5224  88.1291  35.7306   C.3       1 RES1   0.0000
    26 O26     36.1403  87.8510  35.4079   O.3       1 RES1   0.0000
@<TRIPOS>BOND
     1     1     2    2
     2     2     3    2
     3     2     4    1
     4     2     5    1
     5     6     5    1
     6     6     7    1
     7     7     8    1
     8     7     9    1
     9    10     9    1
    10    10    11    1
    11    11    12    1
    12    12    13    1
    13    12    14    1
    14    14    15    1
    15    14    16    1
    16    16    17    1
    17    17    18    1
    18     6    19    1
    19    19    20    1
    20    19    21    1
    21    21    22    1
    22    21    23    1
    23    23    24    1
    24    23    25    1
    25    25    26    1
    26    16    10    1
@<TRIPOS>SUBSTRUCTURE
     1 RES1        1 GROUP             0 ****  ****    0  
@<TRIPOS>MOLECULE
ligand_84
    26    26     1     0     0
SMALL
USER_CHARGES
****
Generated from the CSD

@<TRIPOS>ATOM
     1 O1      38.0573  91.4000  33.6694   O.2       1 RES1   0.0000
     2 S2      39.0512  90.5056  34.3147   S.o2      1 RES1   0.0000
     3 O3      39.5252  89.4435  33.4078   O.2       1 RES1   0.0000
     4 O4      38.3652  89.9393  35.4985   O.3       1 RES1  -1.0000
     5 O5      40.4076  91.3029  34.7290   O.3       1 RES1   0.0000
     6 C6      40.3720  92.4193  35.6028   C.3       1 RES1   0.0000
     7 C7      41.0989  93.5932  34.9174   C.3       1 RES1   0.0000
     8 O8      40.3003  94.0373  33.8177   O.3       1 RES1   0.0000
     9 C9      42.5512  93.2873  34.5008   C.3       1 RES1   0.0000
    10 S10     43.4425  94.4736  33.6888   S.3       1 RES1   1.0000
    11 C11     45.0737  93.7520  33.3279   C.3       1 RES1   0.0000
    12 C12     46.0178  94.2668  34.2834   C.3       1 RES1   0.0000
    13 O13     46.9952  95.2371  33.8270   O.3       1 RES1   0.0000
    14 C14     45.3788  94.8549  35.4108   C.3       1 RES1   0.0000
    15 O15     45.1569  93.9012  36.4505   O.3       1 RES1   0.0000
    16 C16     44.0706  95.4754  35.0266   C.3       1 RES1   0.0000
    17 C17     44.2052  96.9735  34.7808   C.3       1 RES1   0.0000
    18 O18     42.9709  97.6456  34.4774   O.3       1 RES1   0.0000
    19 C19     41.1199  91.9847  36.8767   C.3       1 RES1   0.0000
    20 O20     42.2205  91.1472  36.4854   O.3       1 RES1   0.0000
    21 C21     40.2856  91.2399  37.9351   C.3       1 RES1   0.0000
    22 O22     39.1762  92.0160  38.3668   O.3       1 RES1   0.0000
    23 C23     41.0989  90.8988  39.1852   C.3       1 RES1   0.0000
    24 O24     41.4891  92.0901  39.8788   O.3       1 RES1   0.0000
    25 C25     40.3191  89.9519  40.1190   C.3       1 RES1   0.0000
    26 O26     39.1474  90.6729  40.5651   O.3       1 RES1   0.0000
@<TRIPOS>BOND
     1     1     2    2
     2     2     3    2
     3     2     4    1
     4     2     5    1
     5     6     5    1
     6     6     7    1
     7     7     8    1
     8     7     9    1
     9    10     9    1
    10    10    11    1
    11    11    12    1
    12    12    13    1
    13    12    14    1
    14    14    15    1
    15    14    16    1
    16    16    17    1
    17    17    18    1
    18     6    19    1
    19    19    20    1
    20    19    21    1
    21    21    22    1
    22    21    23    1
    23    23    24    1
    24    23    25    1
    25    25    26    1
    26    16    10    1
@<TRIPOS>SUBSTRUCTURE
     1 RES1        1 GROUP             0 ****  ****    0  
@<TRIPOS>MOLECULE
ligand_85
    26    26     1     0     0
SMALL
USER_CHARGES
****
Generated from the CSD

@<TRIPOS>ATOM
     1 O1      42.0150  92.3931  37.2791   O.2       1 RES1   0.0000
     2 S2      40.6203  91.9103  37.1183   S.o2      1 RES1   0.0000
     3 O3      39.6529  92.7184  37.8841   O.2       1 RES1   0.0000
     4 O4      40.6325  90.5028  37.5779   O.3       1 RES1  -1.0000
     5 O5      40.1069  92.0369  35.5796   O.3       1 RES1   0.0000
     6 C6      40.7908  91.3942  34.5162   C.3       1 RES1   0.0000
     7 C7      41.5363  92.4694  33.7011   C.3       1 RES1   0.0000
     8 O8      42.1367  91.8391  32.5668   O.3       1 RES1   0.0000
     9 C9      42.5496  93.2977  34.5156   C.3       1 RES1   0.0000
    10 S10     43.4533  94.4945  33.7332   S.3       1 RES1   1.0000
    11 C11     45.0915  93.7790  33.3921   C.3       1 RES1   0.0000
    12 C12     46.0182  94.2834  34.3699   C.3       1 RES1   0.0000
    13 O13     47.0021  95.2600  33.9420   O.3       1 RES1   0.0000
    14 C14     45.3590  94.8573  35.4930   C.3       1 RES1   0.0000
    15 O15     45.1204  93.8911  36.5173   O.3       1 RES1   0.0000
    16 C16     44.0569  95.4810  35.0936   C.3       1 RES1   0.0000
    17 C17     44.1938  96.9821  34.8680   C.3       1 RES1   0.0000
    18 O18     42.9641  97.6564  34.5513   O.3       1 RES1   0.0000
    19 C19     39.7040  90.7179  33.6605   C.3       1 RES1   0.0000
    20 O20     40.3470  89.7839  32.7773   O.3       1 RES1   0.0000
    21 C21     38.8151  91.6561  32.8234   C.3       1 RES1   0.0000
    22 O22     38.1399  92.6027  33.6403   O.3       1 RES1   0.0000
    23 C23     37.7386  90.8984  32.0439   C.3       1 RES1   0.0000
    24 O24     36.8401  90.2292  32.9369   O.3       1 RES1   0.0000
    25 C25     36.9686  91.8384  31.0951   C.3       1 RES1   0.0000
    26 O26     36.1135  91.0040  30.2799   O.3       1 RES1   0.0000
@<TRIPOS>BOND
     1     1     2    2
     2     2     3    2
     3     2     4    1
     4     2     5    1
     5     6     5    1
     6     6     7    1
     7     7     8    1
     8     7     9    1
     9    10     9    1
    10    10    11    1
    11    11    12    1
    12    12    13    1
    13    12    14    1
    14    14    15    1
    15    14    16    1
    16    16    17    1
    17    17    18    1
    18     6    19    1
    19    19    20    1
    20    19    21    1
    21    21    22    1
    22    21    23    1
    23    23    24    1
    24    23    25    1
    25    25    26    1
    26    16    10    1
@<TRIPOS>SUBSTRUCTURE
     1 RES1        1 GROUP             0 ****  ****    0  
@<TRIPOS>MOLECULE
ligand_86
    26    26     1     0     0
SMALL
USER_CHARGES
****
Generated from the CSD

@<TRIPOS>ATOM
     1 O1      44.9146  89.5325  34.9481   O.2       1 RES1   0.0000
     2 S2      44.2020  89.0215  36.1461   S.o2      1 RES1   0.0000
     3 O3      45.0128  89.1319  37.3731   O.2       1 RES1   0.0000
     4 O4      43.8737  87.6104  35.8402   O.3       1 RES1  -1.0000
     5 O5      42.8679  89.8920  36.4769   O.3       1 RES1   0.0000
     6 C6      41.8351  90.0561  35.5190   C.3       1 RES1   0.0000
     7 C7      41.8483  91.5212  35.0399   C.3       1 RES1   0.0000
     8 O8      40.7621  91.7074  34.1292   O.3       1 RES1   0.0000
     9 C9      43.1942  91.9863  34.4494   C.3       1 RES1   0.0000
    10 S10     43.4484  93.6362  34.1776   S.3       1 RES1   1.0000
    11 C11     45.1074  93.8005  33.4477   C.3       1 RES1   0.0000
    12 C12     45.9885  94.3469  34.4450   C.3       1 RES1   0.0000
    13 O13     46.9673  95.3335  34.0285   O.3       1 RES1   0.0000
    14 C14     45.2784  94.9331  35.5300   C.3       1 RES1   0.0000
    15 O15     46.0515  94.9317  36.7309   O.3       1 RES1   0.0000
    16 C16     43.9856  94.2182  35.7778   C.3       1 RES1   0.0000
    17 C17     43.0108  95.0726  36.5796   C.3       1 RES1   0.0000
    18 O18     43.4589  95.4138  37.9024   O.3       1 RES1   0.0000
    19 C19     40.5205  89.7350  36.2535   C.3       1 RES1   0.0000
    20 O20     40.4400  90.5773  37.4153   O.3       1 RES1   0.0000
    21 C21     40.3252  88.2717  36.6910   C.3       1 RES1   0.0000
    22 O22     40.3937  87.3821  35.5850   O.3       1 RES1   0.0000
    23 C23     38.9699  88.0389  37.3615   C.3       1 RES1   0.0000
    24 O24     37.8985  88.3027  36.4477   O.3       1 RES1   0.0000
    25 C25     38.8650  86.6100  37.9305   C.3       1 RES1   0.0000
    26 O26     39.8605  86.4992  38.9739   O.3       1 RES1   0.0000
@<TRIPOS>BOND
     1     1     2    2
     2     2     3    2
     3     2     4    1
     4     2     5    1
     5     6     5    1
     6     6     7    1
     7     7     8    1
     8     7     9    1
     9    10     9    1
    10    10    11    1
    11    11    12    1
    12    12    13    1
    13    12    14    1
    14    14    15    1
    15    14    16    1
    16    16    17    1
    17    17    18    1
    18     6    19    1
    19    19    20    1
    20    19    21    1
    21    21    22    1
    22    21    23    1
    23    23    24    1
    24    23    25    1
    25    25    26    1
    26    16    10    1
@<TRIPOS>SUBSTRUCTURE
     1 RES1        1 GROUP             0 ****  ****    0  
@<TRIPOS>MOLECULE
ligand_87
    26    26     1     0     0
SMALL
USER_CHARGES
****
Generated from the CSD

@<TRIPOS>ATOM
     1 O1      41.0722  88.5139  35.3449   O.2       1 RES1   0.0000
     2 S2      41.7210  88.0915  34.0781   S.o2      1 RES1   0.0000
     3 O3      40.7712  88.0332  32.9513   O.2       1 RES1   0.0000
     4 O4      42.3096  86.7620  34.3583   O.3       1 RES1  -1.0000
     5 O5      42.8479  89.1576  33.5875   O.3       1 RES1   0.0000
     6 C6      43.9516  89.4987  34.4101   C.3       1 RES1   0.0000
     7 C7      44.3201  90.9708  34.1389   C.3       1 RES1   0.0000
     8 O8      45.4968  91.2860  34.8873   O.3       1 RES1   0.0000
     9 C9      43.1763  91.9716  34.3967   C.3       1 RES1   0.0000
    10 S10     43.4568  93.6224  34.1576   S.3       1 RES1   1.0000
    11 C11     45.0785  93.7689  33.3451   C.3       1 RES1   0.0000
    12 C12     46.0244  94.2654  34.3086   C.3       1 RES1   0.0000
    13 O13     47.0041  95.2405  33.8679   O.3       1 RES1   0.0000
    14 C14     45.3873  94.8363  35.4459   C.3       1 RES1   0.0000
    15 O15     46.2224  94.7819  36.6032   O.3       1 RES1   0.0000
    16 C16     44.0919  94.1449  35.7424   C.3       1 RES1   0.0000
    17 C17     43.1824  94.9983  36.6186   C.3       1 RES1   0.0000
    18 O18     43.7080  95.2903  37.9245   O.3       1 RES1   0.0000
    19 C19     45.0997  88.5633  33.9885   C.3       1 RES1   0.0000
    20 O20     46.1212  88.6261  34.9976   O.3       1 RES1   0.0000
    21 C21     45.7419  88.8486  32.6184   C.3       1 RES1   0.0000
    22 O22     44.7832  88.7960  31.5709   O.3       1 RES1   0.0000
    23 C23     46.8368  87.8400  32.2657   C.3       1 RES1   0.0000
    24 O24     46.2949  86.5182  32.1573   O.3       1 RES1   0.0000
    25 C25     47.5694  88.2396  30.9695   C.3       1 RES1   0.0000
    26 O26     48.6915  87.3383  30.8262   O.3       1 RES1   0.0000
@<TRIPOS>BOND
     1     1     2    2
     2     2     3    2
     3     2     4    1
     4     2     5    1
     5     6     5    1
     6     6     7    1
     7     7     8    1
     8     7     9    1
     9    10     9    1
    10    10    11    1
    11    11    12    1
    12    12    13    1
    13    12    14    1
    14    14    15    1
    15    14    16    1
    16    16    17    1
    17    17    18    1
    18     6    19    1
    19    19    20    1
    20    19    21    1
    21    21    22    1
    22    21    23    1
    23    23    24    1
    24    23    25    1
    25    25    26    1
    26    16    10    1
@<TRIPOS>SUBSTRUCTURE
     1 RES1        1 GROUP             0 ****  ****    0  
@<TRIPOS>MOLECULE
ligand_88
    26    26     1     0     0
SMALL
USER_CHARGES
****
Generated from the CSD

@<TRIPOS>ATOM
     1 O1      39.8078  88.4167  33.6921   O.2       1 RES1   0.0000
     2 S2      41.1937  87.9768  33.9922   S.o2      1 RES1   0.0000
     3 O3      41.8667  87.3945  32.8160   O.2       1 RES1   0.0000
     4 O4      41.0674  86.9881  35.0873   O.3       1 RES1  -1.0000
     5 O5      42.1493  89.2241  34.4143   O.3       1 RES1   0.0000
     6 C6      41.8351  90.0561  35.5190   C.3       1 RES1   0.0000
     7 C7      41.8483  91.5212  35.0399   C.3       1 RES1   0.0000
     8 O8      40.7495  91.7129  34.1455   O.3       1 RES1   0.0000
     9 C9      43.1875  91.9798  34.4294   C.3       1 RES1   0.0000
    10 S10     43.4367  93.6262  34.1326   S.3       1 RES1   1.0000
    11 C11     45.0877  93.7825  33.3833   C.3       1 RES1   0.0000
    12 C12     45.9786  94.3433  34.3638   C.3       1 RES1   0.0000
    13 O13     46.9517  95.3253  33.9237   O.3       1 RES1   0.0000
    14 C14     45.2791  94.9434  35.4482   C.3       1 RES1   0.0000
    15 O15     46.0647  94.9591  36.6408   O.3       1 RES1   0.0000
    16 C16     43.9899  94.2304  35.7191   C.3       1 RES1   0.0000
    17 C17     43.0225  95.0945  36.5195   C.3       1 RES1   0.0000
    18 O18     43.4840  95.4540  37.8328   O.3       1 RES1   0.0000
    19 C19     42.9424  89.8136  36.5610   C.3       1 RES1   0.0000
    20 O20     43.0283  88.3992  36.8015   O.3       1 RES1   0.0000
    21 C21     42.7755  90.5341  37.9116   C.3       1 RES1   0.0000
    22 O22     42.6496  91.9393  37.7421   O.3       1 RES1   0.0000
    23 C23     43.9661  90.3070  38.8452   C.3       1 RES1   0.0000
    24 O24     43.9551  91.2514  39.9225   O.3       1 RES1   0.0000
    25 C25     43.9877  88.8625  39.3834   C.3       1 RES1   0.0000
    26 O26     42.7186  88.6400  40.0404   O.3       1 RES1   0.0000
@<TRIPOS>BOND
     1     1     2    2
     2     2     3    2
     3     2     4    1
     4     2     5    1
     5     6     5    1
     6     6     7    1
     7     7     8    1
     8     7     9    1
     9    10     9    1
    10    10    11    1
    11    11    12    1
    12    12    13    1
    13    12    14    1
    14    14    15    1
    15    14    16    1
    16    16    17    1
    17    17    18    1
    18     6    19    1
    19    19    20    1
    20    19    21    1
    21    21    22    1
    22    21    23    1
    23    23    24    1
    24    23    25    1
    25    25    26    1
    26    16    10    1
@<TRIPOS>SUBSTRUCTURE
     1 RES1        1 GROUP             0 ****  ****    0  
@<TRIPOS>MOLECULE
ligand_89
    26    26     1     0     0
SMALL
USER_CHARGES
****
Generated from the CSD

@<TRIPOS>ATOM
     1 O1      44.6674  89.4217  34.2161   O.2       1 RES1   0.0000
     2 S2      44.2191  88.8803  35.5238   S.o2      1 RES1   0.0000
     3 O3      45.2961  88.8784  36.5314   O.2       1 RES1   0.0000
     4 O4      43.7404  87.5078  35.2416   O.3       1 RES1  -1.0000
     5 O5      43.0550  89.7980  36.1946   O.3       1 RES1   0.0000
     6 C6      41.8351  90.0561  35.5190   C.3       1 RES1   0.0000
     7 C7      41.8483  91.5212  35.0399   C.3       1 RES1   0.0000
     8 O8      40.7285  91.7224  34.1741   O.3       1 RES1   0.0000
     9 C9      43.1751  91.9687  34.3951   C.3       1 RES1   0.0000
    10 S10     43.4504  93.6174  34.1363   S.3       1 RES1   1.0000
    11 C11     45.0774  93.7601  33.3336   C.3       1 RES1   0.0000
    12 C12     46.0142  94.2733  34.2973   C.3       1 RES1   0.0000
    13 O13     46.9930  95.2466  33.8509   O.3       1 RES1   0.0000
    14 C14     45.3664  94.8564  35.4224   C.3       1 RES1   0.0000
    15 O15     46.1933  94.8208  36.5863   O.3       1 RES1   0.0000
    16 C16     44.0719  94.1634  35.7186   C.3       1 RES1   0.0000
    17 C17     43.1524  95.0243  36.5768   C.3       1 RES1   0.0000
    18 O18     41.9198  94.3903  36.9587   O.3       1 RES1   0.0000
    19 C19     40.7200  89.8324  36.5569   C.3       1 RES1   0.0000
    20 O20     40.9986  90.6605  37.6982   O.3       1 RES1   0.0000
    21 C21     40.5176  88.3834  37.0368   C.3       1 RES1   0.0000
    22 O22     40.4187  87.4802  35.9442   O.3       1 RES1   0.0000
    23 C23     39.2422  88.2157  37.8650   C.3       1 RES1   0.0000
    24 O24     38.9347  86.8287  38.0500   O.3       1 RES1   0.0000
    25 C25     39.3577  88.9368  39.2227   C.3       1 RES1   0.0000
    26 O26     40.5266  88.4011  39.8848   O.3       1 RES1   0.0000
@<TRIPOS>BOND
     1     1     2    2
     2     2     3    2
     3     2     4    1
     4     2     5    1
     5     6     5    1
     6     6     7    1
     7     7     8    1
     8     7     9    1
     9    10     9    1
    10    10    11    1
    11    11    12    1
    12    12    13    1
    13    12    14    1
    14    14    15    1
    15    14    16    1
    16    16    17    1
    17    17    18    1
    18     6    19    1
    19    19    20    1
    20    19    21    1
    21    21    22    1
    22    21    23    1
    23    23    24    1
    24    23    25    1
    25    25    26    1
    26    16    10    1
@<TRIPOS>SUBSTRUCTURE
     1 RES1        1 GROUP             0 ****  ****    0  
@<TRIPOS>MOLECULE
ligand_90
    26    26     1     0     0
SMALL
USER_CHARGES
****
Generated from the CSD

@<TRIPOS>ATOM
     1 O1      44.5540  87.7862  36.6659   O.2       1 RES1   0.0000
     2 S2      43.4268  88.0520  35.7369   S.o2      1 RES1   0.0000
     3 O3      42.3047  87.1146  35.9306   O.2       1 RES1   0.0000
     4 O4      43.9989  87.9365  34.3761   O.3       1 RES1  -1.0000
     5 O5      42.7637  89.5162  35.9891   O.3       1 RES1   0.0000
     6 C6      41.6976  89.9940  35.1850   C.3       1 RES1   0.0000
     7 C7      41.8483  91.5212  35.0399   C.3       1 RES1   0.0000
     8 O8      40.7194  92.0189  34.3174   O.3       1 RES1   0.0000
     9 C9      43.1858  91.9735  34.4209   C.3       1 RES1   0.0000
    10 S10     43.4680  93.6245  34.1855   S.3       1 RES1   1.0000
    11 C11     45.1075  93.7732  33.4097   C.3       1 RES1   0.0000
    12 C12     46.0301  94.2734  34.3936   C.3       1 RES1   0.0000
    13 O13     47.0175  95.2499  33.9736   O.3       1 RES1   0.0000
    14 C14     45.3661  94.8447  35.5152   C.3       1 RES1   0.0000
    15 O15     46.1748  94.7941  36.6913   O.3       1 RES1   0.0000
    16 C16     44.0659  94.1510  35.7834   C.3       1 RES1   0.0000
    17 C17     43.1348  95.0037  36.6372   C.3       1 RES1   0.0000
    18 O18     41.8953  94.3678  36.9927   O.3       1 RES1   0.0000
    19 C19     40.4044  89.6439  35.9438   C.3       1 RES1   0.0000
    20 O20     39.2971  89.8170  35.0440   O.3       1 RES1   0.0000
    21 C21     40.1282  90.4501  37.2263   C.3       1 RES1   0.0000
    22 O22     41.2424  90.4271  38.1080   O.3       1 RES1   0.0000
    23 C23     38.9328  89.9066  38.0113   C.3       1 RES1   0.0000
    24 O24     38.8931  90.4664  39.3295   O.3       1 RES1   0.0000
    25 C25     37.6087  90.1667  37.2657   C.3       1 RES1   0.0000
    26 O26     37.5270  91.5929  37.0398   O.3       1 RES1   0.0000
@<TRIPOS>BOND
     1     1     2    2
     2     2     3    2
     3     2     4    1
     4     2     5    1
     5     6     5    1
     6     6     7    1
     7     7     8    1
     8     7     9    1
     9    10     9    1
    10    10    11    1
    11    11    12    1
    12    12    13    1
    13    12    14    1
    14    14    15    1
    15    14    16    1
    16    16    17    1
    17    17    18    1
    18     6    19    1
    19    19    20    1
    20    19    21    1
    21    21    22    1
    22    21    23    1
    23    23    24    1
    24    23    25    1
    25    25    26    1
    26    16    10    1
@<TRIPOS>SUBSTRUCTURE
     1 RES1        1 GROUP             0 ****  ****    0  
@<TRIPOS>MOLECULE
ligand_91
    26    26     1     0     0
SMALL
USER_CHARGES
****
Generated from the CSD

@<TRIPOS>ATOM
     1 O1      39.5046  94.1167  35.8122   O.2       1 RES1   0.0000
     2 S2      39.4002  94.0159  34.3347   S.o2      1 RES1   0.0000
     3 O3      39.6515  95.3048  33.6633   O.2       1 RES1   0.0000
     4 O4      38.0291  93.5251  34.0667   O.3       1 RES1  -1.0000
     5 O5      40.5279  93.0221  33.7122   O.3       1 RES1   0.0000
     6 C6      40.6230  91.6658  34.1159   C.3       1 RES1   0.0000
     7 C7      41.8483  91.5212  35.0399   C.3       1 RES1   0.0000
     8 O8      41.5960  92.2547  36.2410   O.3       1 RES1   0.0000
     9 C9      43.1889  91.9111  34.3862   C.3       1 RES1   0.0000
    10 S10     43.5008  93.5402  34.0550   S.3       1 RES1   1.0000
    11 C11     45.1362  93.6123  33.2599   C.3       1 RES1   0.0000
    12 C12     46.0766  94.1493  34.2069   C.3       1 RES1   0.0000
    13 O13     47.0790  95.0807  33.7246   O.3       1 RES1   0.0000
    14 C14     45.4333  94.7965  35.2989   C.3       1 RES1   0.0000
    15 O15     46.2509  94.7968  36.4700   O.3       1 RES1   0.0000
    16 C16     44.1223  94.1448  35.6158   C.3       1 RES1   0.0000
    17 C17     43.2151  95.0629  36.4265   C.3       1 RES1   0.0000
    18 O18     43.7271  95.4228  37.7209   O.3       1 RES1   0.0000
    19 C19     40.8162  90.8513  32.8236   C.3       1 RES1   0.0000
    20 O20     39.7208  91.1462  31.9411   O.3       1 RES1   0.0000
    21 C21     40.9173  89.3239  32.9905   C.3       1 RES1   0.0000
    22 O22     42.0654  88.9554  33.7425   O.3       1 RES1   0.0000
    23 C23     41.0160  88.5955  31.6488   C.3       1 RES1   0.0000
    24 O24     42.2076  88.9756  30.9501   O.3       1 RES1   0.0000
    25 C25     40.9551  87.0665  31.8362   C.3       1 RES1   0.0000
    26 O26     40.8686  86.4844  30.5150   O.3       1 RES1   0.0000
@<TRIPOS>BOND
     1     1     2    2
     2     2     3    2
     3     2     4    1
     4     2     5    1
     5     6     5    1
     6     6     7    1
     7     7     8    1
     8     7     9    1
     9    10     9    1
    10    10    11    1
    11    11    12    1
    12    12    13    1
    13    12    14    1
    14    14    15    1
    15    14    16    1
    16    16    17    1
    17    17    18    1
    18     6    19    1
    19    19    20    1
    20    19    21    1
    21    21    22    1
    22    21    23    1
    23    23    24    1
    24    23    25    1
    25    25    26    1
    26    16    10    1
@<TRIPOS>SUBSTRUCTURE
     1 RES1        1 GROUP             0 ****  ****    0  
@<TRIPOS>MOLECULE
ligand_92
    26    26     1     0     0
SMALL
USER_CHARGES
****
Generated from the CSD

@<TRIPOS>ATOM
     1 O1      39.8400  96.8203  34.0060   O.2       1 RES1   0.0000
     2 S2      39.8463  96.0975  32.7093   S.o2      1 RES1   0.0000
     3 O3      40.6263  96.8030  31.6752   O.2       1 RES1   0.0000
     4 O4      38.4235  95.9695  32.3198   O.3       1 RES1  -1.0000
     5 O5      40.5715  94.6457  32.8262   O.3       1 RES1   0.0000
     6 C6      40.1112  93.6598  33.7358   C.3       1 RES1   0.0000
     7 C7      41.0989  93.5932  34.9174   C.3       1 RES1   0.0000
     8 O8      41.0336  94.8312  35.6296   O.3       1 RES1   0.0000
     9 C9      42.5414  93.2204  34.5217   C.3       1 RES1   0.0000
    10 S10     43.4727  94.3361  33.6564   S.3       1 RES1   1.0000
    11 C11     45.0803  93.5452  33.3372   C.3       1 RES1   0.0000
    12 C12     46.0386  94.0750  34.2702   C.3       1 RES1   0.0000
    13 O13     47.0481  94.9896  33.7709   O.3       1 RES1   0.0000
    14 C14     45.4166  94.7376  35.3653   C.3       1 RES1   0.0000
    15 O15     45.1614  93.8433  36.4492   O.3       1 RES1   0.0000
    16 C16     44.1302  95.3809  34.9464   C.3       1 RES1   0.0000
    17 C17     44.3142  96.8602  34.6288   C.3       1 RES1   0.0000
    18 O18     43.1032  97.5564  34.2884   O.3       1 RES1   0.0000
    19 C19     40.1052  92.3326  32.9553   C.3       1 RES1   0.0000
    20 O20     39.3326  92.5212  31.7581   O.3       1 RES1   0.0000
    21 C21     39.5592  91.1040  33.7059   C.3       1 RES1   0.0000
    22 O22     40.2674  90.8739  34.9162   O.3       1 RES1   0.0000
    23 C23     39.6668  89.8204  32.8805   C.3       1 RES1   0.0000
    24 O24     39.5360  88.6650  33.7175   O.3       1 RES1   0.0000
    25 C25     38.6236  89.7956  31.7457   C.3       1 RES1   0.0000
    26 O26     38.8737  88.5998  30.9714   O.3       1 RES1   0.0000
@<TRIPOS>BOND
     1     1     2    2
     2     2     3    2
     3     2     4    1
     4     2     5    1
     5     6     5    1
     6     6     7    1
     7     7     8    1
     8     7     9    1
     9    10     9    1
    10    10    11    1
    11    11    12    1
    12    12    13    1
    13    12    14    1
    14    14    15    1
    15    14    16    1
    16    16    17    1
    17    17    18    1
    18     6    19    1
    19    19    20    1
    20    19    21    1
    21    21    22    1
    22    21    23    1
    23    23    24    1
    24    23    25    1
    25    25    26    1
    26    16    10    1
@<TRIPOS>SUBSTRUCTURE
     1 RES1        1 GROUP             0 ****  ****    0  
@<TRIPOS>MOLECULE
ligand_93
    26    26     1     0     0
SMALL
USER_CHARGES
****
Generated from the CSD

@<TRIPOS>ATOM
     1 O1      39.8418  96.8204  34.0070   O.2       1 RES1   0.0000
     2 S2      39.8470  96.0979  32.7100   S.o2      1 RES1   0.0000
     3 O3      40.6268  96.8033  31.6758   O.2       1 RES1   0.0000
     4 O4      38.4239  95.9707  32.3213   O.3       1 RES1  -1.0000
     5 O5      40.5715  94.6457  32.8262   O.3       1 RES1   0.0000
     6 C6      40.1112  93.6598  33.7358   C.3       1 RES1   0.0000
     7 C7      41.0989  93.5932  34.9174   C.3       1 RES1   0.0000
     8 O8      41.0273  94.8279  35.6347   O.3       1 RES1   0.0000
     9 C9      42.5433  93.2292  34.5206   C.3       1 RES1   0.0000
    10 S10     43.4726  94.3568  33.6685   S.3       1 RES1   1.0000
    11 C11     45.0833  93.5745  33.3442   C.3       1 RES1   0.0000
    12 C12     46.0382  94.0978  34.2844   C.3       1 RES1   0.0000
    13 O13     47.0456  95.0208  33.7964   O.3       1 RES1   0.0000
    14 C14     45.4120  94.7471  35.3851   C.3       1 RES1   0.0000
    15 O15     45.1577  93.8408  36.4592   O.3       1 RES1   0.0000
    16 C16     44.1243  95.3904  34.9705   C.3       1 RES1   0.0000
    17 C17     44.3039  96.8735  34.6684   C.3       1 RES1   0.0000
    18 O18     44.7258  97.6680  35.7899   O.3       1 RES1   0.0000
    19 C19     40.1052  92.3326  32.9553   C.3       1 RES1   0.0000
    20 O20     39.2921  92.5067  31.7830   O.3       1 RES1   0.0000
    21 C21     39.6058  91.0943  33.7222   C.3       1 RES1   0.0000
    22 O22     40.4524  90.7832  34.8202   O.3       1 RES1   0.0000
    23 C23     39.5495  89.8453  32.8405   C.3       1 RES1   0.0000
    24 O24     40.8654  89.4485  32.4360   O.3       1 RES1   0.0000
    25 C25     38.8240  88.6879  33.5551   C.3       1 RES1   0.0000
    26 O26     39.6170  88.3480  34.7159   O.3       1 RES1   0.0000
@<TRIPOS>BOND
     1     1     2    2
     2     2     3    2
     3     2     4    1
     4     2     5    1
     5     6     5    1
     6     6     7    1
     7     7     8    1
     8     7     9    1
     9    10     9    1
    10    10    11    1
    11    11    12    1
    12    12    13    1
    13    12    14    1
    14    14    15    1
    15    14    16    1
    16    16    17    1
    17    17    18    1
    18     6    19    1
    19    19    20    1
    20    19    21    1
    21    21    22    1
    22    21    23    1
    23    23    24    1
    24    23    25    1
    25    25    26    1
    26    16    10    1
@<TRIPOS>SUBSTRUCTURE
     1 RES1        1 GROUP             0 ****  ****    0  
@<TRIPOS>MOLECULE
ligand_94
    26    26     1     0     0
SMALL
USER_CHARGES
****
Generated from the CSD

@<TRIPOS>ATOM
     1 O1      45.0775  87.9271  36.5433   O.2       1 RES1   0.0000
     2 S2      43.6503  87.8657  36.1388   S.o2      1 RES1   0.0000
     3 O3      42.7357  87.8885  37.2957   O.2       1 RES1   0.0000
     4 O4      43.5113  86.6113  35.3645   O.3       1 RES1  -1.0000
     5 O5      43.2100  89.1651  35.2642   O.3       1 RES1   0.0000
     6 C6      43.8682  89.4995  34.0533   C.3       1 RES1   0.0000
     7 C7      44.3201  90.9708  34.1389   C.3       1 RES1   0.0000
     8 O8      45.3268  91.0749  35.1487   O.3       1 RES1   0.0000
     9 C9      43.1726  91.9784  34.3496   C.3       1 RES1   0.0000
    10 S10     43.5098  93.6349  34.2908   S.3       1 RES1   1.0000
    11 C11     45.2457  93.8009  33.7705   C.3       1 RES1   0.0000
    12 C12     46.0246  94.1987  34.9127   C.3       1 RES1   0.0000
    13 O13     47.0762  95.1790  34.7176   O.3       1 RES1   0.0000
    14 C14     45.2147  94.6981  35.9710   C.3       1 RES1   0.0000
    15 O15     45.8451  94.5350  37.2421   O.3       1 RES1   0.0000
    16 C16     43.8794  94.0196  35.9948   C.3       1 RES1   0.0000
    17 C17     42.8478  94.8272  36.7737   C.3       1 RES1   0.0000
    18 O18     43.1529  95.0061  38.1673   O.3       1 RES1   0.0000
    19 C19     42.8232  89.3146  32.9376   C.3       1 RES1   0.0000
    20 O20     42.2832  87.9871  33.0462   O.3       1 RES1   0.0000
    21 C21     43.3214  89.5279  31.4963   C.3       1 RES1   0.0000
    22 O22     43.8899  90.8190  31.3257   O.3       1 RES1   0.0000
    23 C23     42.1980  89.4004  30.4657   C.3       1 RES1   0.0000
    24 O24     42.5851  89.9853  29.2165   O.3       1 RES1   0.0000
    25 C25     41.7779  87.9294  30.2748   C.3       1 RES1   0.0000
    26 O26     40.6523  87.9285  29.3666   O.3       1 RES1   0.0000
@<TRIPOS>BOND
     1     1     2    2
     2     2     3    2
     3     2     4    1
     4     2     5    1
     5     6     5    1
     6     6     7    1
     7     7     8    1
     8     7     9    1
     9    10     9    1
    10    10    11    1
    11    11    12    1
    12    12    13    1
    13    12    14    1
    14    14    15    1
    15    14    16    1
    16    16    17    1
    17    17    18    1
    18     6    19    1
    19    19    20    1
    20    19    21    1
    21    21    22    1
    22    21    23    1
    23    23    24    1
    24    23    25    1
    25    25    26    1
    26    16    10    1
@<TRIPOS>SUBSTRUCTURE
     1 RES1        1 GROUP             0 ****  ****    0  
@<TRIPOS>MOLECULE
ligand_95
    26    26     1     0     0
SMALL
USER_CHARGES
****
Generated from the CSD

@<TRIPOS>ATOM
     1 O1      39.0628  90.2278  34.7114   O.2       1 RES1   0.0000
     2 S2      39.9711  89.1147  34.3370   S.o2      1 RES1   0.0000
     3 O3      39.8190  88.7145  32.9256   O.2       1 RES1   0.0000
     4 O4      39.6335  88.0020  35.2538   O.3       1 RES1  -1.0000
     5 O5      41.5366  89.5407  34.4581   O.3       1 RES1   0.0000
     6 C6      42.0861  89.9991  35.6826   C.3       1 RES1   0.0000
     7 C7      42.2869  91.5241  35.5816   C.3       1 RES1   0.0000
     8 O8      41.0016  92.1422  35.4805   O.3       1 RES1   0.0000
     9 C9      43.2406  91.9679  34.4547   C.3       1 RES1   0.0000
    10 S10     43.5281  93.6183  34.2211   S.3       1 RES1   1.0000
    11 C11     45.1923  93.7661  33.4997   C.3       1 RES1   0.0000
    12 C12     46.0810  94.2722  34.5114   C.3       1 RES1   0.0000
    13 O13     47.0804  95.2483  34.1200   O.3       1 RES1   0.0000
    14 C14     45.3792  94.8476  35.6076   C.3       1 RES1   0.0000
    15 O15     46.1484  94.8036  36.8102   O.3       1 RES1   0.0000
    16 C16     44.0718  94.1530  35.8356   C.3       1 RES1   0.0000
    17 C17     43.1116  95.0082  36.6540   C.3       1 RES1   0.0000
    18 O18     41.8631  94.3708  36.9737   O.3       1 RES1   0.0000
    19 C19     43.4392  89.2804  35.8355   C.3       1 RES1   0.0000
    20 O20     43.2100  87.8662  35.7207   O.3       1 RES1   0.0000
    21 C21     44.2096  89.5506  37.1411   C.3       1 RES1   0.0000
    22 O22     44.5753  90.9187  37.2584   O.3       1 RES1   0.0000
    23 C23     45.5027  88.7385  37.2344   C.3       1 RES1   0.0000
    24 O24     46.4074  89.1003  36.1840   O.3       1 RES1   0.0000
    25 C25     46.1703  88.9056  38.6139   C.3       1 RES1   0.0000
    26 O26     47.2683  87.9656  38.6658   O.3       1 RES1   0.0000
@<TRIPOS>BOND
     1     1     2    2
     2     2     3    2
     3     2     4    1
     4     2     5    1
     5     6     5    1
     6     6     7    1
     7     7     8    1
     8     7     9    1
     9    10     9    1
    10    10    11    1
    11    11    12    1
    12    12    13    1
    13    12    14    1
    14    14    15    1
    15    14    16    1
    16    16    17    1
    17    17    18    1
    18     6    19    1
    19    19    20    1
    20    19    21    1
    21    21    22    1
    22    21    23    1
    23    23    24    1
    24    23    25    1
    25    25    26    1
    26    16    10    1
@<TRIPOS>SUBSTRUCTURE
     1 RES1        1 GROUP             0 ****  ****    0  
@<TRIPOS>MOLECULE
ligand_96
    26    26     1     0     0
SMALL
USER_CHARGES
****
Generated from the CSD

@<TRIPOS>ATOM
     1 O1      39.1892  91.4086  32.8254   O.2       1 RES1   0.0000
     2 S2      39.6348  90.5032  33.9143   S.o2      1 RES1   0.0000
     3 O3      40.3649  89.3271  33.4052   O.2       1 RES1   0.0000
     4 O4      38.4006  90.1055  34.6291   O.3       1 RES1  -1.0000
     5 O5      40.7000  91.2268  34.9087   O.3       1 RES1   0.0000
     6 C6      40.3720  92.4193  35.6028   C.3       1 RES1   0.0000
     7 C7      41.0989  93.5932  34.9174   C.3       1 RES1   0.0000
     8 O8      40.2613  94.0931  33.8720   O.3       1 RES1   0.0000
     9 C9      42.5198  93.2601  34.4208   C.3       1 RES1   0.0000
    10 S10     43.3985  94.4402  33.5864   S.3       1 RES1   1.0000
    11 C11     44.9902  93.6860  33.1284   C.3       1 RES1   0.0000
    12 C12     45.9947  94.1581  34.0436   C.3       1 RES1   0.0000
    13 O13     46.9721  95.1130  33.5558   O.3       1 RES1   0.0000
    14 C14     45.4293  94.7389  35.2133   C.3       1 RES1   0.0000
    15 O15     45.2364  93.7702  36.2449   O.3       1 RES1   0.0000
    16 C16     44.1196  95.3990  34.9088   C.3       1 RES1   0.0000
    17 C17     44.2798  96.8981  34.6848   C.3       1 RES1   0.0000
    18 O18     43.0492  97.6063  34.4581   O.3       1 RES1   0.0000
    19 C19     40.8846  92.2269  37.0419   C.3       1 RES1   0.0000
    20 O20     42.2554  91.8000  36.9752   O.3       1 RES1   0.0000
    21 C21     40.1002  91.2314  37.9164   C.3       1 RES1   0.0000
    22 O22     38.7029  91.4861  37.8730   O.3       1 RES1   0.0000
    23 C23     40.5149  91.2944  39.3877   C.3       1 RES1   0.0000
    24 O24     39.5676  90.6057  40.2130   O.3       1 RES1   0.0000
    25 C25     41.9341  90.7287  39.5939   C.3       1 RES1   0.0000
    26 O26     42.2631  90.9182  40.9895   O.3       1 RES1   0.0000
@<TRIPOS>BOND
     1     1     2    2
     2     2     3    2
     3     2     4    1
     4     2     5    1
     5     6     5    1
     6     6     7    1
     7     7     8    1
     8     7     9    1
     9    10     9    1
    10    10    11    1
    11    11    12    1
    12    12    13    1
    13    12    14    1
    14    14    15    1
    15    14    16    1
    16    16    17    1
    17    17    18    1
    18     6    19    1
    19    19    20    1
    20    19    21    1
    21    21    22    1
    22    21    23    1
    23    23    24    1
    24    23    25    1
    25    25    26    1
    26    16    10    1
@<TRIPOS>SUBSTRUCTURE
     1 RES1        1 GROUP             0 ****  ****    0  
@<TRIPOS>MOLECULE
ligand_97
    26    26     1     0     0
SMALL
USER_CHARGES
****
Generated from the CSD

@<TRIPOS>ATOM
     1 O1      42.3937  89.0445  33.0860   O.2       1 RES1   0.0000
     2 S2      42.0039  89.0290  34.5185   S.o2      1 RES1   0.0000
     3 O3      43.0668  88.4864  35.3853   O.2       1 RES1   0.0000
     4 O4      40.7767  88.2033  34.5865   O.3       1 RES1  -1.0000
     5 O5      41.7531  90.5291  35.0965   O.3       1 RES1   0.0000
     6 C6      40.7908  91.3942  34.5162   C.3       1 RES1   0.0000
     7 C7      41.5363  92.4694  33.7011   C.3       1 RES1   0.0000
     8 O8      42.1971  91.8280  32.6073   O.3       1 RES1   0.0000
     9 C9      42.4941  93.3476  34.5305   C.3       1 RES1   0.0000
    10 S10     43.4117  94.5328  33.7469   S.3       1 RES1   1.0000
    11 C11     45.0772  93.8387  33.5104   C.3       1 RES1   0.0000
    12 C12     45.9468  94.3975  34.5109   C.3       1 RES1   0.0000
    13 O13     46.9317  95.3776  34.0932   O.3       1 RES1   0.0000
    14 C14     45.2242  94.9989  35.5793   C.3       1 RES1   0.0000
    15 O15     44.9549  94.0663  36.6270   O.3       1 RES1   0.0000
    16 C16     43.9313  95.5808  35.0959   C.3       1 RES1   0.0000
    17 C17     44.0509  97.0751  34.8206   C.3       1 RES1   0.0000
    18 O18     44.3477  97.8769  35.9765   O.3       1 RES1   0.0000
    19 C19     40.0304  92.0327  35.6930   C.3       1 RES1   0.0000
    20 O20     39.5704  90.9774  36.5535   O.3       1 RES1   0.0000
    21 C21     38.8316  92.9260  35.3242   C.3       1 RES1   0.0000
    22 O22     39.2086  93.9628  34.4286   O.3       1 RES1   0.0000
    23 C23     38.2104  93.6032  36.5473   C.3       1 RES1   0.0000
    24 O24     37.3417  94.6713  36.1508   O.3       1 RES1   0.0000
    25 C25     37.4599  92.5859  37.4296   C.3       1 RES1   0.0000
    26 O26     36.4749  91.9449  36.5866   O.3       1 RES1   0.0000
@<TRIPOS>BOND
     1     1     2    2
     2     2     3    2
     3     2     4    1
     4     2     5    1
     5     6     5    1
     6     6     7    1
     7     7     8    1
     8     7     9    1
     9    10     9    1
    10    10    11    1
    11    11    12    1
    12    12    13    1
    13    12    14    1
    14    14    15    1
    15    14    16    1
    16    16    17    1
    17    17    18    1
    18     6    19    1
    19    19    20    1
    20    19    21    1
    21    21    22    1
    22    21    23    1
    23    23    24    1
    24    23    25    1
    25    25    26    1
    26    16    10    1
@<TRIPOS>SUBSTRUCTURE
     1 RES1        1 GROUP             0 ****  ****    0  
@<TRIPOS>MOLECULE
ligand_98
    26    26     1     0     0
SMALL
USER_CHARGES
****
Generated from the CSD

@<TRIPOS>ATOM
     1 O1      40.8159  90.2185  35.3335   O.2       1 RES1   0.0000
     2 S2      40.7947  89.2884  34.1765   S.o2      1 RES1   0.0000
     3 O3      39.5962  89.4637  33.3350   O.2       1 RES1   0.0000
     4 O4      40.8514  87.9286  34.7598   O.3       1 RES1  -1.0000
     5 O5      42.0336  89.5583  33.1569   O.3       1 RES1   0.0000
     6 C6      43.3798  89.5179  33.6013   C.3       1 RES1   0.0000
     7 C7      43.9492  90.9495  33.5492   C.3       1 RES1   0.0000
     8 O8      45.3267  90.9006  33.9294   O.3       1 RES1   0.0000
     9 C9      43.1515  91.9827  34.3693   C.3       1 RES1   0.0000
    10 S10     43.3706  93.6302  34.0551   S.3       1 RES1   1.0000
    11 C11     44.9455  93.7904  33.1574   C.3       1 RES1   0.0000
    12 C12     45.9222  94.3500  34.0532   C.3       1 RES1   0.0000
    13 O13     46.8496  95.3343  33.5280   O.3       1 RES1   0.0000
    14 C14     45.3248  94.9465  35.1989   C.3       1 RES1   0.0000
    15 O15     46.2169  94.9603  36.3142   O.3       1 RES1   0.0000
    16 C16     44.0668  94.2311  35.5855   C.3       1 RES1   0.0000
    17 C17     43.1762  95.0920  36.4737   C.3       1 RES1   0.0000
    18 O18     41.9833  94.4393  36.9408   O.3       1 RES1   0.0000
    19 C19     44.1244  88.5992  32.6152   C.3       1 RES1   0.0000
    20 O20     43.9138  89.1050  31.2865   O.3       1 RES1   0.0000
    21 C21     43.7326  87.1104  32.6438   C.3       1 RES1   0.0000
    22 O22     43.9177  86.5461  33.9348   O.3       1 RES1   0.0000
    23 C23     44.5625  86.2698  31.6716   C.3       1 RES1   0.0000
    24 O24     45.9377  86.2385  32.0721   O.3       1 RES1   0.0000
    25 C25     43.9969  84.8414  31.5430   C.3       1 RES1   0.0000
    26 O26     44.1324  84.2176  32.8408   O.3       1 RES1   0.0000
@<TRIPOS>BOND
     1     1     2    2
     2     2     3    2
     3     2     4    1
     4     2     5    1
     5     6     5    1
     6     6     7    1
     7     7     8    1
     8     7     9    1
     9    10     9    1
    10    10    11    1
    11    11    12    1
    12    12    13    1
    13    12    14    1
    14    14    15    1
    15    14    16    1
    16    16    17    1
    17    17    18    1
    18     6    19    1
    19    19    20    1
    20    19    21    1
    21    21    22    1
    22    21    23    1
    23    23    24    1
    24    23    25    1
    25    25    26    1
    26    16    10    1
@<TRIPOS>SUBSTRUCTURE
     1 RES1        1 GROUP             0 ****  ****    0  
@<TRIPOS>MOLECULE
ligand_99
    26    26     1     0     0
SMALL
USER_CHARGES
****
Generated from the CSD

@<TRIPOS>ATOM
     1 O1      39.1892  91.4086  32.8254   O.2       1 RES1   0.0000
     2 S2      39.6348  90.5032  33.9143   S.o2      1 RES1   0.0000
     3 O3      40.3649  89.3271  33.4052   O.2       1 RES1   0.0000
     4 O4      38.4006  90.1055  34.6291   O.3       1 RES1  -1.0000
     5 O5      40.7000  91.2268  34.9087   O.3       1 RES1   0.0000
     6 C6      40.3720  92.4193  35.6028   C.3       1 RES1   0.0000
     7 C7      41.0989  93.5932  34.9174   C.3       1 RES1   0.0000
     8 O8      40.2629  94.0908  33.8696   O.3       1 RES1   0.0000
     9 C9      42.5212  93.2612  34.4242   C.3       1 RES1   0.0000
    10 S10     43.3991  94.4402  33.5874   S.3       1 RES1   1.0000
    11 C11     44.9929  93.6876  33.1345   C.3       1 RES1   0.0000
    12 C12     45.9951  94.1646  34.0497   C.3       1 RES1   0.0000
    13 O13     46.9714  95.1197  33.5604   O.3       1 RES1   0.0000
    14 C14     45.4266  94.7481  35.2166   C.3       1 RES1   0.0000
    15 O15     45.2339  93.7824  36.2510   O.3       1 RES1   0.0000
    16 C16     44.1162  95.4047  34.9079   C.3       1 RES1   0.0000
    17 C17     44.2739  96.9033  34.6792   C.3       1 RES1   0.0000
    18 O18     44.7343  97.6404  35.8245   O.3       1 RES1   0.0000
    19 C19     40.8846  92.2269  37.0419   C.3       1 RES1   0.0000
    20 O20     42.2549  91.7984  36.9752   O.3       1 RES1   0.0000
    21 C21     40.0992  91.2326  37.9169   C.3       1 RES1   0.0000
    22 O22     38.7306  91.5995  38.0248   O.3       1 RES1   0.0000
    23 C23     40.6479  91.1501  39.3427   C.3       1 RES1   0.0000
    24 O24     40.4580  92.3909  40.0332   O.3       1 RES1   0.0000
    25 C25     40.0063  89.9854  40.1228   C.3       1 RES1   0.0000
    26 O26     38.5958  90.2837  40.2381   O.3       1 RES1   0.0000
@<TRIPOS>BOND
     1     1     2    2
     2     2     3    2
     3     2     4    1
     4     2     5    1
     5     6     5    1
     6     6     7    1
     7     7     8    1
     8     7     9    1
     9    10     9    1
    10    10    11    1
    11    11    12    1
    12    12    13    1
    13    12    14    1
    14    14    15    1
    15    14    16    1
    16    16    17    1
    17    17    18    1
    18     6    19    1
    19    19    20    1
    20    19    21    1
    21    21    22    1
    22    21    23    1
    23    23    24    1
    24    23    25    1
    25    25    26    1
    26    16    10    1
@<TRIPOS>SUBSTRUCTURE
     1 RES1        1 GROUP             0 ****  ****    0  
