@<TRIPOS>MOLECULE
native
    33    36     1     0     0
SMALL
USER_CHARGES
****
Generated from the CSD

@<TRIPOS>ATOM
     1 C1      12.0830  -1.5890  23.6830   C.3       1 RES1   0.0000
     2 C2      12.0040  -0.3960  24.5970   C.2       1 RES1   0.0000
     3 N3      12.0680   0.8340  24.0450   N.2       1 RES1   0.0000
     4 C4      11.9930   1.9470  24.8060   C.2       1 RES1   0.0000
     5 N5      12.0390   3.1850  24.2340   N.2       1 RES1   0.0000
     6 C6      12.1750   3.4310  22.8960   C.2       1 RES1   0.0000
     7 N7      12.1810   4.6930  22.4250   N.2       1 RES1   0.0000
     8 C8      12.3660   4.7790  21.0800   C.2       1 RES1   0.0000
     9 C9      12.5570   3.5380  20.4570   C.2       1 RES1   0.0000
    10 C10     12.7680   3.1630  19.0340   C.2       1 RES1   0.0000
    11 O11     12.6730   1.9960  18.7150   O.2       1 RES1   0.0000
    12 N12     13.0420   4.1270  18.1500   N.am      1 RES1   0.0000
    13 C13     13.2240   3.8270  16.7860   C.2       1 RES1   0.0000
    14 C14     14.4900   3.7930  16.2040   C.2       1 RES1   0.0000
    15 C15     15.7200   4.0740  17.0300   C.3       1 RES1   0.0000
    16 C16     14.6170   3.5190  14.8460   C.2       1 RES1   0.0000
    17 C17     13.4940   3.2730  14.0610   C.2       1 RES1   0.0000
    18 C18     12.2310   3.3030  14.6430   C.2       1 RES1   0.0000
    19 C19     12.1070   3.5850  16.0010   C.2       1 RES1   0.0000
    20 Cl20    10.4800   3.6230  16.7500   Cl        1 RES1   0.0000
    21 S21     12.4740   2.2100  21.6350   S.3       1 RES1   0.0000
    22 C22     11.8940   1.8040  26.1980   C.2       1 RES1   0.0000
    23 C23     11.8550   0.5120  26.7620   C.2       1 RES1   0.0000
    24 N24     11.7410   0.3540  28.1580   N.pl3     1 RES1   0.0000
    25 C25     11.8730  -0.9570  28.8140   C.3       1 RES1   0.0000
    26 C26     10.9480  -1.0190  30.0510   C.3       1 RES1   0.0000
    27 N27     10.9650   0.2510  30.7990   N.3       1 RES1   1.0000
    28 C28     10.1000   0.4060  31.9940   C.3       1 RES1   0.0000
    29 C29      9.7010   1.8770  32.2530   C.3       1 RES1   0.0000
    30 O30      8.2660   2.0640  32.4130   O.3       1 RES1   0.0000
    31 C31     11.8690   1.3130  30.3720   C.3       1 RES1   0.0000
    32 C32     11.4920   1.5780  28.9230   C.3       1 RES1   0.0000
    33 N33     11.9120  -0.5630  25.9440   N.2       1 RES1   0.0000
@<TRIPOS>BOND
     1     1     2    1
     2     2     3    2
     3     3     4    1
     4     4     5    1
     5     5     6    1
     6     6     7    2
     7     7     8    1
     8     8     9    2
     9     9    10    1
    10    10    11    2
    11    10    12   am
    12    12    13    1
    13    13    14    2
    14    14    15    1
    15    14    16    1
    16    16    17    2
    17    17    18    1
    18    18    19    2
    19    19    20    1
    20     9    21    1
    21     4    22    2
    22    22    23    1
    23    23    24    1
    24    24    25    1
    25    25    26    1
    26    26    27    1
    27    27    28    1
    28    28    29    1
    29    29    30    1
    30    27    31    1
    31    31    32    1
    32    23    33    2
    33    33     2    1
    34    21     6    1
    35    32    24    1
    36    19    13    1
@<TRIPOS>SUBSTRUCTURE
     1 RES1        1 GROUP             0 ****  ****    0  
@<TRIPOS>MOLECULE
ligand_0
    33    36     1     0     0
SMALL
USER_CHARGES
****
Generated from the CSD

@<TRIPOS>ATOM
     1 C1      11.9153   7.8118  25.4208   C.3       1 RES1   0.0000
     2 C2      11.9762   6.3743  25.8622   C.2       1 RES1   0.0000
     3 N3      12.1245   5.4236  24.9156   N.2       1 RES1   0.0000
     4 C4      12.1966   4.1156  25.2432   C.2       1 RES1   0.0000
     5 N5      12.3665   3.1654  24.2787   N.2       1 RES1   0.0000
     6 C6      12.4776   3.4130  22.9387   C.2       1 RES1   0.0000
     7 N7      12.4237   4.6726  22.4643   N.2       1 RES1   0.0000
     8 C8      12.5908   4.7624  21.1172   C.2       1 RES1   0.0000
     9 C9      12.8292   3.5289  20.4955   C.2       1 RES1   0.0000
    10 C10     13.0415   3.1590  19.0714   C.2       1 RES1   0.0000
    11 O11     13.1952   1.9896  18.7861   O.2       1 RES1   0.0000
    12 N12     13.0420   4.1270  18.1500   N.am      1 RES1   0.0000
    13 C13     13.2240   3.8270  16.7860   C.2       1 RES1   0.0000
    14 C14     14.4900   3.7930  16.2040   C.2       1 RES1   0.0000
    15 C15     15.7200   4.0740  17.0300   C.3       1 RES1   0.0000
    16 C16     14.6170   3.5190  14.8460   C.2       1 RES1   0.0000
    17 C17     13.4940   3.2730  14.0610   C.2       1 RES1   0.0000
    18 C18     12.2310   3.3030  14.6430   C.2       1 RES1   0.0000
    19 C19     12.1070   3.5850  16.0010   C.2       1 RES1   0.0000
    20 Cl20    10.4800   3.6230  16.7500   Cl        1 RES1   0.0000
    21 S21     12.8164   2.2022  21.6778   S.3       1 RES1   0.0000
    22 C22     12.0664   3.7523  26.5919   C.2       1 RES1   0.0000
    23 C23     11.8853   4.7554  27.5665   C.2       1 RES1   0.0000
    24 N24     11.7677   4.4054  28.9268   N.pl3     1 RES1   0.0000
    25 C25     11.7348   5.3747  30.0176   C.3       1 RES1   0.0000
    26 C26     10.8016   4.8988  31.1037   C.3       1 RES1   0.0000
    27 N27     11.1974   3.5429  31.5862   N.3       1 RES1   1.0000
    28 C28     10.2603   3.1052  32.6495   C.3       1 RES1   0.0000
    29 C29     10.6031   1.7036  33.2047   C.3       1 RES1   0.0000
    30 O30     11.9723   1.5956  33.6879   O.3       1 RES1   0.0000
    31 C31     11.2874   2.5840  30.4458   C.3       1 RES1   0.0000
    32 C32     12.2252   3.0997  29.3831   C.3       1 RES1   0.0000
    33 N33     11.8435   6.0493  27.1765   N.2       1 RES1   0.0000
@<TRIPOS>BOND
     1     1     2    1
     2     2     3    2
     3     3     4    1
     4     4     5    1
     5     5     6    1
     6     6     7    2
     7     7     8    1
     8     8     9    2
     9     9    10    1
    10    10    11    2
    11    10    12   am
    12    12    13    1
    13    13    14    2
    14    14    15    1
    15    14    16    1
    16    16    17    2
    17    17    18    1
    18    18    19    2
    19    19    20    1
    20     9    21    1
    21     4    22    2
    22    22    23    1
    23    23    24    1
    24    24    25    1
    25    25    26    1
    26    26    27    1
    27    27    28    1
    28    28    29    1
    29    29    30    1
    30    27    31    1
    31    31    32    1
    32    23    33    2
    33    33     2    1
    34    21     6    1
    35    32    24    1
    36    19    13    1
@<TRIPOS>SUBSTRUCTURE
     1 RES1        1 GROUP             0 ****  ****    0  
@<TRIPOS>MOLECULE
ligand_1
    33    36     1     0     0
SMALL
USER_CHARGES
****
Generated from the CSD

@<TRIPOS>ATOM
     1 C1      11.9153   7.8118  25.4208   C.3       1 RES1   0.0000
     2 C2      11.9762   6.3743  25.8622   C.2       1 RES1   0.0000
     3 N3      12.1245   5.4236  24.9156   N.2       1 RES1   0.0000
     4 C4      12.1966   4.1156  25.2432   C.2       1 RES1   0.0000
     5 N5      12.3665   3.1654  24.2787   N.2       1 RES1   0.0000
     6 C6      12.4776   3.4130  22.9387   C.2       1 RES1   0.0000
     7 N7      12.4237   4.6726  22.4643   N.2       1 RES1   0.0000
     8 C8      12.5908   4.7624  21.1172   C.2       1 RES1   0.0000
     9 C9      12.8292   3.5289  20.4955   C.2       1 RES1   0.0000
    10 C10     13.0415   3.1590  19.0714   C.2       1 RES1   0.0000
    11 O11     13.1952   1.9896  18.7861   O.2       1 RES1   0.0000
    12 N12     13.0420   4.1270  18.1500   N.am      1 RES1   0.0000
    13 C13     13.2240   3.8270  16.7860   C.2       1 RES1   0.0000
    14 C14     14.4900   3.7930  16.2040   C.2       1 RES1   0.0000
    15 C15     15.7200   4.0740  17.0300   C.3       1 RES1   0.0000
    16 C16     14.6170   3.5190  14.8460   C.2       1 RES1   0.0000
    17 C17     13.4940   3.2730  14.0610   C.2       1 RES1   0.0000
    18 C18     12.2310   3.3030  14.6430   C.2       1 RES1   0.0000
    19 C19     12.1070   3.5850  16.0010   C.2       1 RES1   0.0000
    20 Cl20    10.4800   3.6230  16.7500   Cl        1 RES1   0.0000
    21 S21     12.8164   2.2022  21.6778   S.3       1 RES1   0.0000
    22 C22     12.0664   3.7523  26.5919   C.2       1 RES1   0.0000
    23 C23     11.8853   4.7554  27.5665   C.2       1 RES1   0.0000
    24 N24     11.7677   4.4054  28.9268   N.pl3     1 RES1   0.0000
    25 C25     12.0313   3.0684  29.4497   C.3       1 RES1   0.0000
    26 C26     12.6606   3.1635  30.8179   C.3       1 RES1   0.0000
    27 N27     11.7982   3.9548  31.7442   N.3       1 RES1   1.0000
    28 C28     12.4457   4.0304  33.0766   C.3       1 RES1   0.0000
    29 C29     11.6119   4.8372  34.0984   C.3       1 RES1   0.0000
    30 O30     10.2499   4.3443  34.2463   O.3       1 RES1   0.0000
    31 C31     11.4884   5.2932  31.1604   C.3       1 RES1   0.0000
    32 C32     10.8662   5.1522  29.7938   C.3       1 RES1   0.0000
    33 N33     11.8435   6.0493  27.1765   N.2       1 RES1   0.0000
@<TRIPOS>BOND
     1     1     2    1
     2     2     3    2
     3     3     4    1
     4     4     5    1
     5     5     6    1
     6     6     7    2
     7     7     8    1
     8     8     9    2
     9     9    10    1
    10    10    11    2
    11    10    12   am
    12    12    13    1
    13    13    14    2
    14    14    15    1
    15    14    16    1
    16    16    17    2
    17    17    18    1
    18    18    19    2
    19    19    20    1
    20     9    21    1
    21     4    22    2
    22    22    23    1
    23    23    24    1
    24    24    25    1
    25    25    26    1
    26    26    27    1
    27    27    28    1
    28    28    29    1
    29    29    30    1
    30    27    31    1
    31    31    32    1
    32    23    33    2
    33    33     2    1
    34    21     6    1
    35    32    24    1
    36    19    13    1
@<TRIPOS>SUBSTRUCTURE
     1 RES1        1 GROUP             0 ****  ****    0  
@<TRIPOS>MOLECULE
ligand_2
    33    36     1     0     0
SMALL
USER_CHARGES
****
Generated from the CSD

@<TRIPOS>ATOM
     1 C1      12.1084   3.8384  26.3205   C.3       1 RES1   0.0000
     2 C2      12.0182   5.3242  26.0987   C.2       1 RES1   0.0000
     3 N3      12.1641   5.7899  24.8403   N.2       1 RES1   0.0000
     4 C4      12.0844   7.1104  24.5695   C.2       1 RES1   0.0000
     5 N5      12.2139   7.5671  23.2902   N.2       1 RES1   0.0000
     6 C6      12.4282   6.7830  22.1909   C.2       1 RES1   0.0000
     7 N7      12.5297   5.4450  22.3086   N.2       1 RES1   0.0000
     8 C8      12.7005   4.7983  21.1239   C.2       1 RES1   0.0000
     9 C9      12.6936   5.6502  20.0109   C.2       1 RES1   0.0000
    10 C10     12.8652   5.3873  18.5578   C.2       1 RES1   0.0000
    11 O11     12.8523   6.3244  17.7869   O.2       1 RES1   0.0000
    12 N12     13.0420   4.1270  18.1500   N.am      1 RES1   0.0000
    13 C13     13.2240   3.8270  16.7860   C.2       1 RES1   0.0000
    14 C14     14.4900   3.7930  16.2040   C.2       1 RES1   0.0000
    15 C15     15.7200   4.0740  17.0300   C.3       1 RES1   0.0000
    16 C16     14.6170   3.5190  14.8460   C.2       1 RES1   0.0000
    17 C17     13.4940   3.2730  14.0610   C.2       1 RES1   0.0000
    18 C18     12.2310   3.3030  14.6430   C.2       1 RES1   0.0000
    19 C19     12.1070   3.5850  16.0010   C.2       1 RES1   0.0000
    20 Cl20    10.4800   3.6230  16.7500   Cl        1 RES1   0.0000
    21 S21     12.4830   7.3450  20.5022   S.3       1 RES1   0.0000
    22 C22     11.8927   8.0043  25.6335   C.2       1 RES1   0.0000
    23 C23     11.7685   7.5043  26.9464   C.2       1 RES1   0.0000
    24 N24     11.5610   8.3903  28.0228   N.pl3     1 RES1   0.0000
    25 C25     11.2664   7.9608  29.3863   C.3       1 RES1   0.0000
    26 C26     11.9228   8.8930  30.3748   C.3       1 RES1   0.0000
    27 N27     11.4941  10.3031  30.1390   N.3       1 RES1   1.0000
    28 C28     12.1579  11.1914  31.1242   C.3       1 RES1   0.0000
    29 C29     11.7647  12.6760  30.9464   C.3       1 RES1   0.0000
    30 O30     10.3262  12.8982  30.9823   O.3       1 RES1   0.0000
    31 C31     11.7453  10.6996  28.7220   C.3       1 RES1   0.0000
    32 C32     11.0765   9.7405  27.7692   C.3       1 RES1   0.0000
    33 N33     11.8353   6.1693  27.1490   N.2       1 RES1   0.0000
@<TRIPOS>BOND
     1     1     2    1
     2     2     3    2
     3     3     4    1
     4     4     5    1
     5     5     6    1
     6     6     7    2
     7     7     8    1
     8     8     9    2
     9     9    10    1
    10    10    11    2
    11    10    12   am
    12    12    13    1
    13    13    14    2
    14    14    15    1
    15    14    16    1
    16    16    17    2
    17    17    18    1
    18    18    19    2
    19    19    20    1
    20     9    21    1
    21     4    22    2
    22    22    23    1
    23    23    24    1
    24    24    25    1
    25    25    26    1
    26    26    27    1
    27    27    28    1
    28    28    29    1
    29    29    30    1
    30    27    31    1
    31    31    32    1
    32    23    33    2
    33    33     2    1
    34    21     6    1
    35    32    24    1
    36    19    13    1
@<TRIPOS>SUBSTRUCTURE
     1 RES1        1 GROUP             0 ****  ****    0  
@<TRIPOS>MOLECULE
ligand_3
    33    36     1     0     0
SMALL
USER_CHARGES
****
Generated from the CSD

@<TRIPOS>ATOM
     1 C1      12.1084   3.8384  26.3205   C.3       1 RES1   0.0000
     2 C2      12.0182   5.3242  26.0987   C.2       1 RES1   0.0000
     3 N3      12.1641   5.7899  24.8403   N.2       1 RES1   0.0000
     4 C4      12.0844   7.1104  24.5695   C.2       1 RES1   0.0000
     5 N5      12.2139   7.5671  23.2902   N.2       1 RES1   0.0000
     6 C6      12.4282   6.7830  22.1909   C.2       1 RES1   0.0000
     7 N7      12.5297   5.4450  22.3086   N.2       1 RES1   0.0000
     8 C8      12.7005   4.7983  21.1239   C.2       1 RES1   0.0000
     9 C9      12.6936   5.6502  20.0109   C.2       1 RES1   0.0000
    10 C10     12.8652   5.3873  18.5578   C.2       1 RES1   0.0000
    11 O11     12.8523   6.3244  17.7869   O.2       1 RES1   0.0000
    12 N12     13.0420   4.1270  18.1500   N.am      1 RES1   0.0000
    13 C13     13.2240   3.8270  16.7860   C.2       1 RES1   0.0000
    14 C14     14.4900   3.7930  16.2040   C.2       1 RES1   0.0000
    15 C15     15.7200   4.0740  17.0300   C.3       1 RES1   0.0000
    16 C16     14.6170   3.5190  14.8460   C.2       1 RES1   0.0000
    17 C17     13.4940   3.2730  14.0610   C.2       1 RES1   0.0000
    18 C18     12.2310   3.3030  14.6430   C.2       1 RES1   0.0000
    19 C19     12.1070   3.5850  16.0010   C.2       1 RES1   0.0000
    20 Cl20    10.4800   3.6230  16.7500   Cl        1 RES1   0.0000
    21 S21     12.4830   7.3450  20.5022   S.3       1 RES1   0.0000
    22 C22     11.8927   8.0043  25.6335   C.2       1 RES1   0.0000
    23 C23     11.7685   7.5043  26.9464   C.2       1 RES1   0.0000
    24 N24     11.5610   8.3903  28.0228   N.pl3     1 RES1   0.0000
    25 C25     11.2489   9.8072  27.8631   C.3       1 RES1   0.0000
    26 C26     10.2930  10.2506  28.9432   C.3       1 RES1   0.0000
    27 N27     10.8511   9.9607  30.2968   N.3       1 RES1   1.0000
    28 C28      9.8876  10.4060  31.3330   C.3       1 RES1   0.0000
    29 C29     10.3934  10.1400  32.7695   C.3       1 RES1   0.0000
    30 O30     11.7000  10.7241  33.0366   O.3       1 RES1   0.0000
    31 C31     11.2230   8.5200  30.4153   C.3       1 RES1   0.0000
    32 C32     12.1743   8.1186  29.3159   C.3       1 RES1   0.0000
    33 N33     11.8353   6.1693  27.1490   N.2       1 RES1   0.0000
@<TRIPOS>BOND
     1     1     2    1
     2     2     3    2
     3     3     4    1
     4     4     5    1
     5     5     6    1
     6     6     7    2
     7     7     8    1
     8     8     9    2
     9     9    10    1
    10    10    11    2
    11    10    12   am
    12    12    13    1
    13    13    14    2
    14    14    15    1
    15    14    16    1
    16    16    17    2
    17    17    18    1
    18    18    19    2
    19    19    20    1
    20     9    21    1
    21     4    22    2
    22    22    23    1
    23    23    24    1
    24    24    25    1
    25    25    26    1
    26    26    27    1
    27    27    28    1
    28    28    29    1
    29    29    30    1
    30    27    31    1
    31    31    32    1
    32    23    33    2
    33    33     2    1
    34    21     6    1
    35    32    24    1
    36    19    13    1
@<TRIPOS>SUBSTRUCTURE
     1 RES1        1 GROUP             0 ****  ****    0  
@<TRIPOS>MOLECULE
ligand_4
    33    36     1     0     0
SMALL
USER_CHARGES
****
Generated from the CSD

@<TRIPOS>ATOM
     1 C1      11.9153   7.8118  25.4208   C.3       1 RES1   0.0000
     2 C2      11.9762   6.3743  25.8622   C.2       1 RES1   0.0000
     3 N3      12.1245   5.4236  24.9156   N.2       1 RES1   0.0000
     4 C4      12.1966   4.1156  25.2432   C.2       1 RES1   0.0000
     5 N5      12.3665   3.1654  24.2787   N.2       1 RES1   0.0000
     6 C6      12.4776   3.4130  22.9387   C.2       1 RES1   0.0000
     7 N7      12.4237   4.6726  22.4643   N.2       1 RES1   0.0000
     8 C8      12.5908   4.7624  21.1172   C.2       1 RES1   0.0000
     9 C9      12.8292   3.5289  20.4955   C.2       1 RES1   0.0000
    10 C10     13.0415   3.1590  19.0714   C.2       1 RES1   0.0000
    11 O11     13.1952   1.9896  18.7861   O.2       1 RES1   0.0000
    12 N12     13.0420   4.1270  18.1500   N.am      1 RES1   0.0000
    13 C13     13.2240   3.8270  16.7860   C.2       1 RES1   0.0000
    14 C14     14.4900   3.7930  16.2040   C.2       1 RES1   0.0000
    15 C15     15.7200   4.0740  17.0300   C.3       1 RES1   0.0000
    16 C16     14.6170   3.5190  14.8460   C.2       1 RES1   0.0000
    17 C17     13.4940   3.2730  14.0610   C.2       1 RES1   0.0000
    18 C18     12.2310   3.3030  14.6430   C.2       1 RES1   0.0000
    19 C19     12.1070   3.5850  16.0010   C.2       1 RES1   0.0000
    20 Cl20    10.4800   3.6230  16.7500   Cl        1 RES1   0.0000
    21 S21     12.8164   2.2022  21.6778   S.3       1 RES1   0.0000
    22 C22     12.0664   3.7523  26.5919   C.2       1 RES1   0.0000
    23 C23     11.8853   4.7554  27.5665   C.2       1 RES1   0.0000
    24 N24     11.7677   4.4054  28.9268   N.3       1 RES1   0.0000
    25 C25     11.8249   5.5957  29.7948   C.3       1 RES1   0.0000
    26 C26     11.6751   5.2267  31.2491   C.3       1 RES1   0.0000
    27 N27     12.7840   4.2967  31.6246   N.3       1 RES1   1.0000
    28 C28     12.8224   4.0149  33.0804   C.3       1 RES1   0.0000
    29 C29     13.9735   3.0598  33.4714   C.3       1 RES1   0.0000
    30 O30     15.2811   3.5246  33.0310   O.3       1 RES1   0.0000
    31 C31     12.6516   3.0656  30.7897   C.3       1 RES1   0.0000
    32 C32     12.7881   3.4301  29.3301   C.3       1 RES1   0.0000
    33 N33     11.8435   6.0493  27.1765   N.2       1 RES1   0.0000
@<TRIPOS>BOND
     1     1     2    1
     2     2     3    2
     3     3     4    1
     4     4     5    1
     5     5     6    1
     6     6     7    2
     7     7     8    1
     8     8     9    2
     9     9    10    1
    10    10    11    2
    11    10    12   am
    12    12    13    1
    13    13    14    2
    14    14    15    1
    15    14    16    1
    16    16    17    2
    17    17    18    1
    18    18    19    2
    19    19    20    1
    20     9    21    1
    21     4    22    2
    22    22    23    1
    23    23    24    1
    24    24    25    1
    25    25    26    1
    26    26    27    1
    27    27    28    1
    28    28    29    1
    29    29    30    1
    30    27    31    1
    31    31    32    1
    32    23    33    2
    33    33     2    1
    34    21     6    1
    35    32    24    1
    36    19    13    1
@<TRIPOS>SUBSTRUCTURE
     1 RES1        1 GROUP             0 ****  ****    0  
@<TRIPOS>MOLECULE
ligand_5
    33    36     1     0     0
SMALL
USER_CHARGES
****
Generated from the CSD

@<TRIPOS>ATOM
     1 C1      11.9153   7.8118  25.4208   C.3       1 RES1   0.0000
     2 C2      11.9762   6.3743  25.8622   C.2       1 RES1   0.0000
     3 N3      12.1245   5.4236  24.9156   N.2       1 RES1   0.0000
     4 C4      12.1966   4.1156  25.2432   C.2       1 RES1   0.0000
     5 N5      12.3665   3.1654  24.2787   N.2       1 RES1   0.0000
     6 C6      12.4776   3.4130  22.9387   C.2       1 RES1   0.0000
     7 N7      12.4237   4.6726  22.4643   N.2       1 RES1   0.0000
     8 C8      12.5908   4.7624  21.1172   C.2       1 RES1   0.0000
     9 C9      12.8292   3.5289  20.4955   C.2       1 RES1   0.0000
    10 C10     13.0415   3.1590  19.0714   C.2       1 RES1   0.0000
    11 O11     13.1952   1.9896  18.7861   O.2       1 RES1   0.0000
    12 N12     13.0420   4.1270  18.1500   N.am      1 RES1   0.0000
    13 C13     13.2240   3.8270  16.7860   C.2       1 RES1   0.0000
    14 C14     14.4900   3.7930  16.2040   C.2       1 RES1   0.0000
    15 C15     15.7200   4.0740  17.0300   C.3       1 RES1   0.0000
    16 C16     14.6170   3.5190  14.8460   C.2       1 RES1   0.0000
    17 C17     13.4940   3.2730  14.0610   C.2       1 RES1   0.0000
    18 C18     12.2310   3.3030  14.6430   C.2       1 RES1   0.0000
    19 C19     12.1070   3.5850  16.0010   C.2       1 RES1   0.0000
    20 Cl20    10.4800   3.6230  16.7500   Cl        1 RES1   0.0000
    21 S21     12.8164   2.2022  21.6778   S.3       1 RES1   0.0000
    22 C22     12.0664   3.7523  26.5919   C.2       1 RES1   0.0000
    23 C23     11.8853   4.7554  27.5665   C.2       1 RES1   0.0000
    24 N24     11.7677   4.4054  28.9268   N.3       1 RES1   0.0000
    25 C25     12.0563   2.9754  29.1404   C.3       1 RES1   0.0000
    26 C26     11.9548   2.6031  30.5981   C.3       1 RES1   0.0000
    27 N27     10.5674   2.8958  31.0723   N.3       1 RES1   1.0000
    28 C28     10.3198   2.4009  32.4486   C.3       1 RES1   0.0000
    29 C29      8.8831   2.6956  32.9375   C.3       1 RES1   0.0000
    30 O30      7.8548   2.1826  32.0434   O.3       1 RES1   0.0000
    31 C31     10.3324   4.3630  30.9230   C.3       1 RES1   0.0000
    32 C32     10.4452   4.7452  29.4659   C.3       1 RES1   0.0000
    33 N33     11.8435   6.0493  27.1765   N.2       1 RES1   0.0000
@<TRIPOS>BOND
     1     1     2    1
     2     2     3    2
     3     3     4    1
     4     4     5    1
     5     5     6    1
     6     6     7    2
     7     7     8    1
     8     8     9    2
     9     9    10    1
    10    10    11    2
    11    10    12   am
    12    12    13    1
    13    13    14    2
    14    14    15    1
    15    14    16    1
    16    16    17    2
    17    17    18    1
    18    18    19    2
    19    19    20    1
    20     9    21    1
    21     4    22    2
    22    22    23    1
    23    23    24    1
    24    24    25    1
    25    25    26    1
    26    26    27    1
    27    27    28    1
    28    28    29    1
    29    29    30    1
    30    27    31    1
    31    31    32    1
    32    23    33    2
    33    33     2    1
    34    21     6    1
    35    32    24    1
    36    19    13    1
@<TRIPOS>SUBSTRUCTURE
     1 RES1        1 GROUP             0 ****  ****    0  
@<TRIPOS>MOLECULE
ligand_6
    33    36     1     0     0
SMALL
USER_CHARGES
****
Generated from the CSD

@<TRIPOS>ATOM
     1 C1      12.1084   3.8384  26.3205   C.3       1 RES1   0.0000
     2 C2      12.0182   5.3242  26.0987   C.2       1 RES1   0.0000
     3 N3      12.1641   5.7899  24.8403   N.2       1 RES1   0.0000
     4 C4      12.0844   7.1104  24.5695   C.2       1 RES1   0.0000
     5 N5      12.2139   7.5671  23.2902   N.2       1 RES1   0.0000
     6 C6      12.4282   6.7830  22.1909   C.2       1 RES1   0.0000
     7 N7      12.5297   5.4450  22.3086   N.2       1 RES1   0.0000
     8 C8      12.7005   4.7983  21.1239   C.2       1 RES1   0.0000
     9 C9      12.6936   5.6502  20.0109   C.2       1 RES1   0.0000
    10 C10     12.8652   5.3873  18.5578   C.2       1 RES1   0.0000
    11 O11     12.8523   6.3244  17.7869   O.2       1 RES1   0.0000
    12 N12     13.0420   4.1270  18.1500   N.am      1 RES1   0.0000
    13 C13     13.2240   3.8270  16.7860   C.2       1 RES1   0.0000
    14 C14     14.4900   3.7930  16.2040   C.2       1 RES1   0.0000
    15 C15     15.7200   4.0740  17.0300   C.3       1 RES1   0.0000
    16 C16     14.6170   3.5190  14.8460   C.2       1 RES1   0.0000
    17 C17     13.4940   3.2730  14.0610   C.2       1 RES1   0.0000
    18 C18     12.2310   3.3030  14.6430   C.2       1 RES1   0.0000
    19 C19     12.1070   3.5850  16.0010   C.2       1 RES1   0.0000
    20 Cl20    10.4800   3.6230  16.7500   Cl        1 RES1   0.0000
    21 S21     12.4830   7.3450  20.5022   S.3       1 RES1   0.0000
    22 C22     11.8927   8.0043  25.6335   C.2       1 RES1   0.0000
    23 C23     11.7685   7.5043  26.9464   C.2       1 RES1   0.0000
    24 N24     11.5610   8.3903  28.0228   N.3       1 RES1   0.0000
    25 C25     11.2229   7.6629  29.2598   C.3       1 RES1   0.0000
    26 C26     11.0240   8.6068  30.4188   C.3       1 RES1   0.0000
    27 N27      9.9094   9.5462  30.0864   N.3       1 RES1   1.0000
    28 C28      9.5234  10.4010  31.2356   C.3       1 RES1   0.0000
    29 C29      8.3654  11.3674  30.8959   C.3       1 RES1   0.0000
    30 O30      7.1861  10.6910  30.3746   O.3       1 RES1   0.0000
    31 C31     10.3141  10.3284  28.8804   C.3       1 RES1   0.0000
    32 C32     10.5274   9.3873  27.7182   C.3       1 RES1   0.0000
    33 N33     11.8353   6.1693  27.1490   N.2       1 RES1   0.0000
@<TRIPOS>BOND
     1     1     2    1
     2     2     3    2
     3     3     4    1
     4     4     5    1
     5     5     6    1
     6     6     7    2
     7     7     8    1
     8     8     9    2
     9     9    10    1
    10    10    11    2
    11    10    12   am
    12    12    13    1
    13    13    14    2
    14    14    15    1
    15    14    16    1
    16    16    17    2
    17    17    18    1
    18    18    19    2
    19    19    20    1
    20     9    21    1
    21     4    22    2
    22    22    23    1
    23    23    24    1
    24    24    25    1
    25    25    26    1
    26    26    27    1
    27    27    28    1
    28    28    29    1
    29    29    30    1
    30    27    31    1
    31    31    32    1
    32    23    33    2
    33    33     2    1
    34    21     6    1
    35    32    24    1
    36    19    13    1
@<TRIPOS>SUBSTRUCTURE
     1 RES1        1 GROUP             0 ****  ****    0  
@<TRIPOS>MOLECULE
ligand_7
    33    36     1     0     0
SMALL
USER_CHARGES
****
Generated from the CSD

@<TRIPOS>ATOM
     1 C1      12.1084   3.8384  26.3205   C.3       1 RES1   0.0000
     2 C2      12.0182   5.3242  26.0987   C.2       1 RES1   0.0000
     3 N3      12.1641   5.7899  24.8403   N.2       1 RES1   0.0000
     4 C4      12.0844   7.1104  24.5695   C.2       1 RES1   0.0000
     5 N5      12.2139   7.5671  23.2902   N.2       1 RES1   0.0000
     6 C6      12.4282   6.7830  22.1909   C.2       1 RES1   0.0000
     7 N7      12.5297   5.4450  22.3086   N.2       1 RES1   0.0000
     8 C8      12.7005   4.7983  21.1239   C.2       1 RES1   0.0000
     9 C9      12.6936   5.6502  20.0109   C.2       1 RES1   0.0000
    10 C10     12.8652   5.3873  18.5578   C.2       1 RES1   0.0000
    11 O11     12.8523   6.3244  17.7869   O.2       1 RES1   0.0000
    12 N12     13.0420   4.1270  18.1500   N.am      1 RES1   0.0000
    13 C13     13.2240   3.8270  16.7860   C.2       1 RES1   0.0000
    14 C14     14.4900   3.7930  16.2040   C.2       1 RES1   0.0000
    15 C15     15.7200   4.0740  17.0300   C.3       1 RES1   0.0000
    16 C16     14.6170   3.5190  14.8460   C.2       1 RES1   0.0000
    17 C17     13.4940   3.2730  14.0610   C.2       1 RES1   0.0000
    18 C18     12.2310   3.3030  14.6430   C.2       1 RES1   0.0000
    19 C19     12.1070   3.5850  16.0010   C.2       1 RES1   0.0000
    20 Cl20    10.4800   3.6230  16.7500   Cl        1 RES1   0.0000
    21 S21     12.4830   7.3450  20.5022   S.3       1 RES1   0.0000
    22 C22     11.8927   8.0043  25.6335   C.2       1 RES1   0.0000
    23 C23     11.7685   7.5043  26.9464   C.2       1 RES1   0.0000
    24 N24     11.5610   8.3903  28.0228   N.3       1 RES1   0.0000
    25 C25     11.3073   9.7628  27.5477   C.3       1 RES1   0.0000
    26 C26     11.0610  10.7083  28.6962   C.3       1 RES1   0.0000
    27 N27     12.2673  10.7142  29.5796   N.3       1 RES1   1.0000
    28 C28     12.1894  11.7456  30.6428   C.3       1 RES1   0.0000
    29 C29     13.4396  11.7584  31.5522   C.3       1 RES1   0.0000
    30 O30     14.6855  11.9126  30.8148   O.3       1 RES1   0.0000
    31 C31     12.4510   9.3314  30.1130   C.3       1 RES1   0.0000
    32 C32     12.6857   8.3766  28.9662   C.3       1 RES1   0.0000
    33 N33     11.8353   6.1693  27.1490   N.2       1 RES1   0.0000
@<TRIPOS>BOND
     1     1     2    1
     2     2     3    2
     3     3     4    1
     4     4     5    1
     5     5     6    1
     6     6     7    2
     7     7     8    1
     8     8     9    2
     9     9    10    1
    10    10    11    2
    11    10    12   am
    12    12    13    1
    13    13    14    2
    14    14    15    1
    15    14    16    1
    16    16    17    2
    17    17    18    1
    18    18    19    2
    19    19    20    1
    20     9    21    1
    21     4    22    2
    22    22    23    1
    23    23    24    1
    24    24    25    1
    25    25    26    1
    26    26    27    1
    27    27    28    1
    28    28    29    1
    29    29    30    1
    30    27    31    1
    31    31    32    1
    32    23    33    2
    33    33     2    1
    34    21     6    1
    35    32    24    1
    36    19    13    1
@<TRIPOS>SUBSTRUCTURE
     1 RES1        1 GROUP             0 ****  ****    0  
@<TRIPOS>MOLECULE
ligand_8
    33    36     1     0     0
SMALL
USER_CHARGES
****
Generated from the CSD

@<TRIPOS>ATOM
     1 C1      11.9153   7.8118  25.4208   C.3       1 RES1   0.0000
     2 C2      11.9762   6.3743  25.8622   C.2       1 RES1   0.0000
     3 N3      12.1245   5.4236  24.9156   N.2       1 RES1   0.0000
     4 C4      12.1966   4.1156  25.2432   C.2       1 RES1   0.0000
     5 N5      12.3665   3.1654  24.2787   N.2       1 RES1   0.0000
     6 C6      12.4776   3.4130  22.9387   C.2       1 RES1   0.0000
     7 N7      12.4237   4.6726  22.4643   N.2       1 RES1   0.0000
     8 C8      12.5908   4.7624  21.1172   C.2       1 RES1   0.0000
     9 C9      12.8292   3.5289  20.4955   C.2       1 RES1   0.0000
    10 C10     13.0415   3.1590  19.0714   C.2       1 RES1   0.0000
    11 O11     13.1952   1.9896  18.7861   O.2       1 RES1   0.0000
    12 N12     13.0420   4.1270  18.1500   N.am      1 RES1   0.0000
    13 C13     13.2240   3.8270  16.7860   C.2       1 RES1   0.0000
    14 C14     14.4900   3.7930  16.2040   C.2       1 RES1   0.0000
    15 C15     15.7200   4.0740  17.0300   C.3       1 RES1   0.0000
    16 C16     14.6170   3.5190  14.8460   C.2       1 RES1   0.0000
    17 C17     13.4940   3.2730  14.0610   C.2       1 RES1   0.0000
    18 C18     12.2310   3.3030  14.6430   C.2       1 RES1   0.0000
    19 C19     12.1070   3.5850  16.0010   C.2       1 RES1   0.0000
    20 Cl20    10.4800   3.6230  16.7500   Cl        1 RES1   0.0000
    21 S21     12.8164   2.2022  21.6778   S.3       1 RES1   0.0000
    22 C22     12.0664   3.7523  26.5919   C.2       1 RES1   0.0000
    23 C23     11.8853   4.7554  27.5665   C.2       1 RES1   0.0000
    24 N24     11.7677   4.4054  28.9268   N.pl3     1 RES1   0.0000
    25 C25     11.7344   5.3747  30.0175   C.3       1 RES1   0.0000
    26 C26     10.8013   4.8986  31.1036   C.3       1 RES1   0.0000
    27 N27     11.1974   3.5428  31.5862   N.3       1 RES1   1.0000
    28 C28     10.2604   3.1048  32.6494   C.3       1 RES1   0.0000
    29 C29     10.3759   3.9586  33.9331   C.3       1 RES1   0.0000
    30 O30     11.7286   4.0112  34.4690   O.3       1 RES1   0.0000
    31 C31     11.2878   2.5839  30.4458   C.3       1 RES1   0.0000
    32 C32     12.2255   3.0999  29.3831   C.3       1 RES1   0.0000
    33 N33     11.8435   6.0493  27.1765   N.2       1 RES1   0.0000
@<TRIPOS>BOND
     1     1     2    1
     2     2     3    2
     3     3     4    1
     4     4     5    1
     5     5     6    1
     6     6     7    2
     7     7     8    1
     8     8     9    2
     9     9    10    1
    10    10    11    2
    11    10    12   am
    12    12    13    1
    13    13    14    2
    14    14    15    1
    15    14    16    1
    16    16    17    2
    17    17    18    1
    18    18    19    2
    19    19    20    1
    20     9    21    1
    21     4    22    2
    22    22    23    1
    23    23    24    1
    24    24    25    1
    25    25    26    1
    26    26    27    1
    27    27    28    1
    28    28    29    1
    29    29    30    1
    30    27    31    1
    31    31    32    1
    32    23    33    2
    33    33     2    1
    34    21     6    1
    35    32    24    1
    36    19    13    1
@<TRIPOS>SUBSTRUCTURE
     1 RES1        1 GROUP             0 ****  ****    0  
@<TRIPOS>MOLECULE
ligand_9
    33    36     1     0     0
SMALL
USER_CHARGES
****
Generated from the CSD

@<TRIPOS>ATOM
     1 C1      11.9153   7.8118  25.4208   C.3       1 RES1   0.0000
     2 C2      11.9762   6.3743  25.8622   C.2       1 RES1   0.0000
     3 N3      12.1245   5.4236  24.9156   N.2       1 RES1   0.0000
     4 C4      12.1966   4.1156  25.2432   C.2       1 RES1   0.0000
     5 N5      12.3665   3.1654  24.2787   N.2       1 RES1   0.0000
     6 C6      12.4776   3.4130  22.9387   C.2       1 RES1   0.0000
     7 N7      12.4237   4.6726  22.4643   N.2       1 RES1   0.0000
     8 C8      12.5908   4.7624  21.1172   C.2       1 RES1   0.0000
     9 C9      12.8292   3.5289  20.4955   C.2       1 RES1   0.0000
    10 C10     13.0415   3.1590  19.0714   C.2       1 RES1   0.0000
    11 O11     13.1952   1.9896  18.7861   O.2       1 RES1   0.0000
    12 N12     13.0420   4.1270  18.1500   N.am      1 RES1   0.0000
    13 C13     13.2240   3.8270  16.7860   C.2       1 RES1   0.0000
    14 C14     14.4900   3.7930  16.2040   C.2       1 RES1   0.0000
    15 C15     15.7200   4.0740  17.0300   C.3       1 RES1   0.0000
    16 C16     14.6170   3.5190  14.8460   C.2       1 RES1   0.0000
    17 C17     13.4940   3.2730  14.0610   C.2       1 RES1   0.0000
    18 C18     12.2310   3.3030  14.6430   C.2       1 RES1   0.0000
    19 C19     12.1070   3.5850  16.0010   C.2       1 RES1   0.0000
    20 Cl20    10.4800   3.6230  16.7500   Cl        1 RES1   0.0000
    21 S21     12.8164   2.2022  21.6778   S.3       1 RES1   0.0000
    22 C22     12.0664   3.7523  26.5919   C.2       1 RES1   0.0000
    23 C23     11.8853   4.7554  27.5665   C.2       1 RES1   0.0000
    24 N24     11.7677   4.4054  28.9268   N.pl3     1 RES1   0.0000
    25 C25     12.0336   3.0690  29.4500   C.3       1 RES1   0.0000
    26 C26     12.6620   3.1654  30.8185   C.3       1 RES1   0.0000
    27 N27     11.7977   3.9553  31.7442   N.3       1 RES1   1.0000
    28 C28     12.4444   4.0324  33.0770   C.3       1 RES1   0.0000
    29 C29     12.5148   2.6595  33.7844   C.3       1 RES1   0.0000
    30 O30     11.2179   2.0099  33.9097   O.3       1 RES1   0.0000
    31 C31     11.4857   5.2931  31.1602   C.3       1 RES1   0.0000
    32 C32     10.8644   5.1507  29.7932   C.3       1 RES1   0.0000
    33 N33     11.8435   6.0493  27.1765   N.2       1 RES1   0.0000
@<TRIPOS>BOND
     1     1     2    1
     2     2     3    2
     3     3     4    1
     4     4     5    1
     5     5     6    1
     6     6     7    2
     7     7     8    1
     8     8     9    2
     9     9    10    1
    10    10    11    2
    11    10    12   am
    12    12    13    1
    13    13    14    2
    14    14    15    1
    15    14    16    1
    16    16    17    2
    17    17    18    1
    18    18    19    2
    19    19    20    1
    20     9    21    1
    21     4    22    2
    22    22    23    1
    23    23    24    1
    24    24    25    1
    25    25    26    1
    26    26    27    1
    27    27    28    1
    28    28    29    1
    29    29    30    1
    30    27    31    1
    31    31    32    1
    32    23    33    2
    33    33     2    1
    34    21     6    1
    35    32    24    1
    36    19    13    1
@<TRIPOS>SUBSTRUCTURE
     1 RES1        1 GROUP             0 ****  ****    0  
@<TRIPOS>MOLECULE
ligand_10
    33    36     1     0     0
SMALL
USER_CHARGES
****
Generated from the CSD

@<TRIPOS>ATOM
     1 C1      12.1084   3.8384  26.3205   C.3       1 RES1   0.0000
     2 C2      12.0182   5.3242  26.0987   C.2       1 RES1   0.0000
     3 N3      12.1641   5.7899  24.8403   N.2       1 RES1   0.0000
     4 C4      12.0844   7.1104  24.5695   C.2       1 RES1   0.0000
     5 N5      12.2139   7.5671  23.2902   N.2       1 RES1   0.0000
     6 C6      12.4282   6.7830  22.1909   C.2       1 RES1   0.0000
     7 N7      12.5297   5.4450  22.3086   N.2       1 RES1   0.0000
     8 C8      12.7005   4.7983  21.1239   C.2       1 RES1   0.0000
     9 C9      12.6936   5.6502  20.0109   C.2       1 RES1   0.0000
    10 C10     12.8652   5.3873  18.5578   C.2       1 RES1   0.0000
    11 O11     12.8523   6.3244  17.7869   O.2       1 RES1   0.0000
    12 N12     13.0420   4.1270  18.1500   N.am      1 RES1   0.0000
    13 C13     13.2240   3.8270  16.7860   C.2       1 RES1   0.0000
    14 C14     14.4900   3.7930  16.2040   C.2       1 RES1   0.0000
    15 C15     15.7200   4.0740  17.0300   C.3       1 RES1   0.0000
    16 C16     14.6170   3.5190  14.8460   C.2       1 RES1   0.0000
    17 C17     13.4940   3.2730  14.0610   C.2       1 RES1   0.0000
    18 C18     12.2310   3.3030  14.6430   C.2       1 RES1   0.0000
    19 C19     12.1070   3.5850  16.0010   C.2       1 RES1   0.0000
    20 Cl20    10.4800   3.6230  16.7500   Cl        1 RES1   0.0000
    21 S21     12.4830   7.3450  20.5022   S.3       1 RES1   0.0000
    22 C22     11.8927   8.0043  25.6335   C.2       1 RES1   0.0000
    23 C23     11.7685   7.5043  26.9464   C.2       1 RES1   0.0000
    24 N24     11.5610   8.3903  28.0228   N.pl3     1 RES1   0.0000
    25 C25     11.2668   7.9608  29.3863   C.3       1 RES1   0.0000
    26 C26     11.9231   8.8932  30.3747   C.3       1 RES1   0.0000
    27 N27     11.4941  10.3032  30.1389   N.3       1 RES1   1.0000
    28 C28     12.1578  11.1917  31.1239   C.3       1 RES1   0.0000
    29 C29     11.6779  10.9386  32.5716   C.3       1 RES1   0.0000
    30 O30     10.2333  11.0375  32.7241   O.3       1 RES1   0.0000
    31 C31     11.7450  10.6996  28.7218   C.3       1 RES1   0.0000
    32 C32     11.0762   9.7404  27.7692   C.3       1 RES1   0.0000
    33 N33     11.8353   6.1693  27.1490   N.2       1 RES1   0.0000
@<TRIPOS>BOND
     1     1     2    1
     2     2     3    2
     3     3     4    1
     4     4     5    1
     5     5     6    1
     6     6     7    2
     7     7     8    1
     8     8     9    2
     9     9    10    1
    10    10    11    2
    11    10    12   am
    12    12    13    1
    13    13    14    2
    14    14    15    1
    15    14    16    1
    16    16    17    2
    17    17    18    1
    18    18    19    2
    19    19    20    1
    20     9    21    1
    21     4    22    2
    22    22    23    1
    23    23    24    1
    24    24    25    1
    25    25    26    1
    26    26    27    1
    27    27    28    1
    28    28    29    1
    29    29    30    1
    30    27    31    1
    31    31    32    1
    32    23    33    2
    33    33     2    1
    34    21     6    1
    35    32    24    1
    36    19    13    1
@<TRIPOS>SUBSTRUCTURE
     1 RES1        1 GROUP             0 ****  ****    0  
@<TRIPOS>MOLECULE
ligand_11
    33    36     1     0     0
SMALL
USER_CHARGES
****
Generated from the CSD

@<TRIPOS>ATOM
     1 C1      12.1084   3.8384  26.3205   C.3       1 RES1   0.0000
     2 C2      12.0182   5.3242  26.0987   C.2       1 RES1   0.0000
     3 N3      12.1641   5.7899  24.8403   N.2       1 RES1   0.0000
     4 C4      12.0844   7.1104  24.5695   C.2       1 RES1   0.0000
     5 N5      12.2139   7.5671  23.2902   N.2       1 RES1   0.0000
     6 C6      12.4282   6.7830  22.1909   C.2       1 RES1   0.0000
     7 N7      12.5297   5.4450  22.3086   N.2       1 RES1   0.0000
     8 C8      12.7005   4.7983  21.1239   C.2       1 RES1   0.0000
     9 C9      12.6936   5.6502  20.0109   C.2       1 RES1   0.0000
    10 C10     12.8652   5.3873  18.5578   C.2       1 RES1   0.0000
    11 O11     12.8523   6.3244  17.7869   O.2       1 RES1   0.0000
    12 N12     13.0420   4.1270  18.1500   N.am      1 RES1   0.0000
    13 C13     13.2240   3.8270  16.7860   C.2       1 RES1   0.0000
    14 C14     14.4900   3.7930  16.2040   C.2       1 RES1   0.0000
    15 C15     15.7200   4.0740  17.0300   C.3       1 RES1   0.0000
    16 C16     14.6170   3.5190  14.8460   C.2       1 RES1   0.0000
    17 C17     13.4940   3.2730  14.0610   C.2       1 RES1   0.0000
    18 C18     12.2310   3.3030  14.6430   C.2       1 RES1   0.0000
    19 C19     12.1070   3.5850  16.0010   C.2       1 RES1   0.0000
    20 Cl20    10.4800   3.6230  16.7500   Cl        1 RES1   0.0000
    21 S21     12.4830   7.3450  20.5022   S.3       1 RES1   0.0000
    22 C22     11.8927   8.0043  25.6335   C.2       1 RES1   0.0000
    23 C23     11.7685   7.5043  26.9464   C.2       1 RES1   0.0000
    24 N24     11.5610   8.3903  28.0228   N.pl3     1 RES1   0.0000
    25 C25     11.2466   9.8067  27.8631   C.3       1 RES1   0.0000
    26 C26     10.2914  10.2490  28.9442   C.3       1 RES1   0.0000
    27 N27     10.8516   9.9603  30.2972   N.3       1 RES1   1.0000
    28 C28      9.8887  10.4045  31.3344   C.3       1 RES1   0.0000
    29 C29      9.7191  11.9408  31.3701   C.3       1 RES1   0.0000
    30 O30     10.9771  12.6545  31.5364   O.3       1 RES1   0.0000
    31 C31     11.2257   8.5202  30.4157   C.3       1 RES1   0.0000
    32 C32     12.1763   8.1198  29.3152   C.3       1 RES1   0.0000
    33 N33     11.8353   6.1693  27.1490   N.2       1 RES1   0.0000
@<TRIPOS>BOND
     1     1     2    1
     2     2     3    2
     3     3     4    1
     4     4     5    1
     5     5     6    1
     6     6     7    2
     7     7     8    1
     8     8     9    2
     9     9    10    1
    10    10    11    2
    11    10    12   am
    12    12    13    1
    13    13    14    2
    14    14    15    1
    15    14    16    1
    16    16    17    2
    17    17    18    1
    18    18    19    2
    19    19    20    1
    20     9    21    1
    21     4    22    2
    22    22    23    1
    23    23    24    1
    24    24    25    1
    25    25    26    1
    26    26    27    1
    27    27    28    1
    28    28    29    1
    29    29    30    1
    30    27    31    1
    31    31    32    1
    32    23    33    2
    33    33     2    1
    34    21     6    1
    35    32    24    1
    36    19    13    1
@<TRIPOS>SUBSTRUCTURE
     1 RES1        1 GROUP             0 ****  ****    0  
@<TRIPOS>MOLECULE
ligand_12
    33    36     1     0     0
SMALL
USER_CHARGES
****
Generated from the CSD

@<TRIPOS>ATOM
     1 C1      11.9153   7.8118  25.4208   C.3       1 RES1   0.0000
     2 C2      11.9762   6.3743  25.8622   C.2       1 RES1   0.0000
     3 N3      12.1245   5.4236  24.9156   N.2       1 RES1   0.0000
     4 C4      12.1966   4.1156  25.2432   C.2       1 RES1   0.0000
     5 N5      12.3665   3.1654  24.2787   N.2       1 RES1   0.0000
     6 C6      12.4776   3.4130  22.9387   C.2       1 RES1   0.0000
     7 N7      12.4237   4.6726  22.4643   N.2       1 RES1   0.0000
     8 C8      12.5908   4.7624  21.1172   C.2       1 RES1   0.0000
     9 C9      12.8292   3.5289  20.4955   C.2       1 RES1   0.0000
    10 C10     13.0415   3.1590  19.0714   C.2       1 RES1   0.0000
    11 O11     13.1952   1.9896  18.7861   O.2       1 RES1   0.0000
    12 N12     13.0420   4.1270  18.1500   N.am      1 RES1   0.0000
    13 C13     13.2240   3.8270  16.7860   C.2       1 RES1   0.0000
    14 C14     14.4900   3.7930  16.2040   C.2       1 RES1   0.0000
    15 C15     15.7200   4.0740  17.0300   C.3       1 RES1   0.0000
    16 C16     14.6170   3.5190  14.8460   C.2       1 RES1   0.0000
    17 C17     13.4940   3.2730  14.0610   C.2       1 RES1   0.0000
    18 C18     12.2310   3.3030  14.6430   C.2       1 RES1   0.0000
    19 C19     12.1070   3.5850  16.0010   C.2       1 RES1   0.0000
    20 Cl20    10.4800   3.6230  16.7500   Cl        1 RES1   0.0000
    21 S21     12.8164   2.2022  21.6778   S.3       1 RES1   0.0000
    22 C22     12.0664   3.7523  26.5919   C.2       1 RES1   0.0000
    23 C23     11.8853   4.7554  27.5665   C.2       1 RES1   0.0000
    24 N24     11.7677   4.4054  28.9268   N.3       1 RES1   0.0000
    25 C25     11.8249   5.5957  29.7948   C.3       1 RES1   0.0000
    26 C26     11.6751   5.2267  31.2491   C.3       1 RES1   0.0000
    27 N27     12.7840   4.2967  31.6246   N.3       1 RES1   1.0000
    28 C28     12.8224   4.0148  33.0804   C.3       1 RES1   0.0000
    29 C29     13.1964   5.2594  33.9178   C.3       1 RES1   0.0000
    30 O30     14.4516   5.8727  33.5075   O.3       1 RES1   0.0000
    31 C31     12.6516   3.0656  30.7897   C.3       1 RES1   0.0000
    32 C32     12.7881   3.4300  29.3301   C.3       1 RES1   0.0000
    33 N33     11.8435   6.0493  27.1765   N.2       1 RES1   0.0000
@<TRIPOS>BOND
     1     1     2    1
     2     2     3    2
     3     3     4    1
     4     4     5    1
     5     5     6    1
     6     6     7    2
     7     7     8    1
     8     8     9    2
     9     9    10    1
    10    10    11    2
    11    10    12   am
    12    12    13    1
    13    13    14    2
    14    14    15    1
    15    14    16    1
    16    16    17    2
    17    17    18    1
    18    18    19    2
    19    19    20    1
    20     9    21    1
    21     4    22    2
    22    22    23    1
    23    23    24    1
    24    24    25    1
    25    25    26    1
    26    26    27    1
    27    27    28    1
    28    28    29    1
    29    29    30    1
    30    27    31    1
    31    31    32    1
    32    23    33    2
    33    33     2    1
    34    21     6    1
    35    32    24    1
    36    19    13    1
@<TRIPOS>SUBSTRUCTURE
     1 RES1        1 GROUP             0 ****  ****    0  
@<TRIPOS>MOLECULE
ligand_13
    33    36     1     0     0
SMALL
USER_CHARGES
****
Generated from the CSD

@<TRIPOS>ATOM
     1 C1      11.9153   7.8118  25.4208   C.3       1 RES1   0.0000
     2 C2      11.9762   6.3743  25.8622   C.2       1 RES1   0.0000
     3 N3      12.1245   5.4236  24.9156   N.2       1 RES1   0.0000
     4 C4      12.1966   4.1156  25.2432   C.2       1 RES1   0.0000
     5 N5      12.3665   3.1654  24.2787   N.2       1 RES1   0.0000
     6 C6      12.4776   3.4130  22.9387   C.2       1 RES1   0.0000
     7 N7      12.4237   4.6726  22.4643   N.2       1 RES1   0.0000
     8 C8      12.5908   4.7624  21.1172   C.2       1 RES1   0.0000
     9 C9      12.8292   3.5289  20.4955   C.2       1 RES1   0.0000
    10 C10     13.0415   3.1590  19.0714   C.2       1 RES1   0.0000
    11 O11     13.1952   1.9896  18.7861   O.2       1 RES1   0.0000
    12 N12     13.0420   4.1270  18.1500   N.am      1 RES1   0.0000
    13 C13     13.2240   3.8270  16.7860   C.2       1 RES1   0.0000
    14 C14     14.4900   3.7930  16.2040   C.2       1 RES1   0.0000
    15 C15     15.7200   4.0740  17.0300   C.3       1 RES1   0.0000
    16 C16     14.6170   3.5190  14.8460   C.2       1 RES1   0.0000
    17 C17     13.4940   3.2730  14.0610   C.2       1 RES1   0.0000
    18 C18     12.2310   3.3030  14.6430   C.2       1 RES1   0.0000
    19 C19     12.1070   3.5850  16.0010   C.2       1 RES1   0.0000
    20 Cl20    10.4800   3.6230  16.7500   Cl        1 RES1   0.0000
    21 S21     12.8164   2.2022  21.6778   S.3       1 RES1   0.0000
    22 C22     12.0664   3.7523  26.5919   C.2       1 RES1   0.0000
    23 C23     11.8853   4.7554  27.5665   C.2       1 RES1   0.0000
    24 N24     11.7677   4.4054  28.9268   N.3       1 RES1   0.0000
    25 C25     12.0564   2.9754  29.1405   C.3       1 RES1   0.0000
    26 C26     11.9549   2.6032  30.5981   C.3       1 RES1   0.0000
    27 N27     10.5675   2.8957  31.0723   N.3       1 RES1   1.0000
    28 C28     10.3199   2.4008  32.4486   C.3       1 RES1   0.0000
    29 C29     10.3334   0.8574  32.5373   C.3       1 RES1   0.0000
    30 O30      9.4032   0.2202  31.6162   O.3       1 RES1   0.0000
    31 C31     10.3324   4.3629  30.9230   C.3       1 RES1   0.0000
    32 C32     10.4451   4.7451  29.4659   C.3       1 RES1   0.0000
    33 N33     11.8435   6.0493  27.1765   N.2       1 RES1   0.0000
@<TRIPOS>BOND
     1     1     2    1
     2     2     3    2
     3     3     4    1
     4     4     5    1
     5     5     6    1
     6     6     7    2
     7     7     8    1
     8     8     9    2
     9     9    10    1
    10    10    11    2
    11    10    12   am
    12    12    13    1
    13    13    14    2
    14    14    15    1
    15    14    16    1
    16    16    17    2
    17    17    18    1
    18    18    19    2
    19    19    20    1
    20     9    21    1
    21     4    22    2
    22    22    23    1
    23    23    24    1
    24    24    25    1
    25    25    26    1
    26    26    27    1
    27    27    28    1
    28    28    29    1
    29    29    30    1
    30    27    31    1
    31    31    32    1
    32    23    33    2
    33    33     2    1
    34    21     6    1
    35    32    24    1
    36    19    13    1
@<TRIPOS>SUBSTRUCTURE
     1 RES1        1 GROUP             0 ****  ****    0  
@<TRIPOS>MOLECULE
ligand_14
    33    36     1     0     0
SMALL
USER_CHARGES
****
Generated from the CSD

@<TRIPOS>ATOM
     1 C1      12.1084   3.8384  26.3205   C.3       1 RES1   0.0000
     2 C2      12.0182   5.3242  26.0987   C.2       1 RES1   0.0000
     3 N3      12.1641   5.7899  24.8403   N.2       1 RES1   0.0000
     4 C4      12.0844   7.1104  24.5695   C.2       1 RES1   0.0000
     5 N5      12.2139   7.5671  23.2902   N.2       1 RES1   0.0000
     6 C6      12.4282   6.7830  22.1909   C.2       1 RES1   0.0000
     7 N7      12.5297   5.4450  22.3086   N.2       1 RES1   0.0000
     8 C8      12.7005   4.7983  21.1239   C.2       1 RES1   0.0000
     9 C9      12.6936   5.6502  20.0109   C.2       1 RES1   0.0000
    10 C10     12.8652   5.3873  18.5578   C.2       1 RES1   0.0000
    11 O11     12.8523   6.3244  17.7869   O.2       1 RES1   0.0000
    12 N12     13.0420   4.1270  18.1500   N.am      1 RES1   0.0000
    13 C13     13.2240   3.8270  16.7860   C.2       1 RES1   0.0000
    14 C14     14.4900   3.7930  16.2040   C.2       1 RES1   0.0000
    15 C15     15.7200   4.0740  17.0300   C.3       1 RES1   0.0000
    16 C16     14.6170   3.5190  14.8460   C.2       1 RES1   0.0000
    17 C17     13.4940   3.2730  14.0610   C.2       1 RES1   0.0000
    18 C18     12.2310   3.3030  14.6430   C.2       1 RES1   0.0000
    19 C19     12.1070   3.5850  16.0010   C.2       1 RES1   0.0000
    20 Cl20    10.4800   3.6230  16.7500   Cl        1 RES1   0.0000
    21 S21     12.4830   7.3450  20.5022   S.3       1 RES1   0.0000
    22 C22     11.8927   8.0043  25.6335   C.2       1 RES1   0.0000
    23 C23     11.7685   7.5043  26.9464   C.2       1 RES1   0.0000
    24 N24     11.5610   8.3903  28.0228   N.3       1 RES1   0.0000
    25 C25     11.2229   7.6629  29.2598   C.3       1 RES1   0.0000
    26 C26     11.0240   8.6068  30.4188   C.3       1 RES1   0.0000
    27 N27      9.9093   9.5462  30.0864   N.3       1 RES1   1.0000
    28 C28      9.5234  10.4010  31.2356   C.3       1 RES1   0.0000
    29 C29      8.8837   9.5943  32.3889   C.3       1 RES1   0.0000
    30 O30      7.7395   8.7983  31.9684   O.3       1 RES1   0.0000
    31 C31     10.3141  10.3285  28.8804   C.3       1 RES1   0.0000
    32 C32     10.5274   9.3873  27.7182   C.3       1 RES1   0.0000
    33 N33     11.8353   6.1693  27.1490   N.2       1 RES1   0.0000
@<TRIPOS>BOND
     1     1     2    1
     2     2     3    2
     3     3     4    1
     4     4     5    1
     5     5     6    1
     6     6     7    2
     7     7     8    1
     8     8     9    2
     9     9    10    1
    10    10    11    2
    11    10    12   am
    12    12    13    1
    13    13    14    2
    14    14    15    1
    15    14    16    1
    16    16    17    2
    17    17    18    1
    18    18    19    2
    19    19    20    1
    20     9    21    1
    21     4    22    2
    22    22    23    1
    23    23    24    1
    24    24    25    1
    25    25    26    1
    26    26    27    1
    27    27    28    1
    28    28    29    1
    29    29    30    1
    30    27    31    1
    31    31    32    1
    32    23    33    2
    33    33     2    1
    34    21     6    1
    35    32    24    1
    36    19    13    1
@<TRIPOS>SUBSTRUCTURE
     1 RES1        1 GROUP             0 ****  ****    0  
@<TRIPOS>MOLECULE
ligand_15
    33    36     1     0     0
SMALL
USER_CHARGES
****
Generated from the CSD

@<TRIPOS>ATOM
     1 C1      12.1084   3.8384  26.3205   C.3       1 RES1   0.0000
     2 C2      12.0182   5.3242  26.0987   C.2       1 RES1   0.0000
     3 N3      12.1641   5.7899  24.8403   N.2       1 RES1   0.0000
     4 C4      12.0844   7.1104  24.5695   C.2       1 RES1   0.0000
     5 N5      12.2139   7.5671  23.2902   N.2       1 RES1   0.0000
     6 C6      12.4282   6.7830  22.1909   C.2       1 RES1   0.0000
     7 N7      12.5297   5.4450  22.3086   N.2       1 RES1   0.0000
     8 C8      12.7005   4.7983  21.1239   C.2       1 RES1   0.0000
     9 C9      12.6936   5.6502  20.0109   C.2       1 RES1   0.0000
    10 C10     12.8652   5.3873  18.5578   C.2       1 RES1   0.0000
    11 O11     12.8523   6.3244  17.7869   O.2       1 RES1   0.0000
    12 N12     13.0420   4.1270  18.1500   N.am      1 RES1   0.0000
    13 C13     13.2240   3.8270  16.7860   C.2       1 RES1   0.0000
    14 C14     14.4900   3.7930  16.2040   C.2       1 RES1   0.0000
    15 C15     15.7200   4.0740  17.0300   C.3       1 RES1   0.0000
    16 C16     14.6170   3.5190  14.8460   C.2       1 RES1   0.0000
    17 C17     13.4940   3.2730  14.0610   C.2       1 RES1   0.0000
    18 C18     12.2310   3.3030  14.6430   C.2       1 RES1   0.0000
    19 C19     12.1070   3.5850  16.0010   C.2       1 RES1   0.0000
    20 Cl20    10.4800   3.6230  16.7500   Cl        1 RES1   0.0000
    21 S21     12.4830   7.3450  20.5022   S.3       1 RES1   0.0000
    22 C22     11.8927   8.0043  25.6335   C.2       1 RES1   0.0000
    23 C23     11.7685   7.5043  26.9464   C.2       1 RES1   0.0000
    24 N24     11.5610   8.3903  28.0228   N.3       1 RES1   0.0000
    25 C25     11.3072   9.7628  27.5477   C.3       1 RES1   0.0000
    26 C26     11.0609  10.7082  28.6962   C.3       1 RES1   0.0000
    27 N27     12.2672  10.7142  29.5795   N.3       1 RES1   1.0000
    28 C28     12.1893  11.7457  30.6427   C.3       1 RES1   0.0000
    29 C29     12.2390  13.1849  30.0803   C.3       1 RES1   0.0000
    30 O30     13.4038  13.4355  29.2435   O.3       1 RES1   0.0000
    31 C31     12.4510   9.3315  30.1129   C.3       1 RES1   0.0000
    32 C32     12.6858   8.3766  28.9662   C.3       1 RES1   0.0000
    33 N33     11.8353   6.1693  27.1490   N.2       1 RES1   0.0000
@<TRIPOS>BOND
     1     1     2    1
     2     2     3    2
     3     3     4    1
     4     4     5    1
     5     5     6    1
     6     6     7    2
     7     7     8    1
     8     8     9    2
     9     9    10    1
    10    10    11    2
    11    10    12   am
    12    12    13    1
    13    13    14    2
    14    14    15    1
    15    14    16    1
    16    16    17    2
    17    17    18    1
    18    18    19    2
    19    19    20    1
    20     9    21    1
    21     4    22    2
    22    22    23    1
    23    23    24    1
    24    24    25    1
    25    25    26    1
    26    26    27    1
    27    27    28    1
    28    28    29    1
    29    29    30    1
    30    27    31    1
    31    31    32    1
    32    23    33    2
    33    33     2    1
    34    21     6    1
    35    32    24    1
    36    19    13    1
@<TRIPOS>SUBSTRUCTURE
     1 RES1        1 GROUP             0 ****  ****    0  
@<TRIPOS>MOLECULE
ligand_16
    33    36     1     0     0
SMALL
USER_CHARGES
****
Generated from the CSD

@<TRIPOS>ATOM
     1 C1      11.9153   7.8118  25.4208   C.3       1 RES1   0.0000
     2 C2      11.9762   6.3743  25.8622   C.2       1 RES1   0.0000
     3 N3      12.1245   5.4236  24.9156   N.2       1 RES1   0.0000
     4 C4      12.1966   4.1156  25.2432   C.2       1 RES1   0.0000
     5 N5      12.3665   3.1654  24.2787   N.2       1 RES1   0.0000
     6 C6      12.4776   3.4130  22.9387   C.2       1 RES1   0.0000
     7 N7      12.4237   4.6726  22.4643   N.2       1 RES1   0.0000
     8 C8      12.5908   4.7624  21.1172   C.2       1 RES1   0.0000
     9 C9      12.8292   3.5289  20.4955   C.2       1 RES1   0.0000
    10 C10     13.0415   3.1590  19.0714   C.2       1 RES1   0.0000
    11 O11     13.1952   1.9896  18.7861   O.2       1 RES1   0.0000
    12 N12     13.0420   4.1270  18.1500   N.am      1 RES1   0.0000
    13 C13     13.2240   3.8270  16.7860   C.2       1 RES1   0.0000
    14 C14     14.4900   3.7930  16.2040   C.2       1 RES1   0.0000
    15 C15     15.7200   4.0740  17.0300   C.3       1 RES1   0.0000
    16 C16     14.6170   3.5190  14.8460   C.2       1 RES1   0.0000
    17 C17     13.4940   3.2730  14.0610   C.2       1 RES1   0.0000
    18 C18     12.2310   3.3030  14.6430   C.2       1 RES1   0.0000
    19 C19     12.1070   3.5850  16.0010   C.2       1 RES1   0.0000
    20 Cl20    10.4800   3.6230  16.7500   Cl        1 RES1   0.0000
    21 S21     12.8164   2.2022  21.6778   S.3       1 RES1   0.0000
    22 C22     12.0664   3.7523  26.5919   C.2       1 RES1   0.0000
    23 C23     11.8853   4.7554  27.5665   C.2       1 RES1   0.0000
    24 N24     11.7677   4.4054  28.9268   N.3       1 RES1   0.0000
    25 C25     11.8237   5.5959  29.7947   C.3       1 RES1   0.0000
    26 C26     11.6738   5.2268  31.2490   C.3       1 RES1   0.0000
    27 N27     12.7835   4.2978  31.6248   N.3       1 RES1   1.0000
    28 C28     12.8218   4.0161  33.0806   C.3       1 RES1   0.0000
    29 C29     11.6681   3.0947  33.5390   C.3       1 RES1   0.0000
    30 O30     10.3486   3.6483  33.2703   O.3       1 RES1   0.0000
    31 C31     12.6524   3.0665  30.7900   C.3       1 RES1   0.0000
    32 C32     12.7889   3.4310  29.3304   C.3       1 RES1   0.0000
    33 N33     11.8435   6.0493  27.1765   N.2       1 RES1   0.0000
@<TRIPOS>BOND
     1     1     2    1
     2     2     3    2
     3     3     4    1
     4     4     5    1
     5     5     6    1
     6     6     7    2
     7     7     8    1
     8     8     9    2
     9     9    10    1
    10    10    11    2
    11    10    12   am
    12    12    13    1
    13    13    14    2
    14    14    15    1
    15    14    16    1
    16    16    17    2
    17    17    18    1
    18    18    19    2
    19    19    20    1
    20     9    21    1
    21     4    22    2
    22    22    23    1
    23    23    24    1
    24    24    25    1
    25    25    26    1
    26    26    27    1
    27    27    28    1
    28    28    29    1
    29    29    30    1
    30    27    31    1
    31    31    32    1
    32    23    33    2
    33    33     2    1
    34    21     6    1
    35    32    24    1
    36    19    13    1
@<TRIPOS>SUBSTRUCTURE
     1 RES1        1 GROUP             0 ****  ****    0  
@<TRIPOS>MOLECULE
ligand_17
    33    36     1     0     0
SMALL
USER_CHARGES
****
Generated from the CSD

@<TRIPOS>ATOM
     1 C1      11.9153   7.8118  25.4208   C.3       1 RES1   0.0000
     2 C2      11.9762   6.3743  25.8622   C.2       1 RES1   0.0000
     3 N3      12.1245   5.4236  24.9156   N.2       1 RES1   0.0000
     4 C4      12.1966   4.1156  25.2432   C.2       1 RES1   0.0000
     5 N5      12.3665   3.1654  24.2787   N.2       1 RES1   0.0000
     6 C6      12.4776   3.4130  22.9387   C.2       1 RES1   0.0000
     7 N7      12.4237   4.6726  22.4643   N.2       1 RES1   0.0000
     8 C8      12.5908   4.7624  21.1172   C.2       1 RES1   0.0000
     9 C9      12.8292   3.5289  20.4955   C.2       1 RES1   0.0000
    10 C10     13.0415   3.1590  19.0714   C.2       1 RES1   0.0000
    11 O11     13.1952   1.9896  18.7861   O.2       1 RES1   0.0000
    12 N12     13.0420   4.1270  18.1500   N.am      1 RES1   0.0000
    13 C13     13.2240   3.8270  16.7860   C.2       1 RES1   0.0000
    14 C14     14.4900   3.7930  16.2040   C.2       1 RES1   0.0000
    15 C15     15.7200   4.0740  17.0300   C.3       1 RES1   0.0000
    16 C16     14.6170   3.5190  14.8460   C.2       1 RES1   0.0000
    17 C17     13.4940   3.2730  14.0610   C.2       1 RES1   0.0000
    18 C18     12.2310   3.3030  14.6430   C.2       1 RES1   0.0000
    19 C19     12.1070   3.5850  16.0010   C.2       1 RES1   0.0000
    20 Cl20    10.4800   3.6230  16.7500   Cl        1 RES1   0.0000
    21 S21     12.8164   2.2022  21.6778   S.3       1 RES1   0.0000
    22 C22     12.0664   3.7523  26.5919   C.2       1 RES1   0.0000
    23 C23     11.8853   4.7554  27.5665   C.2       1 RES1   0.0000
    24 N24     11.7677   4.4054  28.9268   N.3       1 RES1   0.0000
    25 C25     12.0557   2.9753  29.1404   C.3       1 RES1   0.0000
    26 C26     11.9543   2.6030  30.5980   C.3       1 RES1   0.0000
    27 N27     10.5670   2.8962  31.0724   N.3       1 RES1   1.0000
    28 C28     10.3194   2.4014  32.4487   C.3       1 RES1   0.0000
    29 C29     11.0451   3.2432  33.5233   C.3       1 RES1   0.0000
    30 O30     12.4913   3.2652  33.3567   O.3       1 RES1   0.0000
    31 C31     10.3326   4.3635  30.9232   C.3       1 RES1   0.0000
    32 C32     10.4454   4.7457  29.4661   C.3       1 RES1   0.0000
    33 N33     11.8435   6.0493  27.1765   N.2       1 RES1   0.0000
@<TRIPOS>BOND
     1     1     2    1
     2     2     3    2
     3     3     4    1
     4     4     5    1
     5     5     6    1
     6     6     7    2
     7     7     8    1
     8     8     9    2
     9     9    10    1
    10    10    11    2
    11    10    12   am
    12    12    13    1
    13    13    14    2
    14    14    15    1
    15    14    16    1
    16    16    17    2
    17    17    18    1
    18    18    19    2
    19    19    20    1
    20     9    21    1
    21     4    22    2
    22    22    23    1
    23    23    24    1
    24    24    25    1
    25    25    26    1
    26    26    27    1
    27    27    28    1
    28    28    29    1
    29    29    30    1
    30    27    31    1
    31    31    32    1
    32    23    33    2
    33    33     2    1
    34    21     6    1
    35    32    24    1
    36    19    13    1
@<TRIPOS>SUBSTRUCTURE
     1 RES1        1 GROUP             0 ****  ****    0  
@<TRIPOS>MOLECULE
ligand_18
    33    36     1     0     0
SMALL
USER_CHARGES
****
Generated from the CSD

@<TRIPOS>ATOM
     1 C1      12.1084   3.8384  26.3205   C.3       1 RES1   0.0000
     2 C2      12.0182   5.3242  26.0987   C.2       1 RES1   0.0000
     3 N3      12.1641   5.7899  24.8403   N.2       1 RES1   0.0000
     4 C4      12.0844   7.1104  24.5695   C.2       1 RES1   0.0000
     5 N5      12.2139   7.5671  23.2902   N.2       1 RES1   0.0000
     6 C6      12.4282   6.7830  22.1909   C.2       1 RES1   0.0000
     7 N7      12.5297   5.4450  22.3086   N.2       1 RES1   0.0000
     8 C8      12.7005   4.7983  21.1239   C.2       1 RES1   0.0000
     9 C9      12.6936   5.6502  20.0109   C.2       1 RES1   0.0000
    10 C10     12.8652   5.3873  18.5578   C.2       1 RES1   0.0000
    11 O11     12.8523   6.3244  17.7869   O.2       1 RES1   0.0000
    12 N12     13.0420   4.1270  18.1500   N.am      1 RES1   0.0000
    13 C13     13.2240   3.8270  16.7860   C.2       1 RES1   0.0000
    14 C14     14.4900   3.7930  16.2040   C.2       1 RES1   0.0000
    15 C15     15.7200   4.0740  17.0300   C.3       1 RES1   0.0000
    16 C16     14.6170   3.5190  14.8460   C.2       1 RES1   0.0000
    17 C17     13.4940   3.2730  14.0610   C.2       1 RES1   0.0000
    18 C18     12.2310   3.3030  14.6430   C.2       1 RES1   0.0000
    19 C19     12.1070   3.5850  16.0010   C.2       1 RES1   0.0000
    20 Cl20    10.4800   3.6230  16.7500   Cl        1 RES1   0.0000
    21 S21     12.4830   7.3450  20.5022   S.3       1 RES1   0.0000
    22 C22     11.8927   8.0043  25.6335   C.2       1 RES1   0.0000
    23 C23     11.7685   7.5043  26.9464   C.2       1 RES1   0.0000
    24 N24     11.5610   8.3903  28.0228   N.3       1 RES1   0.0000
    25 C25     11.2241   7.6629  29.2601   C.3       1 RES1   0.0000
    26 C26     11.0253   8.6067  30.4191   C.3       1 RES1   0.0000
    27 N27      9.9097   9.5453  30.0872   N.3       1 RES1   1.0000
    28 C28      9.5238  10.4000  31.2365   C.3       1 RES1   0.0000
    29 C29     10.5750  11.4904  31.5466   C.3       1 RES1   0.0000
    30 O30     11.8872  10.9488  31.8699   O.3       1 RES1   0.0000
    31 C31     10.3132  10.3277  28.8809   C.3       1 RES1   0.0000
    32 C32     10.5265   9.3866  27.7186   C.3       1 RES1   0.0000
    33 N33     11.8353   6.1693  27.1490   N.2       1 RES1   0.0000
@<TRIPOS>BOND
     1     1     2    1
     2     2     3    2
     3     3     4    1
     4     4     5    1
     5     5     6    1
     6     6     7    2
     7     7     8    1
     8     8     9    2
     9     9    10    1
    10    10    11    2
    11    10    12   am
    12    12    13    1
    13    13    14    2
    14    14    15    1
    15    14    16    1
    16    16    17    2
    17    17    18    1
    18    18    19    2
    19    19    20    1
    20     9    21    1
    21     4    22    2
    22    22    23    1
    23    23    24    1
    24    24    25    1
    25    25    26    1
    26    26    27    1
    27    27    28    1
    28    28    29    1
    29    29    30    1
    30    27    31    1
    31    31    32    1
    32    23    33    2
    33    33     2    1
    34    21     6    1
    35    32    24    1
    36    19    13    1
@<TRIPOS>SUBSTRUCTURE
     1 RES1        1 GROUP             0 ****  ****    0  
@<TRIPOS>MOLECULE
ligand_19
    33    36     1     0     0
SMALL
USER_CHARGES
****
Generated from the CSD

@<TRIPOS>ATOM
     1 C1      12.1084   3.8384  26.3205   C.3       1 RES1   0.0000
     2 C2      12.0182   5.3242  26.0987   C.2       1 RES1   0.0000
     3 N3      12.1641   5.7899  24.8403   N.2       1 RES1   0.0000
     4 C4      12.0844   7.1104  24.5695   C.2       1 RES1   0.0000
     5 N5      12.2139   7.5671  23.2902   N.2       1 RES1   0.0000
     6 C6      12.4282   6.7830  22.1909   C.2       1 RES1   0.0000
     7 N7      12.5297   5.4450  22.3086   N.2       1 RES1   0.0000
     8 C8      12.7005   4.7983  21.1239   C.2       1 RES1   0.0000
     9 C9      12.6936   5.6502  20.0109   C.2       1 RES1   0.0000
    10 C10     12.8652   5.3873  18.5578   C.2       1 RES1   0.0000
    11 O11     12.8523   6.3244  17.7869   O.2       1 RES1   0.0000
    12 N12     13.0420   4.1270  18.1500   N.am      1 RES1   0.0000
    13 C13     13.2240   3.8270  16.7860   C.2       1 RES1   0.0000
    14 C14     14.4900   3.7930  16.2040   C.2       1 RES1   0.0000
    15 C15     15.7200   4.0740  17.0300   C.3       1 RES1   0.0000
    16 C16     14.6170   3.5190  14.8460   C.2       1 RES1   0.0000
    17 C17     13.4940   3.2730  14.0610   C.2       1 RES1   0.0000
    18 C18     12.2310   3.3030  14.6430   C.2       1 RES1   0.0000
    19 C19     12.1070   3.5850  16.0010   C.2       1 RES1   0.0000
    20 Cl20    10.4800   3.6230  16.7500   Cl        1 RES1   0.0000
    21 S21     12.4830   7.3450  20.5022   S.3       1 RES1   0.0000
    22 C22     11.8927   8.0043  25.6335   C.2       1 RES1   0.0000
    23 C23     11.7685   7.5043  26.9464   C.2       1 RES1   0.0000
    24 N24     11.5610   8.3903  28.0228   N.3       1 RES1   0.0000
    25 C25     11.3079   9.7629  27.5477   C.3       1 RES1   0.0000
    26 C26     11.0616  10.7084  28.6962   C.3       1 RES1   0.0000
    27 N27     12.2676  10.7139  29.5799   N.3       1 RES1   1.0000
    28 C28     12.1898  11.7453  30.6431   C.3       1 RES1   0.0000
    29 C29     11.1729  11.3833  31.7500   C.3       1 RES1   0.0000
    30 O30      9.8155  11.2149  31.2512   O.3       1 RES1   0.0000
    31 C31     12.4508   9.3310  30.1133   C.3       1 RES1   0.0000
    32 C32     12.6855   8.3761  28.9665   C.3       1 RES1   0.0000
    33 N33     11.8353   6.1693  27.1490   N.2       1 RES1   0.0000
@<TRIPOS>BOND
     1     1     2    1
     2     2     3    2
     3     3     4    1
     4     4     5    1
     5     5     6    1
     6     6     7    2
     7     7     8    1
     8     8     9    2
     9     9    10    1
    10    10    11    2
    11    10    12   am
    12    12    13    1
    13    13    14    2
    14    14    15    1
    15    14    16    1
    16    16    17    2
    17    17    18    1
    18    18    19    2
    19    19    20    1
    20     9    21    1
    21     4    22    2
    22    22    23    1
    23    23    24    1
    24    24    25    1
    25    25    26    1
    26    26    27    1
    27    27    28    1
    28    28    29    1
    29    29    30    1
    30    27    31    1
    31    31    32    1
    32    23    33    2
    33    33     2    1
    34    21     6    1
    35    32    24    1
    36    19    13    1
@<TRIPOS>SUBSTRUCTURE
     1 RES1        1 GROUP             0 ****  ****    0  
@<TRIPOS>MOLECULE
ligand_20
    33    36     1     0     0
SMALL
USER_CHARGES
****
Generated from the CSD

@<TRIPOS>ATOM
     1 C1      11.9153   7.8118  25.4208   C.3       1 RES1   0.0000
     2 C2      11.9762   6.3743  25.8622   C.2       1 RES1   0.0000
     3 N3      12.1245   5.4236  24.9156   N.2       1 RES1   0.0000
     4 C4      12.1966   4.1156  25.2432   C.2       1 RES1   0.0000
     5 N5      12.3665   3.1654  24.2787   N.2       1 RES1   0.0000
     6 C6      12.4776   3.4130  22.9387   C.2       1 RES1   0.0000
     7 N7      12.4237   4.6726  22.4643   N.2       1 RES1   0.0000
     8 C8      12.5908   4.7624  21.1172   C.2       1 RES1   0.0000
     9 C9      12.8292   3.5289  20.4955   C.2       1 RES1   0.0000
    10 C10     13.0415   3.1590  19.0714   C.2       1 RES1   0.0000
    11 O11     13.1952   1.9896  18.7861   O.2       1 RES1   0.0000
    12 N12     13.0420   4.1270  18.1500   N.am      1 RES1   0.0000
    13 C13     13.2240   3.8270  16.7860   C.2       1 RES1   0.0000
    14 C14     14.4900   3.7930  16.2040   C.2       1 RES1   0.0000
    15 C15     15.7200   4.0740  17.0300   C.3       1 RES1   0.0000
    16 C16     14.6170   3.5190  14.8460   C.2       1 RES1   0.0000
    17 C17     13.4940   3.2730  14.0610   C.2       1 RES1   0.0000
    18 C18     12.2310   3.3030  14.6430   C.2       1 RES1   0.0000
    19 C19     12.1070   3.5850  16.0010   C.2       1 RES1   0.0000
    20 Cl20    10.4800   3.6230  16.7500   Cl        1 RES1   0.0000
    21 S21     12.8164   2.2022  21.6778   S.3       1 RES1   0.0000
    22 C22     12.0664   3.7523  26.5919   C.2       1 RES1   0.0000
    23 C23     11.8853   4.7554  27.5665   C.2       1 RES1   0.0000
    24 N24     11.7677   4.4054  28.9268   N.3       1 RES1   0.0000
    25 C25     11.1674   5.4987  29.7130   C.3       1 RES1   0.0000
    26 C26     11.0181   5.1180  31.1643   C.3       1 RES1   0.0000
    27 N27     12.3706   4.8049  31.7196   N.3       1 RES1   1.0000
    28 C28     12.3474   4.5880  33.1868   C.3       1 RES1   0.0000
    29 C29     12.2170   5.9078  33.9814   C.3       1 RES1   0.0000
    30 O30     11.0110   6.6568  33.6584   O.3       1 RES1   0.0000
    31 C31     12.9188   3.6412  30.9609   C.3       1 RES1   0.0000
    32 C32     13.0592   4.0116  29.5032   C.3       1 RES1   0.0000
    33 N33     11.8435   6.0493  27.1765   N.2       1 RES1   0.0000
@<TRIPOS>BOND
     1     1     2    1
     2     2     3    2
     3     3     4    1
     4     4     5    1
     5     5     6    1
     6     6     7    2
     7     7     8    1
     8     8     9    2
     9     9    10    1
    10    10    11    2
    11    10    12   am
    12    12    13    1
    13    13    14    2
    14    14    15    1
    15    14    16    1
    16    16    17    2
    17    17    18    1
    18    18    19    2
    19    19    20    1
    20     9    21    1
    21     4    22    2
    22    22    23    1
    23    23    24    1
    24    24    25    1
    25    25    26    1
    26    26    27    1
    27    27    28    1
    28    28    29    1
    29    29    30    1
    30    27    31    1
    31    31    32    1
    32    23    33    2
    33    33     2    1
    34    21     6    1
    35    32    24    1
    36    19    13    1
@<TRIPOS>SUBSTRUCTURE
     1 RES1        1 GROUP             0 ****  ****    0  
@<TRIPOS>MOLECULE
ligand_21
    33    36     1     0     0
SMALL
USER_CHARGES
****
Generated from the CSD

@<TRIPOS>ATOM
     1 C1      12.1084   3.8384  26.3205   C.3       1 RES1   0.0000
     2 C2      12.0182   5.3242  26.0987   C.2       1 RES1   0.0000
     3 N3      12.1641   5.7899  24.8403   N.2       1 RES1   0.0000
     4 C4      12.0844   7.1104  24.5695   C.2       1 RES1   0.0000
     5 N5      12.2139   7.5671  23.2902   N.2       1 RES1   0.0000
     6 C6      12.4282   6.7830  22.1909   C.2       1 RES1   0.0000
     7 N7      12.5297   5.4450  22.3086   N.2       1 RES1   0.0000
     8 C8      12.7005   4.7983  21.1239   C.2       1 RES1   0.0000
     9 C9      12.6936   5.6502  20.0109   C.2       1 RES1   0.0000
    10 C10     12.8652   5.3873  18.5578   C.2       1 RES1   0.0000
    11 O11     12.8523   6.3244  17.7869   O.2       1 RES1   0.0000
    12 N12     13.0420   4.1270  18.1500   N.am      1 RES1   0.0000
    13 C13     13.2240   3.8270  16.7860   C.2       1 RES1   0.0000
    14 C14     14.4900   3.7930  16.2040   C.2       1 RES1   0.0000
    15 C15     15.7200   4.0740  17.0300   C.3       1 RES1   0.0000
    16 C16     14.6170   3.5190  14.8460   C.2       1 RES1   0.0000
    17 C17     13.4940   3.2730  14.0610   C.2       1 RES1   0.0000
    18 C18     12.2310   3.3030  14.6430   C.2       1 RES1   0.0000
    19 C19     12.1070   3.5850  16.0010   C.2       1 RES1   0.0000
    20 Cl20    10.4800   3.6230  16.7500   Cl        1 RES1   0.0000
    21 S21     12.4830   7.3450  20.5022   S.3       1 RES1   0.0000
    22 C22     11.8927   8.0043  25.6335   C.2       1 RES1   0.0000
    23 C23     11.7685   7.5043  26.9464   C.2       1 RES1   0.0000
    24 N24     11.5610   8.3903  28.0228   N.3       1 RES1   0.0000
    25 C25     11.8843   7.7536  29.3127   C.3       1 RES1   0.0000
    26 C26     11.6863   8.7068  30.4642   C.3       1 RES1   0.0000
    27 N27     10.2573   9.1461  30.4828   N.3       1 RES1   1.0000
    28 C28      9.9243   9.9499  31.6842   C.3       1 RES1   0.0000
    29 C29      9.7788   9.0849  32.9573   C.3       1 RES1   0.0000
    30 O30     10.9842   8.3370  33.2853   O.3       1 RES1   0.0000
    31 C31      9.9813   9.8610  29.2010   C.3       1 RES1   0.0000
    32 C32     10.1901   8.9150  28.0419   C.3       1 RES1   0.0000
    33 N33     11.8353   6.1693  27.1490   N.2       1 RES1   0.0000
@<TRIPOS>BOND
     1     1     2    1
     2     2     3    2
     3     3     4    1
     4     4     5    1
     5     5     6    1
     6     6     7    2
     7     7     8    1
     8     8     9    2
     9     9    10    1
    10    10    11    2
    11    10    12   am
    12    12    13    1
    13    13    14    2
    14    14    15    1
    15    14    16    1
    16    16    17    2
    17    17    18    1
    18    18    19    2
    19    19    20    1
    20     9    21    1
    21     4    22    2
    22    22    23    1
    23    23    24    1
    24    24    25    1
    25    25    26    1
    26    26    27    1
    27    27    28    1
    28    28    29    1
    29    29    30    1
    30    27    31    1
    31    31    32    1
    32    23    33    2
    33    33     2    1
    34    21     6    1
    35    32    24    1
    36    19    13    1
@<TRIPOS>SUBSTRUCTURE
     1 RES1        1 GROUP             0 ****  ****    0  
@<TRIPOS>MOLECULE
ligand_22
    33    36     1     0     0
SMALL
USER_CHARGES
****
Generated from the CSD

@<TRIPOS>ATOM
     1 C1      12.7664  -1.5949  23.7538   C.3       1 RES1   0.0000
     2 C2      12.5936  -0.4065  24.6608   C.2       1 RES1   0.0000
     3 N3      12.5702   0.8221  24.1026   N.2       1 RES1   0.0000
     4 C4      12.4083   1.9303  24.8571   C.2       1 RES1   0.0000
     5 N5      12.3665   3.1654  24.2787   N.2       1 RES1   0.0000
     6 C6      12.4776   3.4130  22.9387   C.2       1 RES1   0.0000
     7 N7      12.4237   4.6726  22.4643   N.2       1 RES1   0.0000
     8 C8      12.5908   4.7624  21.1172   C.2       1 RES1   0.0000
     9 C9      12.8292   3.5289  20.4955   C.2       1 RES1   0.0000
    10 C10     13.0415   3.1590  19.0714   C.2       1 RES1   0.0000
    11 O11     13.1952   1.9896  18.7861   O.2       1 RES1   0.0000
    12 N12     13.0420   4.1270  18.1500   N.am      1 RES1   0.0000
    13 C13     13.2240   3.8270  16.7860   C.2       1 RES1   0.0000
    14 C14     14.4900   3.7930  16.2040   C.2       1 RES1   0.0000
    15 C15     15.7200   4.0740  17.0300   C.3       1 RES1   0.0000
    16 C16     14.6170   3.5190  14.8460   C.2       1 RES1   0.0000
    17 C17     13.4940   3.2730  14.0610   C.2       1 RES1   0.0000
    18 C18     12.2310   3.3030  14.6430   C.2       1 RES1   0.0000
    19 C19     12.1070   3.5850  16.0010   C.2       1 RES1   0.0000
    20 Cl20    10.4800   3.6230  16.7500   Cl        1 RES1   0.0000
    21 S21     12.8164   2.2022  21.6778   S.3       1 RES1   0.0000
    22 C22     12.3111   1.7872  26.2492   C.2       1 RES1   0.0000
    23 C23     12.3639   0.4987  26.8199   C.2       1 RES1   0.0000
    24 N24     12.2529   0.3396  28.2160   N.pl3     1 RES1   0.0000
    25 C25     12.1400  -0.9543  28.8821   C.3       1 RES1   0.0000
    26 C26     12.8736  -0.9226  30.2003   C.3       1 RES1   0.0000
    27 N27     12.3663   0.1848  31.0629   N.3       1 RES1   1.0000
    28 C28     13.1086   0.1890  32.3471   C.3       1 RES1   0.0000
    29 C29     12.6405   1.3117  33.3013   C.3       1 RES1   0.0000
    30 O30     11.2092   1.2815  33.5665   O.3       1 RES1   0.0000
    31 C31     12.4310   1.4883  30.3383   C.3       1 RES1   0.0000
    32 C32     11.6903   1.4111  29.0268   C.3       1 RES1   0.0000
    33 N33     12.5055  -0.5732  26.0081   N.2       1 RES1   0.0000
@<TRIPOS>BOND
     1     1     2    1
     2     2     3    2
     3     3     4    1
     4     4     5    1
     5     5     6    1
     6     6     7    2
     7     7     8    1
     8     8     9    2
     9     9    10    1
    10    10    11    2
    11    10    12   am
    12    12    13    1
    13    13    14    2
    14    14    15    1
    15    14    16    1
    16    16    17    2
    17    17    18    1
    18    18    19    2
    19    19    20    1
    20     9    21    1
    21     4    22    2
    22    22    23    1
    23    23    24    1
    24    24    25    1
    25    25    26    1
    26    26    27    1
    27    27    28    1
    28    28    29    1
    29    29    30    1
    30    27    31    1
    31    31    32    1
    32    23    33    2
    33    33     2    1
    34    21     6    1
    35    32    24    1
    36    19    13    1
@<TRIPOS>SUBSTRUCTURE
     1 RES1        1 GROUP             0 ****  ****    0  
@<TRIPOS>MOLECULE
ligand_23
    33    36     1     0     0
SMALL
USER_CHARGES
****
Generated from the CSD

@<TRIPOS>ATOM
     1 C1      12.7664  -1.5949  23.7538   C.3       1 RES1   0.0000
     2 C2      12.5936  -0.4065  24.6608   C.2       1 RES1   0.0000
     3 N3      12.5702   0.8221  24.1026   N.2       1 RES1   0.0000
     4 C4      12.4083   1.9303  24.8571   C.2       1 RES1   0.0000
     5 N5      12.3665   3.1654  24.2787   N.2       1 RES1   0.0000
     6 C6      12.4776   3.4130  22.9387   C.2       1 RES1   0.0000
     7 N7      12.4237   4.6726  22.4643   N.2       1 RES1   0.0000
     8 C8      12.5908   4.7624  21.1172   C.2       1 RES1   0.0000
     9 C9      12.8292   3.5289  20.4955   C.2       1 RES1   0.0000
    10 C10     13.0415   3.1590  19.0714   C.2       1 RES1   0.0000
    11 O11     13.1952   1.9896  18.7861   O.2       1 RES1   0.0000
    12 N12     13.0420   4.1270  18.1500   N.am      1 RES1   0.0000
    13 C13     13.2240   3.8270  16.7860   C.2       1 RES1   0.0000
    14 C14     14.4900   3.7930  16.2040   C.2       1 RES1   0.0000
    15 C15     15.7200   4.0740  17.0300   C.3       1 RES1   0.0000
    16 C16     14.6170   3.5190  14.8460   C.2       1 RES1   0.0000
    17 C17     13.4940   3.2730  14.0610   C.2       1 RES1   0.0000
    18 C18     12.2310   3.3030  14.6430   C.2       1 RES1   0.0000
    19 C19     12.1070   3.5850  16.0010   C.2       1 RES1   0.0000
    20 Cl20    10.4800   3.6230  16.7500   Cl        1 RES1   0.0000
    21 S21     12.8164   2.2022  21.6778   S.3       1 RES1   0.0000
    22 C22     12.3111   1.7872  26.2492   C.2       1 RES1   0.0000
    23 C23     12.3639   0.4987  26.8199   C.2       1 RES1   0.0000
    24 N24     12.2529   0.3396  28.2160   N.pl3     1 RES1   0.0000
    25 C25     11.8700   1.4111  29.1301   C.3       1 RES1   0.0000
    26 C26     11.0337   0.8552  30.2565   C.3       1 RES1   0.0000
    27 N27     11.7603  -0.2384  30.9664   N.3       1 RES1   1.0000
    28 C28     10.9113  -0.7629  32.0638   C.3       1 RES1   0.0000
    29 C29     11.5949  -1.9039  32.8517   C.3       1 RES1   0.0000
    30 O30     12.9007  -1.5359  33.3800   O.3       1 RES1   0.0000
    31 C31     12.1985  -1.2910  30.0031   C.3       1 RES1   0.0000
    32 C32     13.0262  -0.6926  28.8933   C.3       1 RES1   0.0000
    33 N33     12.5055  -0.5732  26.0081   N.2       1 RES1   0.0000
@<TRIPOS>BOND
     1     1     2    1
     2     2     3    2
     3     3     4    1
     4     4     5    1
     5     5     6    1
     6     6     7    2
     7     7     8    1
     8     8     9    2
     9     9    10    1
    10    10    11    2
    11    10    12   am
    12    12    13    1
    13    13    14    2
    14    14    15    1
    15    14    16    1
    16    16    17    2
    17    17    18    1
    18    18    19    2
    19    19    20    1
    20     9    21    1
    21     4    22    2
    22    22    23    1
    23    23    24    1
    24    24    25    1
    25    25    26    1
    26    26    27    1
    27    27    28    1
    28    28    29    1
    29    29    30    1
    30    27    31    1
    31    31    32    1
    32    23    33    2
    33    33     2    1
    34    21     6    1
    35    32    24    1
    36    19    13    1
@<TRIPOS>SUBSTRUCTURE
     1 RES1        1 GROUP             0 ****  ****    0  
@<TRIPOS>MOLECULE
ligand_24
    33    36     1     0     0
SMALL
USER_CHARGES
****
Generated from the CSD

@<TRIPOS>ATOM
     1 C1      12.2208  11.6569  20.7663   C.3       1 RES1   0.0000
     2 C2      12.0953  10.9601  22.0943   C.2       1 RES1   0.0000
     3 N3      12.1901   9.6139  22.1182   N.2       1 RES1   0.0000
     4 C4      12.0967   8.9265  23.2767   C.2       1 RES1   0.0000
     5 N5      12.2139   7.5671  23.2902   N.2       1 RES1   0.0000
     6 C6      12.4282   6.7830  22.1909   C.2       1 RES1   0.0000
     7 N7      12.5297   5.4450  22.3086   N.2       1 RES1   0.0000
     8 C8      12.7005   4.7983  21.1239   C.2       1 RES1   0.0000
     9 C9      12.6936   5.6502  20.0109   C.2       1 RES1   0.0000
    10 C10     12.8652   5.3873  18.5578   C.2       1 RES1   0.0000
    11 O11     12.8523   6.3244  17.7869   O.2       1 RES1   0.0000
    12 N12     13.0420   4.1270  18.1500   N.am      1 RES1   0.0000
    13 C13     13.2240   3.8270  16.7860   C.2       1 RES1   0.0000
    14 C14     14.4900   3.7930  16.2040   C.2       1 RES1   0.0000
    15 C15     15.7200   4.0740  17.0300   C.3       1 RES1   0.0000
    16 C16     14.6170   3.5190  14.8460   C.2       1 RES1   0.0000
    17 C17     13.4940   3.2730  14.0610   C.2       1 RES1   0.0000
    18 C18     12.2310   3.3030  14.6430   C.2       1 RES1   0.0000
    19 C19     12.1070   3.5850  16.0010   C.2       1 RES1   0.0000
    20 Cl20    10.4800   3.6230  16.7500   Cl        1 RES1   0.0000
    21 S21     12.4830   7.3450  20.5022   S.3       1 RES1   0.0000
    22 C22     11.8501   9.6363  24.4613   C.2       1 RES1   0.0000
    23 C23     11.7271  11.0405  24.4164   C.2       1 RES1   0.0000
    24 N24     11.4938  11.7672  25.6013   N.pl3     1 RES1   0.0000
    25 C25     11.5074  13.2247  25.6791   C.3       1 RES1   0.0000
    26 C26     10.4666  13.6993  26.6632   C.3       1 RES1   0.0000
    27 N27     10.6801  13.0762  28.0025   N.3       1 RES1   1.0000
    28 C28      9.6410  13.5615  28.9433   C.3       1 RES1   0.0000
    29 C29      9.7927  12.9601  30.3594   C.3       1 RES1   0.0000
    30 O30     11.1115  13.1757  30.9374   O.3       1 RES1   0.0000
    31 C31     10.7271  11.5886  27.8895   C.3       1 RES1   0.0000
    32 C32     11.7757  11.1584  26.8943   C.3       1 RES1   0.0000
    33 N33     11.8525  11.6723  23.2277   N.2       1 RES1   0.0000
@<TRIPOS>BOND
     1     1     2    1
     2     2     3    2
     3     3     4    1
     4     4     5    1
     5     5     6    1
     6     6     7    2
     7     7     8    1
     8     8     9    2
     9     9    10    1
    10    10    11    2
    11    10    12   am
    12    12    13    1
    13    13    14    2
    14    14    15    1
    15    14    16    1
    16    16    17    2
    17    17    18    1
    18    18    19    2
    19    19    20    1
    20     9    21    1
    21     4    22    2
    22    22    23    1
    23    23    24    1
    24    24    25    1
    25    25    26    1
    26    26    27    1
    27    27    28    1
    28    28    29    1
    29    29    30    1
    30    27    31    1
    31    31    32    1
    32    23    33    2
    33    33     2    1
    34    21     6    1
    35    32    24    1
    36    19    13    1
@<TRIPOS>SUBSTRUCTURE
     1 RES1        1 GROUP             0 ****  ****    0  
@<TRIPOS>MOLECULE
ligand_25
    33    36     1     0     0
SMALL
USER_CHARGES
****
Generated from the CSD

@<TRIPOS>ATOM
     1 C1      12.2208  11.6569  20.7663   C.3       1 RES1   0.0000
     2 C2      12.0953  10.9601  22.0943   C.2       1 RES1   0.0000
     3 N3      12.1901   9.6139  22.1182   N.2       1 RES1   0.0000
     4 C4      12.0967   8.9265  23.2767   C.2       1 RES1   0.0000
     5 N5      12.2139   7.5671  23.2902   N.2       1 RES1   0.0000
     6 C6      12.4282   6.7830  22.1909   C.2       1 RES1   0.0000
     7 N7      12.5297   5.4450  22.3086   N.2       1 RES1   0.0000
     8 C8      12.7005   4.7983  21.1239   C.2       1 RES1   0.0000
     9 C9      12.6936   5.6502  20.0109   C.2       1 RES1   0.0000
    10 C10     12.8652   5.3873  18.5578   C.2       1 RES1   0.0000
    11 O11     12.8523   6.3244  17.7869   O.2       1 RES1   0.0000
    12 N12     13.0420   4.1270  18.1500   N.am      1 RES1   0.0000
    13 C13     13.2240   3.8270  16.7860   C.2       1 RES1   0.0000
    14 C14     14.4900   3.7930  16.2040   C.2       1 RES1   0.0000
    15 C15     15.7200   4.0740  17.0300   C.3       1 RES1   0.0000
    16 C16     14.6170   3.5190  14.8460   C.2       1 RES1   0.0000
    17 C17     13.4940   3.2730  14.0610   C.2       1 RES1   0.0000
    18 C18     12.2310   3.3030  14.6430   C.2       1 RES1   0.0000
    19 C19     12.1070   3.5850  16.0010   C.2       1 RES1   0.0000
    20 Cl20    10.4800   3.6230  16.7500   Cl        1 RES1   0.0000
    21 S21     12.4830   7.3450  20.5022   S.3       1 RES1   0.0000
    22 C22     11.8501   9.6363  24.4613   C.2       1 RES1   0.0000
    23 C23     11.7271  11.0405  24.4164   C.2       1 RES1   0.0000
    24 N24     11.4938  11.7672  25.6013   N.pl3     1 RES1   0.0000
    25 C25     11.5761  11.1912  26.9399   C.3       1 RES1   0.0000
    26 C26     12.1331  12.2074  27.9064   C.3       1 RES1   0.0000
    27 N27     11.3132  13.4546  27.8951   N.3       1 RES1   1.0000
    28 C28     11.8882  14.4310  28.8524   C.3       1 RES1   0.0000
    29 C29     11.0930  15.7559  28.9006   C.3       1 RES1   0.0000
    30 O30      9.6783  15.5674  29.1883   O.3       1 RES1   0.0000
    31 C31     11.1888  13.9902  26.5074   C.3       1 RES1   0.0000
    32 C32     10.6336  12.9426  25.5751   C.3       1 RES1   0.0000
    33 N33     11.8525  11.6723  23.2277   N.2       1 RES1   0.0000
@<TRIPOS>BOND
     1     1     2    1
     2     2     3    2
     3     3     4    1
     4     4     5    1
     5     5     6    1
     6     6     7    2
     7     7     8    1
     8     8     9    2
     9     9    10    1
    10    10    11    2
    11    10    12   am
    12    12    13    1
    13    13    14    2
    14    14    15    1
    15    14    16    1
    16    16    17    2
    17    17    18    1
    18    18    19    2
    19    19    20    1
    20     9    21    1
    21     4    22    2
    22    22    23    1
    23    23    24    1
    24    24    25    1
    25    25    26    1
    26    26    27    1
    27    27    28    1
    28    28    29    1
    29    29    30    1
    30    27    31    1
    31    31    32    1
    32    23    33    2
    33    33     2    1
    34    21     6    1
    35    32    24    1
    36    19    13    1
@<TRIPOS>SUBSTRUCTURE
     1 RES1        1 GROUP             0 ****  ****    0  
@<TRIPOS>MOLECULE
ligand_26
    33    36     1     0     0
SMALL
USER_CHARGES
****
Generated from the CSD

@<TRIPOS>ATOM
     1 C1      11.6696   4.3913  28.8730   C.3       1 RES1   0.0000
     2 C2      12.1653   4.7583  27.5003   C.2       1 RES1   0.0000
     3 N3      12.0700   3.8343  26.5211   N.2       1 RES1   0.0000
     4 C4      12.4864   4.1011  25.2646   C.2       1 RES1   0.0000
     5 N5      12.3665   3.1654  24.2787   N.2       1 RES1   0.0000
     6 C6      12.3392   3.4315  22.9379   C.2       1 RES1   0.0000
     7 N7      12.0255   4.6612  22.4861   N.2       1 RES1   0.0000
     8 C8      12.0812   4.7823  21.1323   C.2       1 RES1   0.0000
     9 C9      12.4964   3.6140  20.4786   C.2       1 RES1   0.0000
    10 C10     12.6746   3.2915  19.0384   C.2       1 RES1   0.0000
    11 O11     13.0181   2.1701  18.7268   O.2       1 RES1   0.0000
    12 N12     12.4367   4.2451  18.1329   N.am      1 RES1   0.0000
    13 C13     12.5767   3.9858  16.7556   C.2       1 RES1   0.0000
    14 C14     13.7851   4.1837  16.0900   C.2       1 RES1   0.0000
    15 C15     14.9972   4.6822  16.8360   C.3       1 RES1   0.0000
    16 C16     13.8668   3.9399  14.7228   C.2       1 RES1   0.0000
    17 C17     12.7561   3.4951  14.0111   C.2       1 RES1   0.0000
    18 C18     11.5513   3.2938  14.6765   C.2       1 RES1   0.0000
    19 C19     11.4712   3.5461  16.0436   C.2       1 RES1   0.0000
    20 Cl20     9.9192   3.2861  16.9000   Cl        1 RES1   0.0000
    21 S21     12.8051   2.3049  21.6402   S.3       1 RES1   0.0000
    22 C22     13.0691   5.3496  25.0005   C.2       1 RES1   0.0000
    23 C23     13.1860   6.2950  26.0405   C.2       1 RES1   0.0000
    24 N24     13.7561   7.5585  25.7855   N.pl3     1 RES1   0.0000
    25 C25     13.7785   8.6522  26.7518   C.3       1 RES1   0.0000
    26 C26     15.0622   9.4339  26.6179   C.3       1 RES1   0.0000
    27 N27     15.2365   9.9317  25.2216   N.3       1 RES1   1.0000
    28 C28     16.5063  10.6922  25.1243   C.3       1 RES1   0.0000
    29 C29     16.7620  11.2441  23.7030   C.3       1 RES1   0.0000
    30 O30     15.6666  12.0588  23.1967   O.3       1 RES1   0.0000
    31 C31     15.1456   8.8054  24.2461   C.3       1 RES1   0.0000
    32 C32     13.8517   8.0496  24.4174   C.3       1 RES1   0.0000
    33 N33     12.7297   5.9750  27.2724   N.2       1 RES1   0.0000
@<TRIPOS>BOND
     1     1     2    1
     2     2     3    2
     3     3     4    1
     4     4     5    1
     5     5     6    1
     6     6     7    2
     7     7     8    1
     8     8     9    2
     9     9    10    1
    10    10    11    2
    11    10    12   am
    12    12    13    1
    13    13    14    2
    14    14    15    1
    15    14    16    1
    16    16    17    2
    17    17    18    1
    18    18    19    2
    19    19    20    1
    20     9    21    1
    21     4    22    2
    22    22    23    1
    23    23    24    1
    24    24    25    1
    25    25    26    1
    26    26    27    1
    27    27    28    1
    28    28    29    1
    29    29    30    1
    30    27    31    1
    31    31    32    1
    32    23    33    2
    33    33     2    1
    34    21     6    1
    35    32    24    1
    36    19    13    1
@<TRIPOS>SUBSTRUCTURE
     1 RES1        1 GROUP             0 ****  ****    0  
@<TRIPOS>MOLECULE
ligand_27
    33    36     1     0     0
SMALL
USER_CHARGES
****
Generated from the CSD

@<TRIPOS>ATOM
     1 C1      11.6696   4.3913  28.8730   C.3       1 RES1   0.0000
     2 C2      12.1653   4.7583  27.5003   C.2       1 RES1   0.0000
     3 N3      12.0700   3.8343  26.5211   N.2       1 RES1   0.0000
     4 C4      12.4864   4.1011  25.2646   C.2       1 RES1   0.0000
     5 N5      12.3665   3.1654  24.2787   N.2       1 RES1   0.0000
     6 C6      12.3394   3.4315  22.9379   C.2       1 RES1   0.0000
     7 N7      12.0261   4.6612  22.4861   N.2       1 RES1   0.0000
     8 C8      12.0820   4.7824  21.1322   C.2       1 RES1   0.0000
     9 C9      12.4969   3.6139  20.4786   C.2       1 RES1   0.0000
    10 C10     12.6751   3.2914  19.0384   C.2       1 RES1   0.0000
    11 O11     13.0183   2.1698  18.7269   O.2       1 RES1   0.0000
    12 N12     12.4376   4.2450  18.1329   N.am      1 RES1   0.0000
    13 C13     12.5776   3.9856  16.7556   C.2       1 RES1   0.0000
    14 C14     13.7861   4.1832  16.0901   C.2       1 RES1   0.0000
    15 C15     14.9983   4.6814  16.8362   C.3       1 RES1   0.0000
    16 C16     13.8679   3.9393  14.7229   C.2       1 RES1   0.0000
    17 C17     12.7571   3.4949  14.0111   C.2       1 RES1   0.0000
    18 C18     11.5522   3.2939  14.6764   C.2       1 RES1   0.0000
    19 C19     11.4720   3.5462  16.0435   C.2       1 RES1   0.0000
    20 Cl20     9.9199   3.2866  16.8997   Cl        1 RES1   0.0000
    21 S21     12.8052   2.3048  21.6402   S.3       1 RES1   0.0000
    22 C22     13.0691   5.3496  25.0005   C.2       1 RES1   0.0000
    23 C23     13.1860   6.2950  26.0405   C.2       1 RES1   0.0000
    24 N24     13.7561   7.5585  25.7855   N.pl3     1 RES1   0.0000
    25 C25     14.0551   8.0626  24.4488   C.3       1 RES1   0.0000
    26 C26     13.8084   9.5501  24.3903   C.3       1 RES1   0.0000
    27 N27     14.6028  10.2607  25.4351   N.3       1 RES1   1.0000
    28 C28     14.3359  11.7174  25.3515   C.3       1 RES1   0.0000
    29 C29     15.1245  12.5283  26.4053   C.3       1 RES1   0.0000
    30 O30     16.5604  12.2930  26.3556   O.3       1 RES1   0.0000
    31 C31     14.3297   9.6861  26.7854   C.3       1 RES1   0.0000
    32 C32     14.5843   8.1995  26.7981   C.3       1 RES1   0.0000
    33 N33     12.7297   5.9750  27.2724   N.2       1 RES1   0.0000
@<TRIPOS>BOND
     1     1     2    1
     2     2     3    2
     3     3     4    1
     4     4     5    1
     5     5     6    1
     6     6     7    2
     7     7     8    1
     8     8     9    2
     9     9    10    1
    10    10    11    2
    11    10    12   am
    12    12    13    1
    13    13    14    2
    14    14    15    1
    15    14    16    1
    16    16    17    2
    17    17    18    1
    18    18    19    2
    19    19    20    1
    20     9    21    1
    21     4    22    2
    22    22    23    1
    23    23    24    1
    24    24    25    1
    25    25    26    1
    26    26    27    1
    27    27    28    1
    28    28    29    1
    29    29    30    1
    30    27    31    1
    31    31    32    1
    32    23    33    2
    33    33     2    1
    34    21     6    1
    35    32    24    1
    36    19    13    1
@<TRIPOS>SUBSTRUCTURE
     1 RES1        1 GROUP             0 ****  ****    0  
@<TRIPOS>MOLECULE
ligand_28
    33    36     1     0     0
SMALL
USER_CHARGES
****
Generated from the CSD

@<TRIPOS>ATOM
     1 C1      11.6701   8.3863  27.9944   C.3       1 RES1   0.0000
     2 C2      11.5143   7.4590  26.8194   C.2       1 RES1   0.0000
     3 N3      11.9024   7.9004  25.6044   N.2       1 RES1   0.0000
     4 C4      11.7997   7.1164  24.5098   C.2       1 RES1   0.0000
     5 N5      12.2139   7.5671  23.2902   N.2       1 RES1   0.0000
     6 C6      12.5612   6.7734  22.2325   C.2       1 RES1   0.0000
     7 N7      12.9098   5.4863  22.4226   N.2       1 RES1   0.0000
     8 C8      13.1881   4.8145  21.2729   C.2       1 RES1   0.0000
     9 C9      13.0148   5.5842  20.1144   C.2       1 RES1   0.0000
    10 C10     13.2208   5.2734  18.6753   C.2       1 RES1   0.0000
    11 O11     13.0285   6.1456  17.8538   O.2       1 RES1   0.0000
    12 N12     13.6248   4.0458  18.3352   N.am      1 RES1   0.0000
    13 C13     13.8486   3.7058  16.9869   C.2       1 RES1   0.0000
    14 C14     15.0944   3.8722  16.3845   C.2       1 RES1   0.0000
    15 C15     16.2574   4.4229  17.1707   C.3       1 RES1   0.0000
    16 C16     15.2593   3.5478  15.0417   C.2       1 RES1   0.0000
    17 C17     14.1952   3.0535  14.2925   C.2       1 RES1   0.0000
    18 C18     12.9531   2.8838  14.8951   C.2       1 RES1   0.0000
    19 C19     12.7897   3.2165  16.2374   C.2       1 RES1   0.0000
    20 Cl20    11.1897   2.9972  17.0130   Cl        1 RES1   0.0000
    21 S21     12.4977   7.2367  20.5144   S.3       1 RES1   0.0000
    22 C22     11.2338   5.8402  24.6477   C.2       1 RES1   0.0000
    23 C23     10.8085   5.4033  25.9194   C.2       1 RES1   0.0000
    24 N24     10.2517   4.1178  26.0747   N.pl3     1 RES1   0.0000
    25 C25      9.9280   3.5208  27.3666   C.3       1 RES1   0.0000
    26 C26      8.6776   2.6841  27.2505   C.3       1 RES1   0.0000
    27 N27      8.8312   1.6458  26.1893   N.3       1 RES1   1.0000
    28 C28      7.5863   0.8443  26.1001   C.3       1 RES1   0.0000
    29 C29      7.6646  -0.2580  25.0189   C.3       1 RES1   0.0000
    30 O30      8.8052  -1.1474  25.1858   O.3       1 RES1   0.0000
    31 C31      9.2252   2.2724  24.8930   C.3       1 RES1   0.0000
    32 C32     10.4746   3.1016  25.0550   C.3       1 RES1   0.0000
    33 N33     10.9589   6.2276  26.9805   N.2       1 RES1   0.0000
@<TRIPOS>BOND
     1     1     2    1
     2     2     3    2
     3     3     4    1
     4     4     5    1
     5     5     6    1
     6     6     7    2
     7     7     8    1
     8     8     9    2
     9     9    10    1
    10    10    11    2
    11    10    12   am
    12    12    13    1
    13    13    14    2
    14    14    15    1
    15    14    16    1
    16    16    17    2
    17    17    18    1
    18    18    19    2
    19    19    20    1
    20     9    21    1
    21     4    22    2
    22    22    23    1
    23    23    24    1
    24    24    25    1
    25    25    26    1
    26    26    27    1
    27    27    28    1
    28    28    29    1
    29    29    30    1
    30    27    31    1
    31    31    32    1
    32    23    33    2
    33    33     2    1
    34    21     6    1
    35    32    24    1
    36    19    13    1
@<TRIPOS>SUBSTRUCTURE
     1 RES1        1 GROUP             0 ****  ****    0  
@<TRIPOS>MOLECULE
ligand_29
    33    36     1     0     0
SMALL
USER_CHARGES
****
Generated from the CSD

@<TRIPOS>ATOM
     1 C1      11.6701   8.3863  27.9944   C.3       1 RES1   0.0000
     2 C2      11.5143   7.4590  26.8194   C.2       1 RES1   0.0000
     3 N3      11.9024   7.9004  25.6044   N.2       1 RES1   0.0000
     4 C4      11.7997   7.1164  24.5098   C.2       1 RES1   0.0000
     5 N5      12.2139   7.5671  23.2902   N.2       1 RES1   0.0000
     6 C6      12.5610   6.7734  22.2324   C.2       1 RES1   0.0000
     7 N7      12.9092   5.4861  22.4225   N.2       1 RES1   0.0000
     8 C8      13.1875   4.8144  21.2727   C.2       1 RES1   0.0000
     9 C9      13.0143   5.5843  20.1143   C.2       1 RES1   0.0000
    10 C10     13.2203   5.2735  18.6752   C.2       1 RES1   0.0000
    11 O11     13.0282   6.1459  17.8537   O.2       1 RES1   0.0000
    12 N12     13.6240   4.0459  18.3350   N.am      1 RES1   0.0000
    13 C13     13.8477   3.7059  16.9866   C.2       1 RES1   0.0000
    14 C14     15.0936   3.8720  16.3842   C.2       1 RES1   0.0000
    15 C15     16.2568   4.4223  17.1705   C.3       1 RES1   0.0000
    16 C16     15.2585   3.5477  15.0415   C.2       1 RES1   0.0000
    17 C17     14.1943   3.0538  14.2922   C.2       1 RES1   0.0000
    18 C18     12.9521   2.8843  14.8947   C.2       1 RES1   0.0000
    19 C19     12.7887   3.2170  16.2370   C.2       1 RES1   0.0000
    20 Cl20    11.1886   2.9980  17.0126   Cl        1 RES1   0.0000
    21 S21     12.4976   7.2369  20.5144   S.3       1 RES1   0.0000
    22 C22     11.2338   5.8402  24.6477   C.2       1 RES1   0.0000
    23 C23     10.8085   5.4033  25.9194   C.2       1 RES1   0.0000
    24 N24     10.2517   4.1178  26.0747   N.pl3     1 RES1   0.0000
    25 C25     10.2695   3.0915  25.0370   C.3       1 RES1   0.0000
    26 C26     10.4407   1.7284  25.6612   C.3       1 RES1   0.0000
    27 N27      9.3722   1.4697  26.6707   N.3       1 RES1   1.0000
    28 C28      9.5709   0.1253  27.2653   C.3       1 RES1   0.0000
    29 C29      8.5002  -0.2207  28.3255   C.3       1 RES1   0.0000
    30 O30      7.1377  -0.1062  27.8254   O.3       1 RES1   0.0000
    31 C31      9.3298   2.5643  27.6847   C.3       1 RES1   0.0000
    32 C32      9.1624   3.9072  27.0188   C.3       1 RES1   0.0000
    33 N33     10.9589   6.2276  26.9805   N.2       1 RES1   0.0000
@<TRIPOS>BOND
     1     1     2    1
     2     2     3    2
     3     3     4    1
     4     4     5    1
     5     5     6    1
     6     6     7    2
     7     7     8    1
     8     8     9    2
     9     9    10    1
    10    10    11    2
    11    10    12   am
    12    12    13    1
    13    13    14    2
    14    14    15    1
    15    14    16    1
    16    16    17    2
    17    17    18    1
    18    18    19    2
    19    19    20    1
    20     9    21    1
    21     4    22    2
    22    22    23    1
    23    23    24    1
    24    24    25    1
    25    25    26    1
    26    26    27    1
    27    27    28    1
    28    28    29    1
    29    29    30    1
    30    27    31    1
    31    31    32    1
    32    23    33    2
    33    33     2    1
    34    21     6    1
    35    32    24    1
    36    19    13    1
@<TRIPOS>SUBSTRUCTURE
     1 RES1        1 GROUP             0 ****  ****    0  
@<TRIPOS>MOLECULE
ligand_30
    33    36     1     0     0
SMALL
USER_CHARGES
****
Generated from the CSD

@<TRIPOS>ATOM
     1 C1      11.9138   4.3852  28.9051   C.3       1 RES1   0.0000
     2 C2      11.6579   4.7011  27.4561   C.2       1 RES1   0.0000
     3 N3      12.1176   3.8381  26.5258   N.2       1 RES1   0.0000
     4 C4      11.9140   4.0556  25.2087   C.2       1 RES1   0.0000
     5 N5      12.3665   3.1654  24.2787   N.2       1 RES1   0.0000
     6 C6      12.6193   3.4556  22.9668   C.2       1 RES1   0.0000
     7 N7      12.8389   4.7247  22.5722   N.2       1 RES1   0.0000
     8 C8      13.1172   4.8500  21.2465   C.2       1 RES1   0.0000
     9 C9      13.1627   3.6274  20.5623   C.2       1 RES1   0.0000
    10 C10     13.4041   3.2975  19.1330   C.2       1 RES1   0.0000
    11 O11     13.3545   2.1366  18.7829   O.2       1 RES1   0.0000
    12 N12     13.6544   4.2933  18.2778   N.am      1 RES1   0.0000
    13 C13     13.8749   4.0346  16.9110   C.2       1 RES1   0.0000
    14 C14     15.1505   3.7871  16.4068   C.2       1 RES1   0.0000
    15 C15     16.3482   3.7827  17.3231   C.3       1 RES1   0.0000
    16 C16     15.3216   3.5642  15.0443   C.2       1 RES1   0.0000
    17 C17     14.2323   3.5802  14.1777   C.2       1 RES1   0.0000
    18 C18     12.9589   3.8232  14.6818   C.2       1 RES1   0.0000
    19 C19     12.7922   4.0534  16.0450   C.2       1 RES1   0.0000
    20 Cl20    11.1517   4.3658  16.6937   Cl        1 RES1   0.0000
    21 S21     12.8138   2.2689  21.6536   S.3       1 RES1   0.0000
    22 C22     11.2518   5.2281  24.8156   C.2       1 RES1   0.0000
    23 C23     10.8008   6.1334  25.7985   C.2       1 RES1   0.0000
    24 N24     10.1212   7.3081  25.4179   N.pl3     1 RES1   0.0000
    25 C25      9.4820   8.2211  26.3604   C.3       1 RES1   0.0000
    26 C26      9.6298   9.6445  25.8821   C.3       1 RES1   0.0000
    27 N27      9.0760   9.8012  24.5049   N.3       1 RES1   1.0000
    28 C28      9.2389  11.2085  24.0652   C.3       1 RES1   0.0000
    29 C29      8.6878  11.4548  22.6420   C.3       1 RES1   0.0000
    30 O30      7.2966  11.0543  22.4867   O.3       1 RES1   0.0000
    31 C31      9.6971   8.8148  23.5725   C.3       1 RES1   0.0000
    32 C32      9.5306   7.4079  24.0900   C.3       1 RES1   0.0000
    33 N33     11.0163   5.8473  27.1022   N.2       1 RES1   0.0000
@<TRIPOS>BOND
     1     1     2    1
     2     2     3    2
     3     3     4    1
     4     4     5    1
     5     5     6    1
     6     6     7    2
     7     7     8    1
     8     8     9    2
     9     9    10    1
    10    10    11    2
    11    10    12   am
    12    12    13    1
    13    13    14    2
    14    14    15    1
    15    14    16    1
    16    16    17    2
    17    17    18    1
    18    18    19    2
    19    19    20    1
    20     9    21    1
    21     4    22    2
    22    22    23    1
    23    23    24    1
    24    24    25    1
    25    25    26    1
    26    26    27    1
    27    27    28    1
    28    28    29    1
    29    29    30    1
    30    27    31    1
    31    31    32    1
    32    23    33    2
    33    33     2    1
    34    21     6    1
    35    32    24    1
    36    19    13    1
@<TRIPOS>SUBSTRUCTURE
     1 RES1        1 GROUP             0 ****  ****    0  
@<TRIPOS>MOLECULE
ligand_31
    33    36     1     0     0
SMALL
USER_CHARGES
****
Generated from the CSD

@<TRIPOS>ATOM
     1 C1      11.9138   4.3852  28.9051   C.3       1 RES1   0.0000
     2 C2      11.6579   4.7011  27.4561   C.2       1 RES1   0.0000
     3 N3      12.1176   3.8381  26.5258   N.2       1 RES1   0.0000
     4 C4      11.9140   4.0556  25.2087   C.2       1 RES1   0.0000
     5 N5      12.3665   3.1654  24.2787   N.2       1 RES1   0.0000
     6 C6      12.6192   3.4556  22.9667   C.2       1 RES1   0.0000
     7 N7      12.8388   4.7247  22.5721   N.2       1 RES1   0.0000
     8 C8      13.1169   4.8498  21.2463   C.2       1 RES1   0.0000
     9 C9      13.1623   3.6273  20.5622   C.2       1 RES1   0.0000
    10 C10     13.4034   3.2973  19.1329   C.2       1 RES1   0.0000
    11 O11     13.3536   2.1364  18.7828   O.2       1 RES1   0.0000
    12 N12     13.6536   4.2931  18.2776   N.am      1 RES1   0.0000
    13 C13     13.8739   4.0344  16.9108   C.2       1 RES1   0.0000
    14 C14     15.1494   3.7868  16.4064   C.2       1 RES1   0.0000
    15 C15     16.3473   3.7823  17.3225   C.3       1 RES1   0.0000
    16 C16     15.3203   3.5638  15.0439   C.2       1 RES1   0.0000
    17 C17     14.2309   3.5799  14.1774   C.2       1 RES1   0.0000
    18 C18     12.9576   3.8230  14.6817   C.2       1 RES1   0.0000
    19 C19     12.7911   4.0532  16.0449   C.2       1 RES1   0.0000
    20 Cl20    11.1508   4.3657  16.6938   Cl        1 RES1   0.0000
    21 S21     12.8134   2.2689  21.6536   S.3       1 RES1   0.0000
    22 C22     11.2518   5.2281  24.8156   C.2       1 RES1   0.0000
    23 C23     10.8008   6.1334  25.7985   C.2       1 RES1   0.0000
    24 N24     10.1212   7.3081  25.4179   N.pl3     1 RES1   0.0000
    25 C25      9.6477   7.5727  24.0629   C.3       1 RES1   0.0000
    26 C26      8.3402   8.3245  24.1100   C.3       1 RES1   0.0000
    27 N27      8.4812   9.5844  24.8979   N.3       1 RES1   1.0000
    28 C28      7.1802  10.2963  24.9261   C.3       1 RES1   0.0000
    29 C29      7.2421  11.6176  25.7264   C.3       1 RES1   0.0000
    30 O30      8.2827  12.5235  25.2612   O.3       1 RES1   0.0000
    31 C31      9.0274   9.2969  26.2570   C.3       1 RES1   0.0000
    32 C32     10.3298   8.5420  26.1638   C.3       1 RES1   0.0000
    33 N33     11.0163   5.8473  27.1022   N.2       1 RES1   0.0000
@<TRIPOS>BOND
     1     1     2    1
     2     2     3    2
     3     3     4    1
     4     4     5    1
     5     5     6    1
     6     6     7    2
     7     7     8    1
     8     8     9    2
     9     9    10    1
    10    10    11    2
    11    10    12   am
    12    12    13    1
    13    13    14    2
    14    14    15    1
    15    14    16    1
    16    16    17    2
    17    17    18    1
    18    18    19    2
    19    19    20    1
    20     9    21    1
    21     4    22    2
    22    22    23    1
    23    23    24    1
    24    24    25    1
    25    25    26    1
    26    26    27    1
    27    27    28    1
    28    28    29    1
    29    29    30    1
    30    27    31    1
    31    31    32    1
    32    23    33    2
    33    33     2    1
    34    21     6    1
    35    32    24    1
    36    19    13    1
@<TRIPOS>SUBSTRUCTURE
     1 RES1        1 GROUP             0 ****  ****    0  
@<TRIPOS>MOLECULE
ligand_32
    33    36     1     0     0
SMALL
USER_CHARGES
****
Generated from the CSD

@<TRIPOS>ATOM
     1 C1      11.4263   8.3917  27.9589   C.3       1 RES1   0.0000
     2 C2      12.0189   7.5207  26.8842   C.2       1 RES1   0.0000
     3 N3      11.8550   7.8962  25.5982   N.2       1 RES1   0.0000
     4 C4      12.3695   7.1663  24.5853   C.2       1 RES1   0.0000
     5 N5      12.2139   7.5671  23.2902   N.2       1 RES1   0.0000
     6 C6      12.2819   6.7480  22.1976   C.2       1 RES1   0.0000
     7 N7      12.0985   5.4192  22.3207   N.2       1 RES1   0.0000
     8 C8      12.1545   4.7431  21.1415   C.2       1 RES1   0.0000
     9 C9      12.3490   5.5699  20.0265   C.2       1 RES1   0.0000
    10 C10     12.4916   5.2669  18.5781   C.2       1 RES1   0.0000
    11 O11     12.6911   6.1807  17.8049   O.2       1 RES1   0.0000
    12 N12     12.4090   3.9948  18.1773   N.am      1 RES1   0.0000
    13 C13     12.5522   3.6540  16.8182   C.2       1 RES1   0.0000
    14 C14     13.7947   3.3518  16.2638   C.2       1 RES1   0.0000
    15 C15     15.0390   3.3748  17.1154   C.3       1 RES1   0.0000
    16 C16     13.8894   3.0480  14.9095   C.2       1 RES1   0.0000
    17 C17     12.7562   3.0371  14.1010   C.2       1 RES1   0.0000
    18 C18     11.5158   3.3348  14.6556   C.2       1 RES1   0.0000
    19 C19     11.4256   3.6458  16.0099   C.2       1 RES1   0.0000
    20 Cl20     9.8276   4.0286  16.7236   Cl        1 RES1   0.0000
    21 S21     12.4879   7.2745  20.5092   S.3       1 RES1   0.0000
    22 C22     13.0434   5.9744  24.8905   C.2       1 RES1   0.0000
    23 C23     13.1835   5.5817  26.2377   C.2       1 RES1   0.0000
    24 N24     13.8710   4.3939  26.5592   N.pl3     1 RES1   0.0000
    25 C25     14.2027   3.9879  27.9214   C.3       1 RES1   0.0000
    26 C26     14.1012   2.4881  28.0527   C.3       1 RES1   0.0000
    27 N27     14.9725   1.8079  27.0497   N.3       1 RES1   1.0000
    28 C28     14.8476   0.3380  27.2045   C.3       1 RES1   0.0000
    29 C29     15.7231  -0.4429  26.1975   C.3       1 RES1   0.0000
    30 O30     17.1287  -0.0662  26.2445   O.3       1 RES1   0.0000
    31 C31     14.6599   2.2860  25.6706   C.3       1 RES1   0.0000
    32 C32     14.7688   3.7879  25.5852   C.3       1 RES1   0.0000
    33 N33     12.6646   6.3678  27.2077   N.2       1 RES1   0.0000
@<TRIPOS>BOND
     1     1     2    1
     2     2     3    2
     3     3     4    1
     4     4     5    1
     5     5     6    1
     6     6     7    2
     7     7     8    1
     8     8     9    2
     9     9    10    1
    10    10    11    2
    11    10    12   am
    12    12    13    1
    13    13    14    2
    14    14    15    1
    15    14    16    1
    16    16    17    2
    17    17    18    1
    18    18    19    2
    19    19    20    1
    20     9    21    1
    21     4    22    2
    22    22    23    1
    23    23    24    1
    24    24    25    1
    25    25    26    1
    26    26    27    1
    27    27    28    1
    28    28    29    1
    29    29    30    1
    30    27    31    1
    31    31    32    1
    32    23    33    2
    33    33     2    1
    34    21     6    1
    35    32    24    1
    36    19    13    1
@<TRIPOS>SUBSTRUCTURE
     1 RES1        1 GROUP             0 ****  ****    0  
@<TRIPOS>MOLECULE
ligand_33
    33    36     1     0     0
SMALL
USER_CHARGES
****
Generated from the CSD

@<TRIPOS>ATOM
     1 C1      11.4263   8.3917  27.9589   C.3       1 RES1   0.0000
     2 C2      12.0189   7.5207  26.8842   C.2       1 RES1   0.0000
     3 N3      11.8550   7.8962  25.5982   N.2       1 RES1   0.0000
     4 C4      12.3695   7.1663  24.5853   C.2       1 RES1   0.0000
     5 N5      12.2139   7.5671  23.2902   N.2       1 RES1   0.0000
     6 C6      12.2821   6.7481  22.1976   C.2       1 RES1   0.0000
     7 N7      12.0987   5.4192  22.3206   N.2       1 RES1   0.0000
     8 C8      12.1548   4.7431  21.1414   C.2       1 RES1   0.0000
     9 C9      12.3495   5.5700  20.0265   C.2       1 RES1   0.0000
    10 C10     12.4923   5.2670  18.5781   C.2       1 RES1   0.0000
    11 O11     12.6920   6.1808  17.8049   O.2       1 RES1   0.0000
    12 N12     12.4098   3.9949  18.1772   N.am      1 RES1   0.0000
    13 C13     12.5532   3.6542  16.8182   C.2       1 RES1   0.0000
    14 C14     13.7958   3.3520  16.2639   C.2       1 RES1   0.0000
    15 C15     15.0399   3.3749  17.1157   C.3       1 RES1   0.0000
    16 C16     13.8907   3.0482  14.9096   C.2       1 RES1   0.0000
    17 C17     12.7576   3.0373  14.1010   C.2       1 RES1   0.0000
    18 C18     11.5171   3.3350  14.6554   C.2       1 RES1   0.0000
    19 C19     11.4268   3.6459  16.0097   C.2       1 RES1   0.0000
    20 Cl20     9.8286   4.0287  16.7231   Cl        1 RES1   0.0000
    21 S21     12.4883   7.2746  20.5093   S.3       1 RES1   0.0000
    22 C22     13.0434   5.9744  24.8905   C.2       1 RES1   0.0000
    23 C23     13.1835   5.5817  26.2377   C.2       1 RES1   0.0000
    24 N24     13.8710   4.3939  26.5592   N.pl3     1 RES1   0.0000
    25 C25     14.6533   3.6203  25.6001   C.3       1 RES1   0.0000
    26 C26     15.8639   3.0282  26.2788   C.3       1 RES1   0.0000
    27 N27     15.4611   2.2000  27.4534   N.3       1 RES1   1.0000
    28 C28     16.6724   1.6359  28.0974   C.3       1 RES1   0.0000
    29 C29     16.3395   0.7613  29.3280   C.3       1 RES1   0.0000
    30 O30     15.4002  -0.3116  29.0339   O.3       1 RES1   0.0000
    31 C31     14.6087   2.9920  28.3884   C.3       1 RES1   0.0000
    32 C32     13.4147   3.5683  27.6693   C.3       1 RES1   0.0000
    33 N33     12.6646   6.3678  27.2077   N.2       1 RES1   0.0000
@<TRIPOS>BOND
     1     1     2    1
     2     2     3    2
     3     3     4    1
     4     4     5    1
     5     5     6    1
     6     6     7    2
     7     7     8    1
     8     8     9    2
     9     9    10    1
    10    10    11    2
    11    10    12   am
    12    12    13    1
    13    13    14    2
    14    14    15    1
    15    14    16    1
    16    16    17    2
    17    17    18    1
    18    18    19    2
    19    19    20    1
    20     9    21    1
    21     4    22    2
    22    22    23    1
    23    23    24    1
    24    24    25    1
    25    25    26    1
    26    26    27    1
    27    27    28    1
    28    28    29    1
    29    29    30    1
    30    27    31    1
    31    31    32    1
    32    23    33    2
    33    33     2    1
    34    21     6    1
    35    32    24    1
    36    19    13    1
@<TRIPOS>SUBSTRUCTURE
     1 RES1        1 GROUP             0 ****  ****    0  
@<TRIPOS>MOLECULE
ligand_34
    33    36     1     0     0
SMALL
USER_CHARGES
****
Generated from the CSD

@<TRIPOS>ATOM
     1 C1      12.7664  -1.5949  23.7538   C.3       1 RES1   0.0000
     2 C2      12.5936  -0.4065  24.6608   C.2       1 RES1   0.0000
     3 N3      12.5702   0.8221  24.1026   N.2       1 RES1   0.0000
     4 C4      12.4083   1.9303  24.8571   C.2       1 RES1   0.0000
     5 N5      12.3665   3.1654  24.2787   N.2       1 RES1   0.0000
     6 C6      12.4776   3.4130  22.9387   C.2       1 RES1   0.0000
     7 N7      12.4237   4.6726  22.4643   N.2       1 RES1   0.0000
     8 C8      12.5908   4.7624  21.1172   C.2       1 RES1   0.0000
     9 C9      12.8292   3.5289  20.4955   C.2       1 RES1   0.0000
    10 C10     13.0415   3.1590  19.0714   C.2       1 RES1   0.0000
    11 O11     13.1952   1.9896  18.7861   O.2       1 RES1   0.0000
    12 N12     13.0420   4.1270  18.1500   N.am      1 RES1   0.0000
    13 C13     13.2240   3.8270  16.7860   C.2       1 RES1   0.0000
    14 C14     14.4900   3.7930  16.2040   C.2       1 RES1   0.0000
    15 C15     15.7200   4.0740  17.0300   C.3       1 RES1   0.0000
    16 C16     14.6170   3.5190  14.8460   C.2       1 RES1   0.0000
    17 C17     13.4940   3.2730  14.0610   C.2       1 RES1   0.0000
    18 C18     12.2310   3.3030  14.6430   C.2       1 RES1   0.0000
    19 C19     12.1070   3.5850  16.0010   C.2       1 RES1   0.0000
    20 Cl20    10.4800   3.6230  16.7500   Cl        1 RES1   0.0000
    21 S21     12.8164   2.2022  21.6778   S.3       1 RES1   0.0000
    22 C22     12.3111   1.7872  26.2492   C.2       1 RES1   0.0000
    23 C23     12.3639   0.4987  26.8199   C.2       1 RES1   0.0000
    24 N24     12.2529   0.3396  28.2160   N.3       1 RES1   0.0000
    25 C25     12.0931  -1.0792  28.5840   C.3       1 RES1   0.0000
    26 C26     11.9982  -1.2548  30.0786   C.3       1 RES1   0.0000
    27 N27     10.8167  -0.4864  30.5778   N.3       1 RES1   1.0000
    28 C28     10.5384  -0.7386  32.0128   C.3       1 RES1   0.0000
    29 C29      9.3121   0.0490  32.5284   C.3       1 RES1   0.0000
    30 O30      8.1057  -0.1905  31.7493   O.3       1 RES1   0.0000
    31 C31     11.0442   0.9564  30.2667   C.3       1 RES1   0.0000
    32 C32     11.1529   1.1378  28.7710   C.3       1 RES1   0.0000
    33 N33     12.5055  -0.5732  26.0081   N.2       1 RES1   0.0000
@<TRIPOS>BOND
     1     1     2    1
     2     2     3    2
     3     3     4    1
     4     4     5    1
     5     5     6    1
     6     6     7    2
     7     7     8    1
     8     8     9    2
     9     9    10    1
    10    10    11    2
    11    10    12   am
    12    12    13    1
    13    13    14    2
    14    14    15    1
    15    14    16    1
    16    16    17    2
    17    17    18    1
    18    18    19    2
    19    19    20    1
    20     9    21    1
    21     4    22    2
    22    22    23    1
    23    23    24    1
    24    24    25    1
    25    25    26    1
    26    26    27    1
    27    27    28    1
    28    28    29    1
    29    29    30    1
    30    27    31    1
    31    31    32    1
    32    23    33    2
    33    33     2    1
    34    21     6    1
    35    32    24    1
    36    19    13    1
@<TRIPOS>SUBSTRUCTURE
     1 RES1        1 GROUP             0 ****  ****    0  
@<TRIPOS>MOLECULE
ligand_35
    33    36     1     0     0
SMALL
USER_CHARGES
****
Generated from the CSD

@<TRIPOS>ATOM
     1 C1      12.7664  -1.5949  23.7538   C.3       1 RES1   0.0000
     2 C2      12.5936  -0.4065  24.6608   C.2       1 RES1   0.0000
     3 N3      12.5702   0.8221  24.1026   N.2       1 RES1   0.0000
     4 C4      12.4083   1.9303  24.8571   C.2       1 RES1   0.0000
     5 N5      12.3665   3.1654  24.2787   N.2       1 RES1   0.0000
     6 C6      12.4776   3.4130  22.9387   C.2       1 RES1   0.0000
     7 N7      12.4237   4.6726  22.4643   N.2       1 RES1   0.0000
     8 C8      12.5908   4.7624  21.1172   C.2       1 RES1   0.0000
     9 C9      12.8292   3.5289  20.4955   C.2       1 RES1   0.0000
    10 C10     13.0415   3.1590  19.0714   C.2       1 RES1   0.0000
    11 O11     13.1952   1.9896  18.7861   O.2       1 RES1   0.0000
    12 N12     13.0420   4.1270  18.1500   N.am      1 RES1   0.0000
    13 C13     13.2240   3.8270  16.7860   C.2       1 RES1   0.0000
    14 C14     14.4900   3.7930  16.2040   C.2       1 RES1   0.0000
    15 C15     15.7200   4.0740  17.0300   C.3       1 RES1   0.0000
    16 C16     14.6170   3.5190  14.8460   C.2       1 RES1   0.0000
    17 C17     13.4940   3.2730  14.0610   C.2       1 RES1   0.0000
    18 C18     12.2310   3.3030  14.6430   C.2       1 RES1   0.0000
    19 C19     12.1070   3.5850  16.0010   C.2       1 RES1   0.0000
    20 Cl20    10.4800   3.6230  16.7500   Cl        1 RES1   0.0000
    21 S21     12.8164   2.2022  21.6778   S.3       1 RES1   0.0000
    22 C22     12.3111   1.7872  26.2492   C.2       1 RES1   0.0000
    23 C23     12.3639   0.4987  26.8199   C.2       1 RES1   0.0000
    24 N24     12.2529   0.3396  28.2160   N.3       1 RES1   0.0000
    25 C25     11.8919   1.6084  28.8743   C.3       1 RES1   0.0000
    26 C26     11.7487   1.4360  30.3654   C.3       1 RES1   0.0000
    27 N27     13.0508   0.9534  30.9196   N.3       1 RES1   1.0000
    28 C28     13.0611   0.9201  32.4025   C.3       1 RES1   0.0000
    29 C29     14.4096   0.4289  32.9773   C.3       1 RES1   0.0000
    30 O30     15.5517   1.1953  32.4997   O.3       1 RES1   0.0000
    31 C31     13.3496  -0.3716  30.2988   C.3       1 RES1   0.0000
    32 C32     13.4819  -0.2083  28.8029   C.3       1 RES1   0.0000
    33 N33     12.5055  -0.5732  26.0081   N.2       1 RES1   0.0000
@<TRIPOS>BOND
     1     1     2    1
     2     2     3    2
     3     3     4    1
     4     4     5    1
     5     5     6    1
     6     6     7    2
     7     7     8    1
     8     8     9    2
     9     9    10    1
    10    10    11    2
    11    10    12   am
    12    12    13    1
    13    13    14    2
    14    14    15    1
    15    14    16    1
    16    16    17    2
    17    17    18    1
    18    18    19    2
    19    19    20    1
    20     9    21    1
    21     4    22    2
    22    22    23    1
    23    23    24    1
    24    24    25    1
    25    25    26    1
    26    26    27    1
    27    27    28    1
    28    28    29    1
    29    29    30    1
    30    27    31    1
    31    31    32    1
    32    23    33    2
    33    33     2    1
    34    21     6    1
    35    32    24    1
    36    19    13    1
@<TRIPOS>SUBSTRUCTURE
     1 RES1        1 GROUP             0 ****  ****    0  
@<TRIPOS>MOLECULE
ligand_36
    33    36     1     0     0
SMALL
USER_CHARGES
****
Generated from the CSD

@<TRIPOS>ATOM
     1 C1      12.2208  11.6569  20.7663   C.3       1 RES1   0.0000
     2 C2      12.0953  10.9601  22.0943   C.2       1 RES1   0.0000
     3 N3      12.1901   9.6139  22.1182   N.2       1 RES1   0.0000
     4 C4      12.0967   8.9265  23.2767   C.2       1 RES1   0.0000
     5 N5      12.2139   7.5671  23.2902   N.2       1 RES1   0.0000
     6 C6      12.4282   6.7830  22.1909   C.2       1 RES1   0.0000
     7 N7      12.5297   5.4450  22.3086   N.2       1 RES1   0.0000
     8 C8      12.7005   4.7983  21.1239   C.2       1 RES1   0.0000
     9 C9      12.6936   5.6502  20.0109   C.2       1 RES1   0.0000
    10 C10     12.8652   5.3873  18.5578   C.2       1 RES1   0.0000
    11 O11     12.8523   6.3244  17.7869   O.2       1 RES1   0.0000
    12 N12     13.0420   4.1270  18.1500   N.am      1 RES1   0.0000
    13 C13     13.2240   3.8270  16.7860   C.2       1 RES1   0.0000
    14 C14     14.4900   3.7930  16.2040   C.2       1 RES1   0.0000
    15 C15     15.7200   4.0740  17.0300   C.3       1 RES1   0.0000
    16 C16     14.6170   3.5190  14.8460   C.2       1 RES1   0.0000
    17 C17     13.4940   3.2730  14.0610   C.2       1 RES1   0.0000
    18 C18     12.2310   3.3030  14.6430   C.2       1 RES1   0.0000
    19 C19     12.1070   3.5850  16.0010   C.2       1 RES1   0.0000
    20 Cl20    10.4800   3.6230  16.7500   Cl        1 RES1   0.0000
    21 S21     12.4830   7.3450  20.5022   S.3       1 RES1   0.0000
    22 C22     11.8501   9.6363  24.4613   C.2       1 RES1   0.0000
    23 C23     11.7271  11.0405  24.4164   C.2       1 RES1   0.0000
    24 N24     11.4938  11.7672  25.6013   N.3       1 RES1   0.0000
    25 C25     11.6342  13.2178  25.3783   C.3       1 RES1   0.0000
    26 C26     11.3615  13.9994  26.6386   C.3       1 RES1   0.0000
    27 N27     12.3363  13.5717  27.6886   N.3       1 RES1   1.0000
    28 C28     12.2600  14.4084  28.9111   C.3       1 RES1   0.0000
    29 C29     13.2730  13.9725  29.9946   C.3       1 RES1   0.0000
    30 O30     14.6473  13.9353  29.5153   O.3       1 RES1   0.0000
    31 C31     12.1148  12.1190  27.9544   C.3       1 RES1   0.0000
    32 C32     12.3742  11.3309  26.6921   C.3       1 RES1   0.0000
    33 N33     11.8525  11.6723  23.2277   N.2       1 RES1   0.0000
@<TRIPOS>BOND
     1     1     2    1
     2     2     3    2
     3     3     4    1
     4     4     5    1
     5     5     6    1
     6     6     7    2
     7     7     8    1
     8     8     9    2
     9     9    10    1
    10    10    11    2
    11    10    12   am
    12    12    13    1
    13    13    14    2
    14    14    15    1
    15    14    16    1
    16    16    17    2
    17    17    18    1
    18    18    19    2
    19    19    20    1
    20     9    21    1
    21     4    22    2
    22    22    23    1
    23    23    24    1
    24    24    25    1
    25    25    26    1
    26    26    27    1
    27    27    28    1
    28    28    29    1
    29    29    30    1
    30    27    31    1
    31    31    32    1
    32    23    33    2
    33    33     2    1
    34    21     6    1
    35    32    24    1
    36    19    13    1
@<TRIPOS>SUBSTRUCTURE
     1 RES1        1 GROUP             0 ****  ****    0  
@<TRIPOS>MOLECULE
ligand_37
    33    36     1     0     0
SMALL
USER_CHARGES
****
Generated from the CSD

@<TRIPOS>ATOM
     1 C1      12.2208  11.6569  20.7663   C.3       1 RES1   0.0000
     2 C2      12.0953  10.9601  22.0943   C.2       1 RES1   0.0000
     3 N3      12.1901   9.6139  22.1182   N.2       1 RES1   0.0000
     4 C4      12.0967   8.9265  23.2767   C.2       1 RES1   0.0000
     5 N5      12.2139   7.5671  23.2902   N.2       1 RES1   0.0000
     6 C6      12.4282   6.7830  22.1909   C.2       1 RES1   0.0000
     7 N7      12.5297   5.4450  22.3086   N.2       1 RES1   0.0000
     8 C8      12.7005   4.7983  21.1239   C.2       1 RES1   0.0000
     9 C9      12.6936   5.6502  20.0109   C.2       1 RES1   0.0000
    10 C10     12.8652   5.3873  18.5578   C.2       1 RES1   0.0000
    11 O11     12.8523   6.3244  17.7869   O.2       1 RES1   0.0000
    12 N12     13.0420   4.1270  18.1500   N.am      1 RES1   0.0000
    13 C13     13.2240   3.8270  16.7860   C.2       1 RES1   0.0000
    14 C14     14.4900   3.7930  16.2040   C.2       1 RES1   0.0000
    15 C15     15.7200   4.0740  17.0300   C.3       1 RES1   0.0000
    16 C16     14.6170   3.5190  14.8460   C.2       1 RES1   0.0000
    17 C17     13.4940   3.2730  14.0610   C.2       1 RES1   0.0000
    18 C18     12.2310   3.3030  14.6430   C.2       1 RES1   0.0000
    19 C19     12.1070   3.5850  16.0010   C.2       1 RES1   0.0000
    20 Cl20    10.4800   3.6230  16.7500   Cl        1 RES1   0.0000
    21 S21     12.4830   7.3450  20.5022   S.3       1 RES1   0.0000
    22 C22     11.8501   9.6363  24.4613   C.2       1 RES1   0.0000
    23 C23     11.7271  11.0405  24.4164   C.2       1 RES1   0.0000
    24 N24     11.4938  11.7672  25.6013   N.3       1 RES1   0.0000
    25 C25     11.6081  10.9049  26.7917   C.3       1 RES1   0.0000
    26 C26     11.3828  11.6848  28.0625   C.3       1 RES1   0.0000
    27 N27     10.0120  12.2806  28.0228   N.3       1 RES1   1.0000
    28 C28      9.6327  12.9221  29.3053   C.3       1 RES1   0.0000
    29 C29      8.2124  13.5317  29.2686   C.3       1 RES1   0.0000
    30 O30      7.1858  12.5749  28.8805   O.3       1 RES1   0.0000
    31 C31      9.9515  13.2128  26.8576   C.3       1 RES1   0.0000
    32 C32     10.1890  12.4398  25.5816   C.3       1 RES1   0.0000
    33 N33     11.8525  11.6723  23.2277   N.2       1 RES1   0.0000
@<TRIPOS>BOND
     1     1     2    1
     2     2     3    2
     3     3     4    1
     4     4     5    1
     5     5     6    1
     6     6     7    2
     7     7     8    1
     8     8     9    2
     9     9    10    1
    10    10    11    2
    11    10    12   am
    12    12    13    1
    13    13    14    2
    14    14    15    1
    15    14    16    1
    16    16    17    2
    17    17    18    1
    18    18    19    2
    19    19    20    1
    20     9    21    1
    21     4    22    2
    22    22    23    1
    23    23    24    1
    24    24    25    1
    25    25    26    1
    26    26    27    1
    27    27    28    1
    28    28    29    1
    29    29    30    1
    30    27    31    1
    31    31    32    1
    32    23    33    2
    33    33     2    1
    34    21     6    1
    35    32    24    1
    36    19    13    1
@<TRIPOS>SUBSTRUCTURE
     1 RES1        1 GROUP             0 ****  ****    0  
@<TRIPOS>MOLECULE
ligand_38
    33    36     1     0     0
SMALL
USER_CHARGES
****
Generated from the CSD

@<TRIPOS>ATOM
     1 C1      12.7664  -1.5949  23.7538   C.3       1 RES1   0.0000
     2 C2      12.5936  -0.4065  24.6608   C.2       1 RES1   0.0000
     3 N3      12.5702   0.8221  24.1026   N.2       1 RES1   0.0000
     4 C4      12.4083   1.9303  24.8571   C.2       1 RES1   0.0000
     5 N5      12.3665   3.1654  24.2787   N.2       1 RES1   0.0000
     6 C6      12.4776   3.4130  22.9387   C.2       1 RES1   0.0000
     7 N7      12.4237   4.6726  22.4643   N.2       1 RES1   0.0000
     8 C8      12.5908   4.7624  21.1172   C.2       1 RES1   0.0000
     9 C9      12.8292   3.5289  20.4955   C.2       1 RES1   0.0000
    10 C10     13.0415   3.1590  19.0714   C.2       1 RES1   0.0000
    11 O11     13.1952   1.9896  18.7861   O.2       1 RES1   0.0000
    12 N12     13.0420   4.1270  18.1500   N.am      1 RES1   0.0000
    13 C13     13.2240   3.8270  16.7860   C.2       1 RES1   0.0000
    14 C14     14.4900   3.7930  16.2040   C.2       1 RES1   0.0000
    15 C15     15.7200   4.0740  17.0300   C.3       1 RES1   0.0000
    16 C16     14.6170   3.5190  14.8460   C.2       1 RES1   0.0000
    17 C17     13.4940   3.2730  14.0610   C.2       1 RES1   0.0000
    18 C18     12.2310   3.3030  14.6430   C.2       1 RES1   0.0000
    19 C19     12.1070   3.5850  16.0010   C.2       1 RES1   0.0000
    20 Cl20    10.4800   3.6230  16.7500   Cl        1 RES1   0.0000
    21 S21     12.8164   2.2022  21.6778   S.3       1 RES1   0.0000
    22 C22     12.3111   1.7872  26.2492   C.2       1 RES1   0.0000
    23 C23     12.3639   0.4987  26.8199   C.2       1 RES1   0.0000
    24 N24     12.2529   0.3396  28.2160   N.pl3     1 RES1   0.0000
    25 C25     12.1403  -0.9543  28.8821   C.3       1 RES1   0.0000
    26 C26     12.8739  -0.9224  30.2003   C.3       1 RES1   0.0000
    27 N27     12.3662   0.1849  31.0629   N.3       1 RES1   1.0000
    28 C28     13.1085   0.1893  32.3471   C.3       1 RES1   0.0000
    29 C29     12.8150  -1.0607  33.2083   C.3       1 RES1   0.0000
    30 O30     11.3963  -1.2602  33.4677   O.3       1 RES1   0.0000
    31 C31     12.4306   1.4884  30.3383   C.3       1 RES1   0.0000
    32 C32     11.6899   1.4110  29.0267   C.3       1 RES1   0.0000
    33 N33     12.5055  -0.5732  26.0081   N.2       1 RES1   0.0000
@<TRIPOS>BOND
     1     1     2    1
     2     2     3    2
     3     3     4    1
     4     4     5    1
     5     5     6    1
     6     6     7    2
     7     7     8    1
     8     8     9    2
     9     9    10    1
    10    10    11    2
    11    10    12   am
    12    12    13    1
    13    13    14    2
    14    14    15    1
    15    14    16    1
    16    16    17    2
    17    17    18    1
    18    18    19    2
    19    19    20    1
    20     9    21    1
    21     4    22    2
    22    22    23    1
    23    23    24    1
    24    24    25    1
    25    25    26    1
    26    26    27    1
    27    27    28    1
    28    28    29    1
    29    29    30    1
    30    27    31    1
    31    31    32    1
    32    23    33    2
    33    33     2    1
    34    21     6    1
    35    32    24    1
    36    19    13    1
@<TRIPOS>SUBSTRUCTURE
     1 RES1        1 GROUP             0 ****  ****    0  
@<TRIPOS>MOLECULE
ligand_39
    33    36     1     0     0
SMALL
USER_CHARGES
****
Generated from the CSD

@<TRIPOS>ATOM
     1 C1      12.7664  -1.5949  23.7538   C.3       1 RES1   0.0000
     2 C2      12.5936  -0.4065  24.6608   C.2       1 RES1   0.0000
     3 N3      12.5702   0.8221  24.1026   N.2       1 RES1   0.0000
     4 C4      12.4083   1.9303  24.8571   C.2       1 RES1   0.0000
     5 N5      12.3665   3.1654  24.2787   N.2       1 RES1   0.0000
     6 C6      12.4776   3.4130  22.9387   C.2       1 RES1   0.0000
     7 N7      12.4237   4.6726  22.4643   N.2       1 RES1   0.0000
     8 C8      12.5908   4.7624  21.1172   C.2       1 RES1   0.0000
     9 C9      12.8292   3.5289  20.4955   C.2       1 RES1   0.0000
    10 C10     13.0415   3.1590  19.0714   C.2       1 RES1   0.0000
    11 O11     13.1952   1.9896  18.7861   O.2       1 RES1   0.0000
    12 N12     13.0420   4.1270  18.1500   N.am      1 RES1   0.0000
    13 C13     13.2240   3.8270  16.7860   C.2       1 RES1   0.0000
    14 C14     14.4900   3.7930  16.2040   C.2       1 RES1   0.0000
    15 C15     15.7200   4.0740  17.0300   C.3       1 RES1   0.0000
    16 C16     14.6170   3.5190  14.8460   C.2       1 RES1   0.0000
    17 C17     13.4940   3.2730  14.0610   C.2       1 RES1   0.0000
    18 C18     12.2310   3.3030  14.6430   C.2       1 RES1   0.0000
    19 C19     12.1070   3.5850  16.0010   C.2       1 RES1   0.0000
    20 Cl20    10.4800   3.6230  16.7500   Cl        1 RES1   0.0000
    21 S21     12.8164   2.2022  21.6778   S.3       1 RES1   0.0000
    22 C22     12.3111   1.7872  26.2492   C.2       1 RES1   0.0000
    23 C23     12.3639   0.4987  26.8199   C.2       1 RES1   0.0000
    24 N24     12.2529   0.3396  28.2160   N.pl3     1 RES1   0.0000
    25 C25     11.8677   1.4105  29.1299   C.3       1 RES1   0.0000
    26 C26     11.0323   0.8532  30.2562   C.3       1 RES1   0.0000
    27 N27     11.7608  -0.2389  30.9664   N.3       1 RES1   1.0000
    28 C28     10.9125  -0.7648  32.0637   C.3       1 RES1   0.0000
    29 C29     10.6898   0.2690  33.1914   C.3       1 RES1   0.0000
    30 O30     11.9305   0.7934  33.7441   O.3       1 RES1   0.0000
    31 C31     12.2012  -1.2909  30.0033   C.3       1 RES1   0.0000
    32 C32     13.0280  -0.6910  28.8936   C.3       1 RES1   0.0000
    33 N33     12.5055  -0.5732  26.0081   N.2       1 RES1   0.0000
@<TRIPOS>BOND
     1     1     2    1
     2     2     3    2
     3     3     4    1
     4     4     5    1
     5     5     6    1
     6     6     7    2
     7     7     8    1
     8     8     9    2
     9     9    10    1
    10    10    11    2
    11    10    12   am
    12    12    13    1
    13    13    14    2
    14    14    15    1
    15    14    16    1
    16    16    17    2
    17    17    18    1
    18    18    19    2
    19    19    20    1
    20     9    21    1
    21     4    22    2
    22    22    23    1
    23    23    24    1
    24    24    25    1
    25    25    26    1
    26    26    27    1
    27    27    28    1
    28    28    29    1
    29    29    30    1
    30    27    31    1
    31    31    32    1
    32    23    33    2
    33    33     2    1
    34    21     6    1
    35    32    24    1
    36    19    13    1
@<TRIPOS>SUBSTRUCTURE
     1 RES1        1 GROUP             0 ****  ****    0  
@<TRIPOS>MOLECULE
ligand_40
    33    36     1     0     0
SMALL
USER_CHARGES
****
Generated from the CSD

@<TRIPOS>ATOM
     1 C1      12.2208  11.6569  20.7663   C.3       1 RES1   0.0000
     2 C2      12.0953  10.9601  22.0943   C.2       1 RES1   0.0000
     3 N3      12.1901   9.6139  22.1182   N.2       1 RES1   0.0000
     4 C4      12.0967   8.9265  23.2767   C.2       1 RES1   0.0000
     5 N5      12.2139   7.5671  23.2902   N.2       1 RES1   0.0000
     6 C6      12.4282   6.7830  22.1909   C.2       1 RES1   0.0000
     7 N7      12.5297   5.4450  22.3086   N.2       1 RES1   0.0000
     8 C8      12.7005   4.7983  21.1239   C.2       1 RES1   0.0000
     9 C9      12.6936   5.6502  20.0109   C.2       1 RES1   0.0000
    10 C10     12.8652   5.3873  18.5578   C.2       1 RES1   0.0000
    11 O11     12.8523   6.3244  17.7869   O.2       1 RES1   0.0000
    12 N12     13.0420   4.1270  18.1500   N.am      1 RES1   0.0000
    13 C13     13.2240   3.8270  16.7860   C.2       1 RES1   0.0000
    14 C14     14.4900   3.7930  16.2040   C.2       1 RES1   0.0000
    15 C15     15.7200   4.0740  17.0300   C.3       1 RES1   0.0000
    16 C16     14.6170   3.5190  14.8460   C.2       1 RES1   0.0000
    17 C17     13.4940   3.2730  14.0610   C.2       1 RES1   0.0000
    18 C18     12.2310   3.3030  14.6430   C.2       1 RES1   0.0000
    19 C19     12.1070   3.5850  16.0010   C.2       1 RES1   0.0000
    20 Cl20    10.4800   3.6230  16.7500   Cl        1 RES1   0.0000
    21 S21     12.4830   7.3450  20.5022   S.3       1 RES1   0.0000
    22 C22     11.8501   9.6363  24.4613   C.2       1 RES1   0.0000
    23 C23     11.7271  11.0405  24.4164   C.2       1 RES1   0.0000
    24 N24     11.4938  11.7672  25.6013   N.pl3     1 RES1   0.0000
    25 C25     11.5071  13.2247  25.6791   C.3       1 RES1   0.0000
    26 C26     10.4662  13.6991  26.6632   C.3       1 RES1   0.0000
    27 N27     10.6802  13.0761  28.0026   N.3       1 RES1   1.0000
    28 C28      9.6410  13.5612  28.9434   C.3       1 RES1   0.0000
    29 C29      9.7779  15.0692  29.2554   C.3       1 RES1   0.0000
    30 O30     11.0953  15.4357  29.7554   O.3       1 RES1   0.0000
    31 C31     10.7275  11.5885  27.8896   C.3       1 RES1   0.0000
    32 C32     11.7760  11.1585  26.8943   C.3       1 RES1   0.0000
    33 N33     11.8525  11.6723  23.2277   N.2       1 RES1   0.0000
@<TRIPOS>BOND
     1     1     2    1
     2     2     3    2
     3     3     4    1
     4     4     5    1
     5     5     6    1
     6     6     7    2
     7     7     8    1
     8     8     9    2
     9     9    10    1
    10    10    11    2
    11    10    12   am
    12    12    13    1
    13    13    14    2
    14    14    15    1
    15    14    16    1
    16    16    17    2
    17    17    18    1
    18    18    19    2
    19    19    20    1
    20     9    21    1
    21     4    22    2
    22    22    23    1
    23    23    24    1
    24    24    25    1
    25    25    26    1
    26    26    27    1
    27    27    28    1
    28    28    29    1
    29    29    30    1
    30    27    31    1
    31    31    32    1
    32    23    33    2
    33    33     2    1
    34    21     6    1
    35    32    24    1
    36    19    13    1
@<TRIPOS>SUBSTRUCTURE
     1 RES1        1 GROUP             0 ****  ****    0  
@<TRIPOS>MOLECULE
ligand_41
    33    36     1     0     0
SMALL
USER_CHARGES
****
Generated from the CSD

@<TRIPOS>ATOM
     1 C1      12.2208  11.6569  20.7663   C.3       1 RES1   0.0000
     2 C2      12.0953  10.9601  22.0943   C.2       1 RES1   0.0000
     3 N3      12.1901   9.6139  22.1182   N.2       1 RES1   0.0000
     4 C4      12.0967   8.9265  23.2767   C.2       1 RES1   0.0000
     5 N5      12.2139   7.5671  23.2902   N.2       1 RES1   0.0000
     6 C6      12.4282   6.7830  22.1909   C.2       1 RES1   0.0000
     7 N7      12.5297   5.4450  22.3086   N.2       1 RES1   0.0000
     8 C8      12.7005   4.7983  21.1239   C.2       1 RES1   0.0000
     9 C9      12.6936   5.6502  20.0109   C.2       1 RES1   0.0000
    10 C10     12.8652   5.3873  18.5578   C.2       1 RES1   0.0000
    11 O11     12.8523   6.3244  17.7869   O.2       1 RES1   0.0000
    12 N12     13.0420   4.1270  18.1500   N.am      1 RES1   0.0000
    13 C13     13.2240   3.8270  16.7860   C.2       1 RES1   0.0000
    14 C14     14.4900   3.7930  16.2040   C.2       1 RES1   0.0000
    15 C15     15.7200   4.0740  17.0300   C.3       1 RES1   0.0000
    16 C16     14.6170   3.5190  14.8460   C.2       1 RES1   0.0000
    17 C17     13.4940   3.2730  14.0610   C.2       1 RES1   0.0000
    18 C18     12.2310   3.3030  14.6430   C.2       1 RES1   0.0000
    19 C19     12.1070   3.5850  16.0010   C.2       1 RES1   0.0000
    20 Cl20    10.4800   3.6230  16.7500   Cl        1 RES1   0.0000
    21 S21     12.4830   7.3450  20.5022   S.3       1 RES1   0.0000
    22 C22     11.8501   9.6363  24.4613   C.2       1 RES1   0.0000
    23 C23     11.7271  11.0405  24.4164   C.2       1 RES1   0.0000
    24 N24     11.4938  11.7672  25.6013   N.pl3     1 RES1   0.0000
    25 C25     11.5784  11.1917  26.9400   C.3       1 RES1   0.0000
    26 C26     12.1347  12.2091  27.9056   C.3       1 RES1   0.0000
    27 N27     11.3128  13.4550  27.8948   N.3       1 RES1   1.0000
    28 C28     11.8871  14.4327  28.8512   C.3       1 RES1   0.0000
    29 C29     11.7632  13.9702  30.3212   C.3       1 RES1   0.0000
    30 O30     10.3967  13.6531  30.7111   O.3       1 RES1   0.0000
    31 C31     11.1861  13.9899  26.5070   C.3       1 RES1   0.0000
    32 C32     10.6316  12.9412  25.5756   C.3       1 RES1   0.0000
    33 N33     11.8525  11.6723  23.2277   N.2       1 RES1   0.0000
@<TRIPOS>BOND
     1     1     2    1
     2     2     3    2
     3     3     4    1
     4     4     5    1
     5     5     6    1
     6     6     7    2
     7     7     8    1
     8     8     9    2
     9     9    10    1
    10    10    11    2
    11    10    12   am
    12    12    13    1
    13    13    14    2
    14    14    15    1
    15    14    16    1
    16    16    17    2
    17    17    18    1
    18    18    19    2
    19    19    20    1
    20     9    21    1
    21     4    22    2
    22    22    23    1
    23    23    24    1
    24    24    25    1
    25    25    26    1
    26    26    27    1
    27    27    28    1
    28    28    29    1
    29    29    30    1
    30    27    31    1
    31    31    32    1
    32    23    33    2
    33    33     2    1
    34    21     6    1
    35    32    24    1
    36    19    13    1
@<TRIPOS>SUBSTRUCTURE
     1 RES1        1 GROUP             0 ****  ****    0  
@<TRIPOS>MOLECULE
ligand_42
    33    36     1     0     0
SMALL
USER_CHARGES
****
Generated from the CSD

@<TRIPOS>ATOM
     1 C1      12.7664  -1.5949  23.7538   C.3       1 RES1   0.0000
     2 C2      12.5936  -0.4065  24.6608   C.2       1 RES1   0.0000
     3 N3      12.5702   0.8221  24.1026   N.2       1 RES1   0.0000
     4 C4      12.4083   1.9303  24.8571   C.2       1 RES1   0.0000
     5 N5      12.3665   3.1654  24.2787   N.2       1 RES1   0.0000
     6 C6      12.4776   3.4130  22.9387   C.2       1 RES1   0.0000
     7 N7      12.4237   4.6726  22.4643   N.2       1 RES1   0.0000
     8 C8      12.5908   4.7624  21.1172   C.2       1 RES1   0.0000
     9 C9      12.8292   3.5289  20.4955   C.2       1 RES1   0.0000
    10 C10     13.0415   3.1590  19.0714   C.2       1 RES1   0.0000
    11 O11     13.1952   1.9896  18.7861   O.2       1 RES1   0.0000
    12 N12     13.0420   4.1270  18.1500   N.am      1 RES1   0.0000
    13 C13     13.2240   3.8270  16.7860   C.2       1 RES1   0.0000
    14 C14     14.4900   3.7930  16.2040   C.2       1 RES1   0.0000
    15 C15     15.7200   4.0740  17.0300   C.3       1 RES1   0.0000
    16 C16     14.6170   3.5190  14.8460   C.2       1 RES1   0.0000
    17 C17     13.4940   3.2730  14.0610   C.2       1 RES1   0.0000
    18 C18     12.2310   3.3030  14.6430   C.2       1 RES1   0.0000
    19 C19     12.1070   3.5850  16.0010   C.2       1 RES1   0.0000
    20 Cl20    10.4800   3.6230  16.7500   Cl        1 RES1   0.0000
    21 S21     12.8164   2.2022  21.6778   S.3       1 RES1   0.0000
    22 C22     12.3111   1.7872  26.2492   C.2       1 RES1   0.0000
    23 C23     12.3639   0.4987  26.8199   C.2       1 RES1   0.0000
    24 N24     12.2529   0.3396  28.2160   N.pl3     1 RES1   0.0000
    25 C25     12.1402  -0.9543  28.8821   C.3       1 RES1   0.0000
    26 C26     12.8739  -0.9224  30.2003   C.3       1 RES1   0.0000
    27 N27     12.3662   0.1849  31.0629   N.3       1 RES1   1.0000
    28 C28     13.1085   0.1892  32.3471   C.3       1 RES1   0.0000
    29 C29     14.5367   0.7644  32.2070   C.3       1 RES1   0.0000
    30 O30     15.3678   0.0187  31.2727   O.3       1 RES1   0.0000
    31 C31     12.4307   1.4883  30.3383   C.3       1 RES1   0.0000
    32 C32     11.6900   1.4110  29.0267   C.3       1 RES1   0.0000
    33 N33     12.5055  -0.5732  26.0081   N.2       1 RES1   0.0000
@<TRIPOS>BOND
     1     1     2    1
     2     2     3    2
     3     3     4    1
     4     4     5    1
     5     5     6    1
     6     6     7    2
     7     7     8    1
     8     8     9    2
     9     9    10    1
    10    10    11    2
    11    10    12   am
    12    12    13    1
    13    13    14    2
    14    14    15    1
    15    14    16    1
    16    16    17    2
    17    17    18    1
    18    18    19    2
    19    19    20    1
    20     9    21    1
    21     4    22    2
    22    22    23    1
    23    23    24    1
    24    24    25    1
    25    25    26    1
    26    26    27    1
    27    27    28    1
    28    28    29    1
    29    29    30    1
    30    27    31    1
    31    31    32    1
    32    23    33    2
    33    33     2    1
    34    21     6    1
    35    32    24    1
    36    19    13    1
@<TRIPOS>SUBSTRUCTURE
     1 RES1        1 GROUP             0 ****  ****    0  
@<TRIPOS>MOLECULE
ligand_43
    33    36     1     0     0
SMALL
USER_CHARGES
****
Generated from the CSD

@<TRIPOS>ATOM
     1 C1      12.7664  -1.5949  23.7538   C.3       1 RES1   0.0000
     2 C2      12.5936  -0.4065  24.6608   C.2       1 RES1   0.0000
     3 N3      12.5702   0.8221  24.1026   N.2       1 RES1   0.0000
     4 C4      12.4083   1.9303  24.8571   C.2       1 RES1   0.0000
     5 N5      12.3665   3.1654  24.2787   N.2       1 RES1   0.0000
     6 C6      12.4776   3.4130  22.9387   C.2       1 RES1   0.0000
     7 N7      12.4237   4.6726  22.4643   N.2       1 RES1   0.0000
     8 C8      12.5908   4.7624  21.1172   C.2       1 RES1   0.0000
     9 C9      12.8292   3.5289  20.4955   C.2       1 RES1   0.0000
    10 C10     13.0415   3.1590  19.0714   C.2       1 RES1   0.0000
    11 O11     13.1952   1.9896  18.7861   O.2       1 RES1   0.0000
    12 N12     13.0420   4.1270  18.1500   N.am      1 RES1   0.0000
    13 C13     13.2240   3.8270  16.7860   C.2       1 RES1   0.0000
    14 C14     14.4900   3.7930  16.2040   C.2       1 RES1   0.0000
    15 C15     15.7200   4.0740  17.0300   C.3       1 RES1   0.0000
    16 C16     14.6170   3.5190  14.8460   C.2       1 RES1   0.0000
    17 C17     13.4940   3.2730  14.0610   C.2       1 RES1   0.0000
    18 C18     12.2310   3.3030  14.6430   C.2       1 RES1   0.0000
    19 C19     12.1070   3.5850  16.0010   C.2       1 RES1   0.0000
    20 Cl20    10.4800   3.6230  16.7500   Cl        1 RES1   0.0000
    21 S21     12.8164   2.2022  21.6778   S.3       1 RES1   0.0000
    22 C22     12.3111   1.7872  26.2492   C.2       1 RES1   0.0000
    23 C23     12.3639   0.4987  26.8199   C.2       1 RES1   0.0000
    24 N24     12.2529   0.3396  28.2160   N.pl3     1 RES1   0.0000
    25 C25     11.8680   1.4105  29.1299   C.3       1 RES1   0.0000
    26 C26     11.0324   0.8534  30.2562   C.3       1 RES1   0.0000
    27 N27     11.7608  -0.2388  30.9664   N.3       1 RES1   1.0000
    28 C28     10.9124  -0.7646  32.0637   C.3       1 RES1   0.0000
    29 C29      9.7689  -1.6695  31.5503   C.3       1 RES1   0.0000
    30 O30      8.8600  -0.9872  30.6403   O.3       1 RES1   0.0000
    31 C31     12.2009  -1.2909  30.0033   C.3       1 RES1   0.0000
    32 C32     13.0278  -0.6912  28.8936   C.3       1 RES1   0.0000
    33 N33     12.5055  -0.5732  26.0081   N.2       1 RES1   0.0000
@<TRIPOS>BOND
     1     1     2    1
     2     2     3    2
     3     3     4    1
     4     4     5    1
     5     5     6    1
     6     6     7    2
     7     7     8    1
     8     8     9    2
     9     9    10    1
    10    10    11    2
    11    10    12   am
    12    12    13    1
    13    13    14    2
    14    14    15    1
    15    14    16    1
    16    16    17    2
    17    17    18    1
    18    18    19    2
    19    19    20    1
    20     9    21    1
    21     4    22    2
    22    22    23    1
    23    23    24    1
    24    24    25    1
    25    25    26    1
    26    26    27    1
    27    27    28    1
    28    28    29    1
    29    29    30    1
    30    27    31    1
    31    31    32    1
    32    23    33    2
    33    33     2    1
    34    21     6    1
    35    32    24    1
    36    19    13    1
@<TRIPOS>SUBSTRUCTURE
     1 RES1        1 GROUP             0 ****  ****    0  
@<TRIPOS>MOLECULE
ligand_44
    33    36     1     0     0
SMALL
USER_CHARGES
****
Generated from the CSD

@<TRIPOS>ATOM
     1 C1      12.2208  11.6569  20.7663   C.3       1 RES1   0.0000
     2 C2      12.0953  10.9601  22.0943   C.2       1 RES1   0.0000
     3 N3      12.1901   9.6139  22.1182   N.2       1 RES1   0.0000
     4 C4      12.0967   8.9265  23.2767   C.2       1 RES1   0.0000
     5 N5      12.2139   7.5671  23.2902   N.2       1 RES1   0.0000
     6 C6      12.4282   6.7830  22.1909   C.2       1 RES1   0.0000
     7 N7      12.5297   5.4450  22.3086   N.2       1 RES1   0.0000
     8 C8      12.7005   4.7983  21.1239   C.2       1 RES1   0.0000
     9 C9      12.6936   5.6502  20.0109   C.2       1 RES1   0.0000
    10 C10     12.8652   5.3873  18.5578   C.2       1 RES1   0.0000
    11 O11     12.8523   6.3244  17.7869   O.2       1 RES1   0.0000
    12 N12     13.0420   4.1270  18.1500   N.am      1 RES1   0.0000
    13 C13     13.2240   3.8270  16.7860   C.2       1 RES1   0.0000
    14 C14     14.4900   3.7930  16.2040   C.2       1 RES1   0.0000
    15 C15     15.7200   4.0740  17.0300   C.3       1 RES1   0.0000
    16 C16     14.6170   3.5190  14.8460   C.2       1 RES1   0.0000
    17 C17     13.4940   3.2730  14.0610   C.2       1 RES1   0.0000
    18 C18     12.2310   3.3030  14.6430   C.2       1 RES1   0.0000
    19 C19     12.1070   3.5850  16.0010   C.2       1 RES1   0.0000
    20 Cl20    10.4800   3.6230  16.7500   Cl        1 RES1   0.0000
    21 S21     12.4830   7.3450  20.5022   S.3       1 RES1   0.0000
    22 C22     11.8501   9.6363  24.4613   C.2       1 RES1   0.0000
    23 C23     11.7271  11.0405  24.4164   C.2       1 RES1   0.0000
    24 N24     11.4938  11.7672  25.6013   N.pl3     1 RES1   0.0000
    25 C25     11.5072  13.2247  25.6791   C.3       1 RES1   0.0000
    26 C26     10.4663  13.6992  26.6632   C.3       1 RES1   0.0000
    27 N27     10.6802  13.0762  28.0026   N.3       1 RES1   1.0000
    28 C28      9.6410  13.5612  28.9434   C.3       1 RES1   0.0000
    29 C29      8.2639  12.9018  28.7005   C.3       1 RES1   0.0000
    30 O30      7.7354  13.1486  27.3665   O.3       1 RES1   0.0000
    31 C31     10.7274  11.5885  27.8896   C.3       1 RES1   0.0000
    32 C32     11.7760  11.1585  26.8943   C.3       1 RES1   0.0000
    33 N33     11.8525  11.6723  23.2277   N.2       1 RES1   0.0000
@<TRIPOS>BOND
     1     1     2    1
     2     2     3    2
     3     3     4    1
     4     4     5    1
     5     5     6    1
     6     6     7    2
     7     7     8    1
     8     8     9    2
     9     9    10    1
    10    10    11    2
    11    10    12   am
    12    12    13    1
    13    13    14    2
    14    14    15    1
    15    14    16    1
    16    16    17    2
    17    17    18    1
    18    18    19    2
    19    19    20    1
    20     9    21    1
    21     4    22    2
    22    22    23    1
    23    23    24    1
    24    24    25    1
    25    25    26    1
    26    26    27    1
    27    27    28    1
    28    28    29    1
    29    29    30    1
    30    27    31    1
    31    31    32    1
    32    23    33    2
    33    33     2    1
    34    21     6    1
    35    32    24    1
    36    19    13    1
@<TRIPOS>SUBSTRUCTURE
     1 RES1        1 GROUP             0 ****  ****    0  
@<TRIPOS>MOLECULE
ligand_45
    33    36     1     0     0
SMALL
USER_CHARGES
****
Generated from the CSD

@<TRIPOS>ATOM
     1 C1      12.2208  11.6569  20.7663   C.3       1 RES1   0.0000
     2 C2      12.0953  10.9601  22.0943   C.2       1 RES1   0.0000
     3 N3      12.1901   9.6139  22.1182   N.2       1 RES1   0.0000
     4 C4      12.0967   8.9265  23.2767   C.2       1 RES1   0.0000
     5 N5      12.2139   7.5671  23.2902   N.2       1 RES1   0.0000
     6 C6      12.4282   6.7830  22.1909   C.2       1 RES1   0.0000
     7 N7      12.5297   5.4450  22.3086   N.2       1 RES1   0.0000
     8 C8      12.7005   4.7983  21.1239   C.2       1 RES1   0.0000
     9 C9      12.6936   5.6502  20.0109   C.2       1 RES1   0.0000
    10 C10     12.8652   5.3873  18.5578   C.2       1 RES1   0.0000
    11 O11     12.8523   6.3244  17.7869   O.2       1 RES1   0.0000
    12 N12     13.0420   4.1270  18.1500   N.am      1 RES1   0.0000
    13 C13     13.2240   3.8270  16.7860   C.2       1 RES1   0.0000
    14 C14     14.4900   3.7930  16.2040   C.2       1 RES1   0.0000
    15 C15     15.7200   4.0740  17.0300   C.3       1 RES1   0.0000
    16 C16     14.6170   3.5190  14.8460   C.2       1 RES1   0.0000
    17 C17     13.4940   3.2730  14.0610   C.2       1 RES1   0.0000
    18 C18     12.2310   3.3030  14.6430   C.2       1 RES1   0.0000
    19 C19     12.1070   3.5850  16.0010   C.2       1 RES1   0.0000
    20 Cl20    10.4800   3.6230  16.7500   Cl        1 RES1   0.0000
    21 S21     12.4830   7.3450  20.5022   S.3       1 RES1   0.0000
    22 C22     11.8501   9.6363  24.4613   C.2       1 RES1   0.0000
    23 C23     11.7271  11.0405  24.4164   C.2       1 RES1   0.0000
    24 N24     11.4938  11.7672  25.6013   N.pl3     1 RES1   0.0000
    25 C25     11.5781  11.1917  26.9400   C.3       1 RES1   0.0000
    26 C26     12.1345  12.2090  27.9057   C.3       1 RES1   0.0000
    27 N27     11.3128  13.4550  27.8948   N.3       1 RES1   1.0000
    28 C28     11.8872  14.4325  28.8513   C.3       1 RES1   0.0000
    29 C29     13.1709  15.1064  28.3145   C.3       1 RES1   0.0000
    30 O30     14.2396  14.1606  28.0264   O.3       1 RES1   0.0000
    31 C31     11.1864  13.9900  26.5070   C.3       1 RES1   0.0000
    32 C32     10.6318  12.9413  25.5756   C.3       1 RES1   0.0000
    33 N33     11.8525  11.6723  23.2277   N.2       1 RES1   0.0000
@<TRIPOS>BOND
     1     1     2    1
     2     2     3    2
     3     3     4    1
     4     4     5    1
     5     5     6    1
     6     6     7    2
     7     7     8    1
     8     8     9    2
     9     9    10    1
    10    10    11    2
    11    10    12   am
    12    12    13    1
    13    13    14    2
    14    14    15    1
    15    14    16    1
    16    16    17    2
    17    17    18    1
    18    18    19    2
    19    19    20    1
    20     9    21    1
    21     4    22    2
    22    22    23    1
    23    23    24    1
    24    24    25    1
    25    25    26    1
    26    26    27    1
    27    27    28    1
    28    28    29    1
    29    29    30    1
    30    27    31    1
    31    31    32    1
    32    23    33    2
    33    33     2    1
    34    21     6    1
    35    32    24    1
    36    19    13    1
@<TRIPOS>SUBSTRUCTURE
     1 RES1        1 GROUP             0 ****  ****    0  
@<TRIPOS>MOLECULE
ligand_46
    33    36     1     0     0
SMALL
USER_CHARGES
****
Generated from the CSD

@<TRIPOS>ATOM
     1 C1      11.6696   4.3913  28.8730   C.3       1 RES1   0.0000
     2 C2      12.1653   4.7583  27.5003   C.2       1 RES1   0.0000
     3 N3      12.0700   3.8343  26.5211   N.2       1 RES1   0.0000
     4 C4      12.4864   4.1011  25.2646   C.2       1 RES1   0.0000
     5 N5      12.3665   3.1654  24.2787   N.2       1 RES1   0.0000
     6 C6      12.3392   3.4315  22.9379   C.2       1 RES1   0.0000
     7 N7      12.0254   4.6612  22.4862   N.2       1 RES1   0.0000
     8 C8      12.0810   4.7823  21.1323   C.2       1 RES1   0.0000
     9 C9      12.4962   3.6140  20.4786   C.2       1 RES1   0.0000
    10 C10     12.6744   3.2916  19.0383   C.2       1 RES1   0.0000
    11 O11     13.0180   2.1702  18.7268   O.2       1 RES1   0.0000
    12 N12     12.4365   4.2452  18.1329   N.am      1 RES1   0.0000
    13 C13     12.5763   3.9858  16.7556   C.2       1 RES1   0.0000
    14 C14     13.7848   4.1838  16.0900   C.2       1 RES1   0.0000
    15 C15     14.9969   4.6824  16.8359   C.3       1 RES1   0.0000
    16 C16     13.8664   3.9400  14.7228   C.2       1 RES1   0.0000
    17 C17     12.7558   3.4952  14.0111   C.2       1 RES1   0.0000
    18 C18     11.5510   3.2938  14.6765   C.2       1 RES1   0.0000
    19 C19     11.4709   3.5461  16.0436   C.2       1 RES1   0.0000
    20 Cl20     9.9189   3.2860  16.9000   Cl        1 RES1   0.0000
    21 S21     12.8051   2.3050  21.6401   S.3       1 RES1   0.0000
    22 C22     13.0691   5.3496  25.0005   C.2       1 RES1   0.0000
    23 C23     13.1860   6.2950  26.0405   C.2       1 RES1   0.0000
    24 N24     13.7561   7.5585  25.7855   N.3       1 RES1   0.0000
    25 C25     13.9794   7.7659  24.3430   C.3       1 RES1   0.0000
    26 C26     14.5670   9.1265  24.0650   C.3       1 RES1   0.0000
    27 N27     15.8746   9.2396  24.7812   N.3       1 RES1   1.0000
    28 C28     16.6118  10.4775  24.4284   C.3       1 RES1   0.0000
    29 C29     17.9679  10.5920  25.1619   C.3       1 RES1   0.0000
    30 O30     18.8308   9.4370  24.9589   O.3       1 RES1   0.0000
    31 C31     15.6077   9.1101  26.2448   C.3       1 RES1   0.0000
    32 C32     15.0070   7.7535  26.5289   C.3       1 RES1   0.0000
    33 N33     12.7297   5.9750  27.2724   N.2       1 RES1   0.0000
@<TRIPOS>BOND
     1     1     2    1
     2     2     3    2
     3     3     4    1
     4     4     5    1
     5     5     6    1
     6     6     7    2
     7     7     8    1
     8     8     9    2
     9     9    10    1
    10    10    11    2
    11    10    12   am
    12    12    13    1
    13    13    14    2
    14    14    15    1
    15    14    16    1
    16    16    17    2
    17    17    18    1
    18    18    19    2
    19    19    20    1
    20     9    21    1
    21     4    22    2
    22    22    23    1
    23    23    24    1
    24    24    25    1
    25    25    26    1
    26    26    27    1
    27    27    28    1
    28    28    29    1
    29    29    30    1
    30    27    31    1
    31    31    32    1
    32    23    33    2
    33    33     2    1
    34    21     6    1
    35    32    24    1
    36    19    13    1
@<TRIPOS>SUBSTRUCTURE
     1 RES1        1 GROUP             0 ****  ****    0  
@<TRIPOS>MOLECULE
ligand_47
    33    36     1     0     0
SMALL
USER_CHARGES
****
Generated from the CSD

@<TRIPOS>ATOM
     1 C1      11.6701   8.3863  27.9944   C.3       1 RES1   0.0000
     2 C2      11.5143   7.4590  26.8194   C.2       1 RES1   0.0000
     3 N3      11.9024   7.9004  25.6044   N.2       1 RES1   0.0000
     4 C4      11.7997   7.1164  24.5098   C.2       1 RES1   0.0000
     5 N5      12.2139   7.5671  23.2902   N.2       1 RES1   0.0000
     6 C6      12.5612   6.7734  22.2325   C.2       1 RES1   0.0000
     7 N7      12.9099   5.4863  22.4227   N.2       1 RES1   0.0000
     8 C8      13.1883   4.8145  21.2730   C.2       1 RES1   0.0000
     9 C9      13.0149   5.5842  20.1145   C.2       1 RES1   0.0000
    10 C10     13.2209   5.2733  18.6754   C.2       1 RES1   0.0000
    11 O11     13.0286   6.1456  17.8539   O.2       1 RES1   0.0000
    12 N12     13.6251   4.0458  18.3353   N.am      1 RES1   0.0000
    13 C13     13.8489   3.7057  16.9870   C.2       1 RES1   0.0000
    14 C14     15.0947   3.8722  16.3846   C.2       1 RES1   0.0000
    15 C15     16.2577   4.4230  17.1708   C.3       1 RES1   0.0000
    16 C16     15.2596   3.5478  15.0418   C.2       1 RES1   0.0000
    17 C17     14.1956   3.0535  14.2926   C.2       1 RES1   0.0000
    18 C18     12.9535   2.8836  14.8953   C.2       1 RES1   0.0000
    19 C19     12.7900   3.2164  16.2375   C.2       1 RES1   0.0000
    20 Cl20    11.1900   2.9969  17.0131   Cl        1 RES1   0.0000
    21 S21     12.4977   7.2367  20.5144   S.3       1 RES1   0.0000
    22 C22     11.2338   5.8402  24.6477   C.2       1 RES1   0.0000
    23 C23     10.8085   5.4033  25.9194   C.2       1 RES1   0.0000
    24 N24     10.2517   4.1178  26.0747   N.3       1 RES1   0.0000
    25 C25     10.3855   3.3218  24.8409   C.3       1 RES1   0.0000
    26 C26      9.8122   1.9376  25.0117   C.3       1 RES1   0.0000
    27 N27      8.3628   2.0583  25.3583   N.3       1 RES1   1.0000
    28 C28      7.6704   0.7466  25.3756   C.3       1 RES1   0.0000
    29 C29      6.1697   0.8704  25.7258   C.3       1 RES1   0.0000
    30 O30      5.4500   1.7893  24.8556   O.3       1 RES1   0.0000
    31 C31      8.2616   2.7946  26.6536   C.3       1 RES1   0.0000
    32 C32      8.8458   4.1784  26.4931   C.3       1 RES1   0.0000
    33 N33     10.9589   6.2276  26.9805   N.2       1 RES1   0.0000
@<TRIPOS>BOND
     1     1     2    1
     2     2     3    2
     3     3     4    1
     4     4     5    1
     5     5     6    1
     6     6     7    2
     7     7     8    1
     8     8     9    2
     9     9    10    1
    10    10    11    2
    11    10    12   am
    12    12    13    1
    13    13    14    2
    14    14    15    1
    15    14    16    1
    16    16    17    2
    17    17    18    1
    18    18    19    2
    19    19    20    1
    20     9    21    1
    21     4    22    2
    22    22    23    1
    23    23    24    1
    24    24    25    1
    25    25    26    1
    26    26    27    1
    27    27    28    1
    28    28    29    1
    29    29    30    1
    30    27    31    1
    31    31    32    1
    32    23    33    2
    33    33     2    1
    34    21     6    1
    35    32    24    1
    36    19    13    1
@<TRIPOS>SUBSTRUCTURE
     1 RES1        1 GROUP             0 ****  ****    0  
@<TRIPOS>MOLECULE
ligand_48
    33    36     1     0     0
SMALL
USER_CHARGES
****
Generated from the CSD

@<TRIPOS>ATOM
     1 C1      11.9138   4.3852  28.9051   C.3       1 RES1   0.0000
     2 C2      11.6579   4.7011  27.4561   C.2       1 RES1   0.0000
     3 N3      12.1176   3.8381  26.5258   N.2       1 RES1   0.0000
     4 C4      11.9140   4.0556  25.2087   C.2       1 RES1   0.0000
     5 N5      12.3665   3.1654  24.2787   N.2       1 RES1   0.0000
     6 C6      12.6193   3.4556  22.9668   C.2       1 RES1   0.0000
     7 N7      12.8393   4.7247  22.5723   N.2       1 RES1   0.0000
     8 C8      13.1175   4.8499  21.2465   C.2       1 RES1   0.0000
     9 C9      13.1627   3.6274  20.5623   C.2       1 RES1   0.0000
    10 C10     13.4038   3.2975  19.1330   C.2       1 RES1   0.0000
    11 O11     13.3538   2.1366  18.7828   O.2       1 RES1   0.0000
    12 N12     13.6543   4.2933  18.2778   N.am      1 RES1   0.0000
    13 C13     13.8747   4.0346  16.9110   C.2       1 RES1   0.0000
    14 C14     15.1502   3.7868  16.4067   C.2       1 RES1   0.0000
    15 C15     16.3479   3.7819  17.3229   C.3       1 RES1   0.0000
    16 C16     15.3212   3.5638  15.0442   C.2       1 RES1   0.0000
    17 C17     14.2318   3.5802  14.1776   C.2       1 RES1   0.0000
    18 C18     12.9585   3.8235  14.6818   C.2       1 RES1   0.0000
    19 C19     12.7920   4.0537  16.0450   C.2       1 RES1   0.0000
    20 Cl20    11.1516   4.3665  16.6938   Cl        1 RES1   0.0000
    21 S21     12.8134   2.2690  21.6536   S.3       1 RES1   0.0000
    22 C22     11.2518   5.2281  24.8156   C.2       1 RES1   0.0000
    23 C23     10.8008   6.1334  25.7985   C.2       1 RES1   0.0000
    24 N24     10.1212   7.3081  25.4179   N.3       1 RES1   0.0000
    25 C25      9.8098   7.3058  23.9769   C.3       1 RES1   0.0000
    26 C26      9.0614   8.5505  23.5714   C.3       1 RES1   0.0000
    27 N27      9.9080   9.7424  23.8845   N.3       1 RES1   1.0000
    28 C28      9.3298  11.0045  23.3619   C.3       1 RES1   0.0000
    29 C29     10.2081  12.2370  23.6777   C.3       1 RES1   0.0000
    30 O30     11.5804  12.1002  23.2108   O.3       1 RES1   0.0000
    31 C31     10.1372   9.7664  25.3600   C.3       1 RES1   0.0000
    32 C32     10.8757   8.5157  25.7751   C.3       1 RES1   0.0000
    33 N33     11.0163   5.8473  27.1022   N.2       1 RES1   0.0000
@<TRIPOS>BOND
     1     1     2    1
     2     2     3    2
     3     3     4    1
     4     4     5    1
     5     5     6    1
     6     6     7    2
     7     7     8    1
     8     8     9    2
     9     9    10    1
    10    10    11    2
    11    10    12   am
    12    12    13    1
    13    13    14    2
    14    14    15    1
    15    14    16    1
    16    16    17    2
    17    17    18    1
    18    18    19    2
    19    19    20    1
    20     9    21    1
    21     4    22    2
    22    22    23    1
    23    23    24    1
    24    24    25    1
    25    25    26    1
    26    26    27    1
    27    27    28    1
    28    28    29    1
    29    29    30    1
    30    27    31    1
    31    31    32    1
    32    23    33    2
    33    33     2    1
    34    21     6    1
    35    32    24    1
    36    19    13    1
@<TRIPOS>SUBSTRUCTURE
     1 RES1        1 GROUP             0 ****  ****    0  
@<TRIPOS>MOLECULE
ligand_49
    33    36     1     0     0
SMALL
USER_CHARGES
****
Generated from the CSD

@<TRIPOS>ATOM
     1 C1      11.4263   8.3917  27.9589   C.3       1 RES1   0.0000
     2 C2      12.0189   7.5207  26.8842   C.2       1 RES1   0.0000
     3 N3      11.8550   7.8962  25.5982   N.2       1 RES1   0.0000
     4 C4      12.3695   7.1663  24.5853   C.2       1 RES1   0.0000
     5 N5      12.2139   7.5671  23.2902   N.2       1 RES1   0.0000
     6 C6      12.2819   6.7480  22.1976   C.2       1 RES1   0.0000
     7 N7      12.0982   5.4192  22.3206   N.2       1 RES1   0.0000
     8 C8      12.1542   4.7431  21.1415   C.2       1 RES1   0.0000
     9 C9      12.3491   5.5699  20.0265   C.2       1 RES1   0.0000
    10 C10     12.4919   5.2669  18.5781   C.2       1 RES1   0.0000
    11 O11     12.6918   6.1806  17.8050   O.2       1 RES1   0.0000
    12 N12     12.4090   3.9948  18.1773   N.am      1 RES1   0.0000
    13 C13     12.5524   3.6540  16.8182   C.2       1 RES1   0.0000
    14 C14     13.7949   3.3515  16.2640   C.2       1 RES1   0.0000
    15 C15     15.0391   3.3742  17.1159   C.3       1 RES1   0.0000
    16 C16     13.8898   3.0477  14.9097   C.2       1 RES1   0.0000
    17 C17     12.7567   3.0371  14.1011   C.2       1 RES1   0.0000
    18 C18     11.5163   3.3350  14.6554   C.2       1 RES1   0.0000
    19 C19     11.4260   3.6460  16.0097   C.2       1 RES1   0.0000
    20 Cl20     9.8279   4.0292  16.7231   Cl        1 RES1   0.0000
    21 S21     12.4883   7.2745  20.5093   S.3       1 RES1   0.0000
    22 C22     13.0434   5.9744  24.8905   C.2       1 RES1   0.0000
    23 C23     13.1835   5.5817  26.2377   C.2       1 RES1   0.0000
    24 N24     13.8710   4.3939  26.5592   N.3       1 RES1   0.0000
    25 C25     14.5328   3.8186  25.3740   C.3       1 RES1   0.0000
    26 C26     15.2892   2.5608  25.7197   C.3       1 RES1   0.0000
    27 N27     14.3269   1.5596  26.2739   N.3       1 RES1   1.0000
    28 C28     14.9471   0.2282  26.4816   C.3       1 RES1   0.0000
    29 C29     13.9512  -0.8104  27.0468   C.3       1 RES1   0.0000
    30 O30     12.7492  -0.9542  26.2379   O.3       1 RES1   0.0000
    31 C31     13.7347   2.1340  27.5187   C.3       1 RES1   0.0000
    32 C32     12.9858   3.4018  27.1814   C.3       1 RES1   0.0000
    33 N33     12.6646   6.3678  27.2077   N.2       1 RES1   0.0000
@<TRIPOS>BOND
     1     1     2    1
     2     2     3    2
     3     3     4    1
     4     4     5    1
     5     5     6    1
     6     6     7    2
     7     7     8    1
     8     8     9    2
     9     9    10    1
    10    10    11    2
    11    10    12   am
    12    12    13    1
    13    13    14    2
    14    14    15    1
    15    14    16    1
    16    16    17    2
    17    17    18    1
    18    18    19    2
    19    19    20    1
    20     9    21    1
    21     4    22    2
    22    22    23    1
    23    23    24    1
    24    24    25    1
    25    25    26    1
    26    26    27    1
    27    27    28    1
    28    28    29    1
    29    29    30    1
    30    27    31    1
    31    31    32    1
    32    23    33    2
    33    33     2    1
    34    21     6    1
    35    32    24    1
    36    19    13    1
@<TRIPOS>SUBSTRUCTURE
     1 RES1        1 GROUP             0 ****  ****    0  
@<TRIPOS>MOLECULE
ligand_50
    33    36     1     0     0
SMALL
USER_CHARGES
****
Generated from the CSD

@<TRIPOS>ATOM
     1 C1      11.6696   4.3913  28.8730   C.3       1 RES1   0.0000
     2 C2      12.1653   4.7583  27.5003   C.2       1 RES1   0.0000
     3 N3      12.0700   3.8343  26.5211   N.2       1 RES1   0.0000
     4 C4      12.4864   4.1011  25.2646   C.2       1 RES1   0.0000
     5 N5      12.3665   3.1654  24.2787   N.2       1 RES1   0.0000
     6 C6      12.3393   3.4315  22.9379   C.2       1 RES1   0.0000
     7 N7      12.0256   4.6612  22.4861   N.2       1 RES1   0.0000
     8 C8      12.0813   4.7823  21.1323   C.2       1 RES1   0.0000
     9 C9      12.4965   3.6140  20.4786   C.2       1 RES1   0.0000
    10 C10     12.6747   3.2915  19.0384   C.2       1 RES1   0.0000
    11 O11     13.0181   2.1701  18.7268   O.2       1 RES1   0.0000
    12 N12     12.4368   4.2451  18.1329   N.am      1 RES1   0.0000
    13 C13     12.5768   3.9857  16.7556   C.2       1 RES1   0.0000
    14 C14     13.7853   4.1836  16.0900   C.2       1 RES1   0.0000
    15 C15     14.9973   4.6821  16.8360   C.3       1 RES1   0.0000
    16 C16     13.8669   3.9398  14.7228   C.2       1 RES1   0.0000
    17 C17     12.7562   3.4951  14.0111   C.2       1 RES1   0.0000
    18 C18     11.5514   3.2938  14.6764   C.2       1 RES1   0.0000
    19 C19     11.4713   3.5461  16.0436   C.2       1 RES1   0.0000
    20 Cl20     9.9193   3.2862  16.8999   Cl        1 RES1   0.0000
    21 S21     12.8052   2.3049  21.6402   S.3       1 RES1   0.0000
    22 C22     13.0691   5.3496  25.0005   C.2       1 RES1   0.0000
    23 C23     13.1860   6.2950  26.0405   C.2       1 RES1   0.0000
    24 N24     13.7561   7.5585  25.7855   N.pl3     1 RES1   0.0000
    25 C25     13.7789   8.6520  26.7520   C.3       1 RES1   0.0000
    26 C26     15.0627   9.4336  26.6177   C.3       1 RES1   0.0000
    27 N27     15.2365   9.9316  25.2214   N.3       1 RES1   1.0000
    28 C28     16.5063  10.6921  25.1238   C.3       1 RES1   0.0000
    29 C29     16.4783  12.0043  25.9408   C.3       1 RES1   0.0000
    30 O30     15.3632  12.8739  25.5941   O.3       1 RES1   0.0000
    31 C31     15.1452   8.8056  24.2458   C.3       1 RES1   0.0000
    32 C32     13.8513   8.0498  24.4174   C.3       1 RES1   0.0000
    33 N33     12.7297   5.9750  27.2724   N.2       1 RES1   0.0000
@<TRIPOS>BOND
     1     1     2    1
     2     2     3    2
     3     3     4    1
     4     4     5    1
     5     5     6    1
     6     6     7    2
     7     7     8    1
     8     8     9    2
     9     9    10    1
    10    10    11    2
    11    10    12   am
    12    12    13    1
    13    13    14    2
    14    14    15    1
    15    14    16    1
    16    16    17    2
    17    17    18    1
    18    18    19    2
    19    19    20    1
    20     9    21    1
    21     4    22    2
    22    22    23    1
    23    23    24    1
    24    24    25    1
    25    25    26    1
    26    26    27    1
    27    27    28    1
    28    28    29    1
    29    29    30    1
    30    27    31    1
    31    31    32    1
    32    23    33    2
    33    33     2    1
    34    21     6    1
    35    32    24    1
    36    19    13    1
@<TRIPOS>SUBSTRUCTURE
     1 RES1        1 GROUP             0 ****  ****    0  
@<TRIPOS>MOLECULE
ligand_51
    33    36     1     0     0
SMALL
USER_CHARGES
****
Generated from the CSD

@<TRIPOS>ATOM
     1 C1      11.6696   4.3913  28.8730   C.3       1 RES1   0.0000
     2 C2      12.1653   4.7583  27.5003   C.2       1 RES1   0.0000
     3 N3      12.0700   3.8343  26.5211   N.2       1 RES1   0.0000
     4 C4      12.4864   4.1011  25.2646   C.2       1 RES1   0.0000
     5 N5      12.3665   3.1654  24.2787   N.2       1 RES1   0.0000
     6 C6      12.3393   3.4315  22.9379   C.2       1 RES1   0.0000
     7 N7      12.0259   4.6612  22.4861   N.2       1 RES1   0.0000
     8 C8      12.0817   4.7824  21.1323   C.2       1 RES1   0.0000
     9 C9      12.4966   3.6139  20.4786   C.2       1 RES1   0.0000
    10 C10     12.6748   3.2914  19.0384   C.2       1 RES1   0.0000
    11 O11     13.0181   2.1699  18.7269   O.2       1 RES1   0.0000
    12 N12     12.4372   4.2451  18.1329   N.am      1 RES1   0.0000
    13 C13     12.5771   3.9856  16.7556   C.2       1 RES1   0.0000
    14 C14     13.7856   4.1833  16.0901   C.2       1 RES1   0.0000
    15 C15     14.9978   4.6816  16.8361   C.3       1 RES1   0.0000
    16 C16     13.8673   3.9395  14.7229   C.2       1 RES1   0.0000
    17 C17     12.7565   3.4950  14.0111   C.2       1 RES1   0.0000
    18 C18     11.5517   3.2939  14.6764   C.2       1 RES1   0.0000
    19 C19     11.4715   3.5462  16.0435   C.2       1 RES1   0.0000
    20 Cl20     9.9195   3.2865  16.8999   Cl        1 RES1   0.0000
    21 S21     12.8051   2.3048  21.6402   S.3       1 RES1   0.0000
    22 C22     13.0691   5.3496  25.0005   C.2       1 RES1   0.0000
    23 C23     13.1860   6.2950  26.0405   C.2       1 RES1   0.0000
    24 N24     13.7561   7.5585  25.7855   N.pl3     1 RES1   0.0000
    25 C25     14.0555   8.0624  24.4488   C.3       1 RES1   0.0000
    26 C26     13.8087   9.5499  24.3900   C.3       1 RES1   0.0000
    27 N27     14.6028  10.2607  25.4350   N.3       1 RES1   1.0000
    28 C28     14.3358  11.7174  25.3511   C.3       1 RES1   0.0000
    29 C29     14.8743  12.3468  24.0457   C.3       1 RES1   0.0000
    30 O30     16.2926  12.0985  23.8300   O.3       1 RES1   0.0000
    31 C31     14.3293   9.6863  26.7853   C.3       1 RES1   0.0000
    32 C32     14.5839   8.1997  26.7983   C.3       1 RES1   0.0000
    33 N33     12.7297   5.9750  27.2724   N.2       1 RES1   0.0000
@<TRIPOS>BOND
     1     1     2    1
     2     2     3    2
     3     3     4    1
     4     4     5    1
     5     5     6    1
     6     6     7    2
     7     7     8    1
     8     8     9    2
     9     9    10    1
    10    10    11    2
    11    10    12   am
    12    12    13    1
    13    13    14    2
    14    14    15    1
    15    14    16    1
    16    16    17    2
    17    17    18    1
    18    18    19    2
    19    19    20    1
    20     9    21    1
    21     4    22    2
    22    22    23    1
    23    23    24    1
    24    24    25    1
    25    25    26    1
    26    26    27    1
    27    27    28    1
    28    28    29    1
    29    29    30    1
    30    27    31    1
    31    31    32    1
    32    23    33    2
    33    33     2    1
    34    21     6    1
    35    32    24    1
    36    19    13    1
@<TRIPOS>SUBSTRUCTURE
     1 RES1        1 GROUP             0 ****  ****    0  
@<TRIPOS>MOLECULE
ligand_52
    33    36     1     0     0
SMALL
USER_CHARGES
****
Generated from the CSD

@<TRIPOS>ATOM
     1 C1      11.6701   8.3863  27.9944   C.3       1 RES1   0.0000
     2 C2      11.5143   7.4590  26.8194   C.2       1 RES1   0.0000
     3 N3      11.9024   7.9004  25.6044   N.2       1 RES1   0.0000
     4 C4      11.7997   7.1164  24.5098   C.2       1 RES1   0.0000
     5 N5      12.2139   7.5671  23.2902   N.2       1 RES1   0.0000
     6 C6      12.5612   6.7734  22.2325   C.2       1 RES1   0.0000
     7 N7      12.9097   5.4862  22.4226   N.2       1 RES1   0.0000
     8 C8      13.1881   4.8144  21.2729   C.2       1 RES1   0.0000
     9 C9      13.0147   5.5842  20.1144   C.2       1 RES1   0.0000
    10 C10     13.2207   5.2734  18.6753   C.2       1 RES1   0.0000
    11 O11     13.0284   6.1457  17.8538   O.2       1 RES1   0.0000
    12 N12     13.6247   4.0458  18.3352   N.am      1 RES1   0.0000
    13 C13     13.8485   3.7058  16.9869   C.2       1 RES1   0.0000
    14 C14     15.0943   3.8721  16.3844   C.2       1 RES1   0.0000
    15 C15     16.2573   4.4228  17.1707   C.3       1 RES1   0.0000
    16 C16     15.2592   3.5478  15.0417   C.2       1 RES1   0.0000
    17 C17     14.1951   3.0536  14.2925   C.2       1 RES1   0.0000
    18 C18     12.9530   2.8838  14.8951   C.2       1 RES1   0.0000
    19 C19     12.7895   3.2166  16.2373   C.2       1 RES1   0.0000
    20 Cl20    11.1896   2.9973  17.0129   Cl        1 RES1   0.0000
    21 S21     12.4977   7.2367  20.5144   S.3       1 RES1   0.0000
    22 C22     11.2338   5.8402  24.6477   C.2       1 RES1   0.0000
    23 C23     10.8085   5.4033  25.9194   C.2       1 RES1   0.0000
    24 N24     10.2517   4.1178  26.0747   N.pl3     1 RES1   0.0000
    25 C25      9.9275   3.5210  27.3666   C.3       1 RES1   0.0000
    26 C26      8.6772   2.6842  27.2501   C.3       1 RES1   0.0000
    27 N27      8.8313   1.6458  26.1892   N.3       1 RES1   1.0000
    28 C28      7.5865   0.8442  26.0996   C.3       1 RES1   0.0000
    29 C29      7.3368  -0.0104  27.3635   C.3       1 RES1   0.0000
    30 O30      8.4535  -0.8827  27.6978   O.3       1 RES1   0.0000
    31 C31      9.2257   2.2722  24.8929   C.3       1 RES1   0.0000
    32 C32     10.4751   3.1014  25.0553   C.3       1 RES1   0.0000
    33 N33     10.9589   6.2276  26.9805   N.2       1 RES1   0.0000
@<TRIPOS>BOND
     1     1     2    1
     2     2     3    2
     3     3     4    1
     4     4     5    1
     5     5     6    1
     6     6     7    2
     7     7     8    1
     8     8     9    2
     9     9    10    1
    10    10    11    2
    11    10    12   am
    12    12    13    1
    13    13    14    2
    14    14    15    1
    15    14    16    1
    16    16    17    2
    17    17    18    1
    18    18    19    2
    19    19    20    1
    20     9    21    1
    21     4    22    2
    22    22    23    1
    23    23    24    1
    24    24    25    1
    25    25    26    1
    26    26    27    1
    27    27    28    1
    28    28    29    1
    29    29    30    1
    30    27    31    1
    31    31    32    1
    32    23    33    2
    33    33     2    1
    34    21     6    1
    35    32    24    1
    36    19    13    1
@<TRIPOS>SUBSTRUCTURE
     1 RES1        1 GROUP             0 ****  ****    0  
@<TRIPOS>MOLECULE
ligand_53
    33    36     1     0     0
SMALL
USER_CHARGES
****
Generated from the CSD

@<TRIPOS>ATOM
     1 C1      11.6701   8.3863  27.9944   C.3       1 RES1   0.0000
     2 C2      11.5143   7.4590  26.8194   C.2       1 RES1   0.0000
     3 N3      11.9024   7.9004  25.6044   N.2       1 RES1   0.0000
     4 C4      11.7997   7.1164  24.5098   C.2       1 RES1   0.0000
     5 N5      12.2139   7.5671  23.2902   N.2       1 RES1   0.0000
     6 C6      12.5611   6.7734  22.2325   C.2       1 RES1   0.0000
     7 N7      12.9094   5.4862  22.4226   N.2       1 RES1   0.0000
     8 C8      13.1877   4.8144  21.2728   C.2       1 RES1   0.0000
     9 C9      13.0146   5.5843  20.1144   C.2       1 RES1   0.0000
    10 C10     13.2206   5.2735  18.6752   C.2       1 RES1   0.0000
    11 O11     13.0285   6.1458  17.8538   O.2       1 RES1   0.0000
    12 N12     13.6244   4.0459  18.3351   N.am      1 RES1   0.0000
    13 C13     13.8482   3.7058  16.9868   C.2       1 RES1   0.0000
    14 C14     15.0940   3.8720  16.3844   C.2       1 RES1   0.0000
    15 C15     16.2572   4.4225  17.1707   C.3       1 RES1   0.0000
    16 C16     15.2590   3.5477  15.0416   C.2       1 RES1   0.0000
    17 C17     14.1949   3.0537  14.2923   C.2       1 RES1   0.0000
    18 C18     12.9527   2.8842  14.8949   C.2       1 RES1   0.0000
    19 C19     12.7892   3.2169  16.2371   C.2       1 RES1   0.0000
    20 Cl20    11.1892   2.9977  17.0127   Cl        1 RES1   0.0000
    21 S21     12.4977   7.2368  20.5144   S.3       1 RES1   0.0000
    22 C22     11.2338   5.8402  24.6477   C.2       1 RES1   0.0000
    23 C23     10.8085   5.4033  25.9194   C.2       1 RES1   0.0000
    24 N24     10.2517   4.1178  26.0747   N.pl3     1 RES1   0.0000
    25 C25     10.2691   3.0917  25.0368   C.3       1 RES1   0.0000
    26 C26     10.4405   1.7285  25.6608   C.3       1 RES1   0.0000
    27 N27      9.3723   1.4696  26.6706   N.3       1 RES1   1.0000
    28 C28      9.5712   0.1252  27.2649   C.3       1 RES1   0.0000
    29 C29      9.3427  -1.0153  26.2465   C.3       1 RES1   0.0000
    30 O30      8.0395  -0.9566  25.6001   O.3       1 RES1   0.0000
    31 C31      9.3303   2.5641  27.6848   C.3       1 RES1   0.0000
    32 C32      9.1627   3.9071  27.0191   C.3       1 RES1   0.0000
    33 N33     10.9589   6.2276  26.9805   N.2       1 RES1   0.0000
@<TRIPOS>BOND
     1     1     2    1
     2     2     3    2
     3     3     4    1
     4     4     5    1
     5     5     6    1
     6     6     7    2
     7     7     8    1
     8     8     9    2
     9     9    10    1
    10    10    11    2
    11    10    12   am
    12    12    13    1
    13    13    14    2
    14    14    15    1
    15    14    16    1
    16    16    17    2
    17    17    18    1
    18    18    19    2
    19    19    20    1
    20     9    21    1
    21     4    22    2
    22    22    23    1
    23    23    24    1
    24    24    25    1
    25    25    26    1
    26    26    27    1
    27    27    28    1
    28    28    29    1
    29    29    30    1
    30    27    31    1
    31    31    32    1
    32    23    33    2
    33    33     2    1
    34    21     6    1
    35    32    24    1
    36    19    13    1
@<TRIPOS>SUBSTRUCTURE
     1 RES1        1 GROUP             0 ****  ****    0  
@<TRIPOS>MOLECULE
ligand_54
    33    36     1     0     0
SMALL
USER_CHARGES
****
Generated from the CSD

@<TRIPOS>ATOM
     1 C1      11.9138   4.3852  28.9051   C.3       1 RES1   0.0000
     2 C2      11.6579   4.7011  27.4561   C.2       1 RES1   0.0000
     3 N3      12.1176   3.8381  26.5258   N.2       1 RES1   0.0000
     4 C4      11.9140   4.0556  25.2087   C.2       1 RES1   0.0000
     5 N5      12.3665   3.1654  24.2787   N.2       1 RES1   0.0000
     6 C6      12.6196   3.4557  22.9668   C.2       1 RES1   0.0000
     7 N7      12.8397   4.7247  22.5724   N.2       1 RES1   0.0000
     8 C8      13.1182   4.8500  21.2468   C.2       1 RES1   0.0000
     9 C9      13.1633   3.6276  20.5625   C.2       1 RES1   0.0000
    10 C10     13.4046   3.2977  19.1331   C.2       1 RES1   0.0000
    11 O11     13.3545   2.1369  18.7828   O.2       1 RES1   0.0000
    12 N12     13.6553   4.2936  18.2780   N.am      1 RES1   0.0000
    13 C13     13.8758   4.0349  16.9112   C.2       1 RES1   0.0000
    14 C14     15.1514   3.7869  16.4071   C.2       1 RES1   0.0000
    15 C15     16.3490   3.7818  17.3235   C.3       1 RES1   0.0000
    16 C16     15.3225   3.5641  15.0446   C.2       1 RES1   0.0000
    17 C17     14.2333   3.5807  14.1779   C.2       1 RES1   0.0000
    18 C18     12.9600   3.8241  14.6819   C.2       1 RES1   0.0000
    19 C19     12.7933   4.0542  16.0451   C.2       1 RES1   0.0000
    20 Cl20    11.1529   4.3673  16.6937   Cl        1 RES1   0.0000
    21 S21     12.8137   2.2691  21.6536   S.3       1 RES1   0.0000
    22 C22     11.2518   5.2281  24.8156   C.2       1 RES1   0.0000
    23 C23     10.8008   6.1334  25.7985   C.2       1 RES1   0.0000
    24 N24     10.1212   7.3081  25.4179   N.pl3     1 RES1   0.0000
    25 C25      9.4840   8.2223  26.3606   C.3       1 RES1   0.0000
    26 C26      9.6318   9.6453  25.8806   C.3       1 RES1   0.0000
    27 N27      9.0758   9.8009  24.5042   N.3       1 RES1   1.0000
    28 C28      9.2388  11.2076  24.0630   C.3       1 RES1   0.0000
    29 C29      8.3725  12.1922  24.8816   C.3       1 RES1   0.0000
    30 O30      6.9584  11.8456  24.8882   O.3       1 RES1   0.0000
    31 C31      9.6948   8.8132  23.5718   C.3       1 RES1   0.0000
    32 C32      9.5284   7.4069  24.0909   C.3       1 RES1   0.0000
    33 N33     11.0163   5.8473  27.1022   N.2       1 RES1   0.0000
@<TRIPOS>BOND
     1     1     2    1
     2     2     3    2
     3     3     4    1
     4     4     5    1
     5     5     6    1
     6     6     7    2
     7     7     8    1
     8     8     9    2
     9     9    10    1
    10    10    11    2
    11    10    12   am
    12    12    13    1
    13    13    14    2
    14    14    15    1
    15    14    16    1
    16    16    17    2
    17    17    18    1
    18    18    19    2
    19    19    20    1
    20     9    21    1
    21     4    22    2
    22    22    23    1
    23    23    24    1
    24    24    25    1
    25    25    26    1
    26    26    27    1
    27    27    28    1
    28    28    29    1
    29    29    30    1
    30    27    31    1
    31    31    32    1
    32    23    33    2
    33    33     2    1
    34    21     6    1
    35    32    24    1
    36    19    13    1
@<TRIPOS>SUBSTRUCTURE
     1 RES1        1 GROUP             0 ****  ****    0  
@<TRIPOS>MOLECULE
ligand_55
    33    36     1     0     0
SMALL
USER_CHARGES
****
Generated from the CSD

@<TRIPOS>ATOM
     1 C1      11.9138   4.3852  28.9051   C.3       1 RES1   0.0000
     2 C2      11.6579   4.7011  27.4561   C.2       1 RES1   0.0000
     3 N3      12.1176   3.8381  26.5258   N.2       1 RES1   0.0000
     4 C4      11.9140   4.0556  25.2087   C.2       1 RES1   0.0000
     5 N5      12.3665   3.1654  24.2787   N.2       1 RES1   0.0000
     6 C6      12.6197   3.4557  22.9669   C.2       1 RES1   0.0000
     7 N7      12.8405   4.7247  22.5726   N.2       1 RES1   0.0000
     8 C8      13.1190   4.8500  21.2470   C.2       1 RES1   0.0000
     9 C9      13.1635   3.6276  20.5625   C.2       1 RES1   0.0000
    10 C10     13.4047   3.2978  19.1332   C.2       1 RES1   0.0000
    11 O11     13.3540   2.1371  18.7827   O.2       1 RES1   0.0000
    12 N12     13.6559   4.2937  18.2782   N.am      1 RES1   0.0000
    13 C13     13.8763   4.0351  16.9114   C.2       1 RES1   0.0000
    14 C14     15.1517   3.7865  16.4072   C.2       1 RES1   0.0000
    15 C15     16.3494   3.7807  17.3236   C.3       1 RES1   0.0000
    16 C16     15.3228   3.5638  15.0447   C.2       1 RES1   0.0000
    17 C17     14.2336   3.5810  14.1779   C.2       1 RES1   0.0000
    18 C18     12.9604   3.8250  14.6820   C.2       1 RES1   0.0000
    19 C19     12.7938   4.0551  16.0453   C.2       1 RES1   0.0000
    20 Cl20    11.1535   4.3688  16.6938   Cl        1 RES1   0.0000
    21 S21     12.8132   2.2692  21.6535   S.3       1 RES1   0.0000
    22 C22     11.2518   5.2281  24.8156   C.2       1 RES1   0.0000
    23 C23     10.8008   6.1334  25.7985   C.2       1 RES1   0.0000
    24 N24     10.1212   7.3081  25.4179   N.pl3     1 RES1   0.0000
    25 C25      9.6478   7.5728  24.0629   C.3       1 RES1   0.0000
    26 C26      8.3403   8.3245  24.1099   C.3       1 RES1   0.0000
    27 N27      8.4812   9.5844  24.8979   N.3       1 RES1   1.0000
    28 C28      7.1801  10.2963  24.9259   C.3       1 RES1   0.0000
    29 C29      6.7609  10.8248  23.5349   C.3       1 RES1   0.0000
    30 O30      7.7676  11.6746  22.9152   O.3       1 RES1   0.0000
    31 C31      9.0273   9.2968  26.2570   C.3       1 RES1   0.0000
    32 C32     10.3297   8.5419  26.1638   C.3       1 RES1   0.0000
    33 N33     11.0163   5.8473  27.1022   N.2       1 RES1   0.0000
@<TRIPOS>BOND
     1     1     2    1
     2     2     3    2
     3     3     4    1
     4     4     5    1
     5     5     6    1
     6     6     7    2
     7     7     8    1
     8     8     9    2
     9     9    10    1
    10    10    11    2
    11    10    12   am
    12    12    13    1
    13    13    14    2
    14    14    15    1
    15    14    16    1
    16    16    17    2
    17    17    18    1
    18    18    19    2
    19    19    20    1
    20     9    21    1
    21     4    22    2
    22    22    23    1
    23    23    24    1
    24    24    25    1
    25    25    26    1
    26    26    27    1
    27    27    28    1
    28    28    29    1
    29    29    30    1
    30    27    31    1
    31    31    32    1
    32    23    33    2
    33    33     2    1
    34    21     6    1
    35    32    24    1
    36    19    13    1
@<TRIPOS>SUBSTRUCTURE
     1 RES1        1 GROUP             0 ****  ****    0  
@<TRIPOS>MOLECULE
ligand_56
    33    36     1     0     0
SMALL
USER_CHARGES
****
Generated from the CSD

@<TRIPOS>ATOM
     1 C1      11.4263   8.3917  27.9589   C.3       1 RES1   0.0000
     2 C2      12.0189   7.5207  26.8842   C.2       1 RES1   0.0000
     3 N3      11.8550   7.8962  25.5982   N.2       1 RES1   0.0000
     4 C4      12.3695   7.1663  24.5853   C.2       1 RES1   0.0000
     5 N5      12.2139   7.5671  23.2902   N.2       1 RES1   0.0000
     6 C6      12.2816   6.7480  22.1976   C.2       1 RES1   0.0000
     7 N7      12.0977   5.4192  22.3207   N.2       1 RES1   0.0000
     8 C8      12.1535   4.7431  21.1416   C.2       1 RES1   0.0000
     9 C9      12.3485   5.5698  20.0266   C.2       1 RES1   0.0000
    10 C10     12.4911   5.2667  18.5782   C.2       1 RES1   0.0000
    11 O11     12.6911   6.1804  17.8050   O.2       1 RES1   0.0000
    12 N12     12.4079   3.9946  18.1773   N.am      1 RES1   0.0000
    13 C13     12.5511   3.6538  16.8183   C.2       1 RES1   0.0000
    14 C14     13.7936   3.3510  16.2640   C.2       1 RES1   0.0000
    15 C15     15.0378   3.3734  17.1158   C.3       1 RES1   0.0000
    16 C16     13.8883   3.0471  14.9097   C.2       1 RES1   0.0000
    17 C17     12.7552   3.0368  14.1011   C.2       1 RES1   0.0000
    18 C18     11.5149   3.3350  14.6555   C.2       1 RES1   0.0000
    19 C19     11.4247   3.6460  16.0099   C.2       1 RES1   0.0000
    20 Cl20     9.8268   4.0296  16.7233   Cl        1 RES1   0.0000
    21 S21     12.4881   7.2744  20.5092   S.3       1 RES1   0.0000
    22 C22     13.0434   5.9744  24.8905   C.2       1 RES1   0.0000
    23 C23     13.1835   5.5817  26.2377   C.2       1 RES1   0.0000
    24 N24     13.8710   4.3939  26.5592   N.pl3     1 RES1   0.0000
    25 C25     14.2006   3.9867  27.9215   C.3       1 RES1   0.0000
    26 C26     14.0995   2.4867  28.0512   C.3       1 RES1   0.0000
    27 N27     14.9729   1.8080  27.0491   N.3       1 RES1   1.0000
    28 C28     14.8484   0.3378  27.2022   C.3       1 RES1   0.0000
    29 C29     15.4266  -0.1720  28.5423   C.3       1 RES1   0.0000
    30 O30     16.8109   0.2237  28.7589   O.3       1 RES1   0.0000
    31 C31     14.6623   2.2872  25.6699   C.3       1 RES1   0.0000
    32 C32     14.7707   3.7892  25.5861   C.3       1 RES1   0.0000
    33 N33     12.6646   6.3678  27.2077   N.2       1 RES1   0.0000
@<TRIPOS>BOND
     1     1     2    1
     2     2     3    2
     3     3     4    1
     4     4     5    1
     5     5     6    1
     6     6     7    2
     7     7     8    1
     8     8     9    2
     9     9    10    1
    10    10    11    2
    11    10    12   am
    12    12    13    1
    13    13    14    2
    14    14    15    1
    15    14    16    1
    16    16    17    2
    17    17    18    1
    18    18    19    2
    19    19    20    1
    20     9    21    1
    21     4    22    2
    22    22    23    1
    23    23    24    1
    24    24    25    1
    25    25    26    1
    26    26    27    1
    27    27    28    1
    28    28    29    1
    29    29    30    1
    30    27    31    1
    31    31    32    1
    32    23    33    2
    33    33     2    1
    34    21     6    1
    35    32    24    1
    36    19    13    1
@<TRIPOS>SUBSTRUCTURE
     1 RES1        1 GROUP             0 ****  ****    0  
@<TRIPOS>MOLECULE
ligand_57
    33    36     1     0     0
SMALL
USER_CHARGES
****
Generated from the CSD

@<TRIPOS>ATOM
     1 C1      11.4263   8.3917  27.9589   C.3       1 RES1   0.0000
     2 C2      12.0189   7.5207  26.8842   C.2       1 RES1   0.0000
     3 N3      11.8550   7.8962  25.5982   N.2       1 RES1   0.0000
     4 C4      12.3695   7.1663  24.5853   C.2       1 RES1   0.0000
     5 N5      12.2139   7.5671  23.2902   N.2       1 RES1   0.0000
     6 C6      12.2815   6.7480  22.1976   C.2       1 RES1   0.0000
     7 N7      12.0969   5.4193  22.3206   N.2       1 RES1   0.0000
     8 C8      12.1526   4.7431  21.1415   C.2       1 RES1   0.0000
     9 C9      12.3482   5.5697  20.0266   C.2       1 RES1   0.0000
    10 C10     12.4910   5.2666  18.5782   C.2       1 RES1   0.0000
    11 O11     12.6916   6.1802  17.8051   O.2       1 RES1   0.0000
    12 N12     12.4073   3.9945  18.1774   N.am      1 RES1   0.0000
    13 C13     12.5506   3.6536  16.8184   C.2       1 RES1   0.0000
    14 C14     13.7931   3.3503  16.2643   C.2       1 RES1   0.0000
    15 C15     15.0371   3.3721  17.1163   C.3       1 RES1   0.0000
    16 C16     13.8879   3.0464  14.9100   C.2       1 RES1   0.0000
    17 C17     12.7550   3.0365  14.1012   C.2       1 RES1   0.0000
    18 C18     11.5147   3.3353  14.6554   C.2       1 RES1   0.0000
    19 C19     11.4244   3.6464  16.0097   C.2       1 RES1   0.0000
    20 Cl20     9.8265   4.0307  16.7228   Cl        1 RES1   0.0000
    21 S21     12.4885   7.2743  20.5093   S.3       1 RES1   0.0000
    22 C22     13.0434   5.9744  24.8905   C.2       1 RES1   0.0000
    23 C23     13.1835   5.5817  26.2377   C.2       1 RES1   0.0000
    24 N24     13.8710   4.3939  26.5592   N.pl3     1 RES1   0.0000
    25 C25     14.6532   3.6203  25.6001   C.3       1 RES1   0.0000
    26 C26     15.8639   3.0281  26.2787   C.3       1 RES1   0.0000
    27 N27     15.4611   2.2000  27.4533   N.3       1 RES1   1.0000
    28 C28     16.6725   1.6359  28.0973   C.3       1 RES1   0.0000
    29 C29     17.3968   0.6045  27.2019   C.3       1 RES1   0.0000
    30 O30     16.5320  -0.4793  26.7578   O.3       1 RES1   0.0000
    31 C31     14.6089   2.9921  28.3884   C.3       1 RES1   0.0000
    32 C32     13.4148   3.5683  27.6694   C.3       1 RES1   0.0000
    33 N33     12.6646   6.3678  27.2077   N.2       1 RES1   0.0000
@<TRIPOS>BOND
     1     1     2    1
     2     2     3    2
     3     3     4    1
     4     4     5    1
     5     5     6    1
     6     6     7    2
     7     7     8    1
     8     8     9    2
     9     9    10    1
    10    10    11    2
    11    10    12   am
    12    12    13    1
    13    13    14    2
    14    14    15    1
    15    14    16    1
    16    16    17    2
    17    17    18    1
    18    18    19    2
    19    19    20    1
    20     9    21    1
    21     4    22    2
    22    22    23    1
    23    23    24    1
    24    24    25    1
    25    25    26    1
    26    26    27    1
    27    27    28    1
    28    28    29    1
    29    29    30    1
    30    27    31    1
    31    31    32    1
    32    23    33    2
    33    33     2    1
    34    21     6    1
    35    32    24    1
    36    19    13    1
@<TRIPOS>SUBSTRUCTURE
     1 RES1        1 GROUP             0 ****  ****    0  
@<TRIPOS>MOLECULE
ligand_58
    33    36     1     0     0
SMALL
USER_CHARGES
****
Generated from the CSD

@<TRIPOS>ATOM
     1 C1      12.7664  -1.5949  23.7538   C.3       1 RES1   0.0000
     2 C2      12.5936  -0.4065  24.6608   C.2       1 RES1   0.0000
     3 N3      12.5702   0.8221  24.1026   N.2       1 RES1   0.0000
     4 C4      12.4083   1.9303  24.8571   C.2       1 RES1   0.0000
     5 N5      12.3665   3.1654  24.2787   N.2       1 RES1   0.0000
     6 C6      12.4776   3.4130  22.9387   C.2       1 RES1   0.0000
     7 N7      12.4237   4.6726  22.4643   N.2       1 RES1   0.0000
     8 C8      12.5908   4.7624  21.1172   C.2       1 RES1   0.0000
     9 C9      12.8292   3.5289  20.4955   C.2       1 RES1   0.0000
    10 C10     13.0415   3.1590  19.0714   C.2       1 RES1   0.0000
    11 O11     13.1952   1.9896  18.7861   O.2       1 RES1   0.0000
    12 N12     13.0420   4.1270  18.1500   N.am      1 RES1   0.0000
    13 C13     13.2240   3.8270  16.7860   C.2       1 RES1   0.0000
    14 C14     14.4900   3.7930  16.2040   C.2       1 RES1   0.0000
    15 C15     15.7200   4.0740  17.0300   C.3       1 RES1   0.0000
    16 C16     14.6170   3.5190  14.8460   C.2       1 RES1   0.0000
    17 C17     13.4940   3.2730  14.0610   C.2       1 RES1   0.0000
    18 C18     12.2310   3.3030  14.6430   C.2       1 RES1   0.0000
    19 C19     12.1070   3.5850  16.0010   C.2       1 RES1   0.0000
    20 Cl20    10.4800   3.6230  16.7500   Cl        1 RES1   0.0000
    21 S21     12.8164   2.2022  21.6778   S.3       1 RES1   0.0000
    22 C22     12.3111   1.7872  26.2492   C.2       1 RES1   0.0000
    23 C23     12.3639   0.4987  26.8199   C.2       1 RES1   0.0000
    24 N24     12.2529   0.3396  28.2160   N.3       1 RES1   0.0000
    25 C25     12.0930  -1.0791  28.5840   C.3       1 RES1   0.0000
    26 C26     11.9982  -1.2548  30.0786   C.3       1 RES1   0.0000
    27 N27     10.8167  -0.4864  30.5778   N.3       1 RES1   1.0000
    28 C28     10.5384  -0.7385  32.0128   C.3       1 RES1   0.0000
    29 C29     10.0725  -2.1877  32.2829   C.3       1 RES1   0.0000
    30 O30      8.9175  -2.5782  31.4872   O.3       1 RES1   0.0000
    31 C31     11.0442   0.9564  30.2667   C.3       1 RES1   0.0000
    32 C32     11.1529   1.1379  28.7710   C.3       1 RES1   0.0000
    33 N33     12.5055  -0.5732  26.0081   N.2       1 RES1   0.0000
@<TRIPOS>BOND
     1     1     2    1
     2     2     3    2
     3     3     4    1
     4     4     5    1
     5     5     6    1
     6     6     7    2
     7     7     8    1
     8     8     9    2
     9     9    10    1
    10    10    11    2
    11    10    12   am
    12    12    13    1
    13    13    14    2
    14    14    15    1
    15    14    16    1
    16    16    17    2
    17    17    18    1
    18    18    19    2
    19    19    20    1
    20     9    21    1
    21     4    22    2
    22    22    23    1
    23    23    24    1
    24    24    25    1
    25    25    26    1
    26    26    27    1
    27    27    28    1
    28    28    29    1
    29    29    30    1
    30    27    31    1
    31    31    32    1
    32    23    33    2
    33    33     2    1
    34    21     6    1
    35    32    24    1
    36    19    13    1
@<TRIPOS>SUBSTRUCTURE
     1 RES1        1 GROUP             0 ****  ****    0  
@<TRIPOS>MOLECULE
ligand_59
    33    36     1     0     0
SMALL
USER_CHARGES
****
Generated from the CSD

@<TRIPOS>ATOM
     1 C1      12.7664  -1.5949  23.7538   C.3       1 RES1   0.0000
     2 C2      12.5936  -0.4065  24.6608   C.2       1 RES1   0.0000
     3 N3      12.5702   0.8221  24.1026   N.2       1 RES1   0.0000
     4 C4      12.4083   1.9303  24.8571   C.2       1 RES1   0.0000
     5 N5      12.3665   3.1654  24.2787   N.2       1 RES1   0.0000
     6 C6      12.4776   3.4130  22.9387   C.2       1 RES1   0.0000
     7 N7      12.4237   4.6726  22.4643   N.2       1 RES1   0.0000
     8 C8      12.5908   4.7624  21.1172   C.2       1 RES1   0.0000
     9 C9      12.8292   3.5289  20.4955   C.2       1 RES1   0.0000
    10 C10     13.0415   3.1590  19.0714   C.2       1 RES1   0.0000
    11 O11     13.1952   1.9896  18.7861   O.2       1 RES1   0.0000
    12 N12     13.0420   4.1270  18.1500   N.am      1 RES1   0.0000
    13 C13     13.2240   3.8270  16.7860   C.2       1 RES1   0.0000
    14 C14     14.4900   3.7930  16.2040   C.2       1 RES1   0.0000
    15 C15     15.7200   4.0740  17.0300   C.3       1 RES1   0.0000
    16 C16     14.6170   3.5190  14.8460   C.2       1 RES1   0.0000
    17 C17     13.4940   3.2730  14.0610   C.2       1 RES1   0.0000
    18 C18     12.2310   3.3030  14.6430   C.2       1 RES1   0.0000
    19 C19     12.1070   3.5850  16.0010   C.2       1 RES1   0.0000
    20 Cl20    10.4800   3.6230  16.7500   Cl        1 RES1   0.0000
    21 S21     12.8164   2.2022  21.6778   S.3       1 RES1   0.0000
    22 C22     12.3111   1.7872  26.2492   C.2       1 RES1   0.0000
    23 C23     12.3639   0.4987  26.8199   C.2       1 RES1   0.0000
    24 N24     12.2529   0.3396  28.2160   N.3       1 RES1   0.0000
    25 C25     11.8918   1.6084  28.8743   C.3       1 RES1   0.0000
    26 C26     11.7486   1.4360  30.3654   C.3       1 RES1   0.0000
    27 N27     13.0507   0.9534  30.9196   N.3       1 RES1   1.0000
    28 C28     13.0610   0.9202  32.4025   C.3       1 RES1   0.0000
    29 C29     12.9881   2.3313  33.0299   C.3       1 RES1   0.0000
    30 O30     14.0341   3.2262  32.5558   O.3       1 RES1   0.0000
    31 C31     13.3497  -0.3715  30.2988   C.3       1 RES1   0.0000
    32 C32     13.4820  -0.2082  28.8029   C.3       1 RES1   0.0000
    33 N33     12.5055  -0.5732  26.0081   N.2       1 RES1   0.0000
@<TRIPOS>BOND
     1     1     2    1
     2     2     3    2
     3     3     4    1
     4     4     5    1
     5     5     6    1
     6     6     7    2
     7     7     8    1
     8     8     9    2
     9     9    10    1
    10    10    11    2
    11    10    12   am
    12    12    13    1
    13    13    14    2
    14    14    15    1
    15    14    16    1
    16    16    17    2
    17    17    18    1
    18    18    19    2
    19    19    20    1
    20     9    21    1
    21     4    22    2
    22    22    23    1
    23    23    24    1
    24    24    25    1
    25    25    26    1
    26    26    27    1
    27    27    28    1
    28    28    29    1
    29    29    30    1
    30    27    31    1
    31    31    32    1
    32    23    33    2
    33    33     2    1
    34    21     6    1
    35    32    24    1
    36    19    13    1
@<TRIPOS>SUBSTRUCTURE
     1 RES1        1 GROUP             0 ****  ****    0  
@<TRIPOS>MOLECULE
ligand_60
    33    36     1     0     0
SMALL
USER_CHARGES
****
Generated from the CSD

@<TRIPOS>ATOM
     1 C1      12.2208  11.6569  20.7663   C.3       1 RES1   0.0000
     2 C2      12.0953  10.9601  22.0943   C.2       1 RES1   0.0000
     3 N3      12.1901   9.6139  22.1182   N.2       1 RES1   0.0000
     4 C4      12.0967   8.9265  23.2767   C.2       1 RES1   0.0000
     5 N5      12.2139   7.5671  23.2902   N.2       1 RES1   0.0000
     6 C6      12.4282   6.7830  22.1909   C.2       1 RES1   0.0000
     7 N7      12.5297   5.4450  22.3086   N.2       1 RES1   0.0000
     8 C8      12.7005   4.7983  21.1239   C.2       1 RES1   0.0000
     9 C9      12.6936   5.6502  20.0109   C.2       1 RES1   0.0000
    10 C10     12.8652   5.3873  18.5578   C.2       1 RES1   0.0000
    11 O11     12.8523   6.3244  17.7869   O.2       1 RES1   0.0000
    12 N12     13.0420   4.1270  18.1500   N.am      1 RES1   0.0000
    13 C13     13.2240   3.8270  16.7860   C.2       1 RES1   0.0000
    14 C14     14.4900   3.7930  16.2040   C.2       1 RES1   0.0000
    15 C15     15.7200   4.0740  17.0300   C.3       1 RES1   0.0000
    16 C16     14.6170   3.5190  14.8460   C.2       1 RES1   0.0000
    17 C17     13.4940   3.2730  14.0610   C.2       1 RES1   0.0000
    18 C18     12.2310   3.3030  14.6430   C.2       1 RES1   0.0000
    19 C19     12.1070   3.5850  16.0010   C.2       1 RES1   0.0000
    20 Cl20    10.4800   3.6230  16.7500   Cl        1 RES1   0.0000
    21 S21     12.4830   7.3450  20.5022   S.3       1 RES1   0.0000
    22 C22     11.8501   9.6363  24.4613   C.2       1 RES1   0.0000
    23 C23     11.7271  11.0405  24.4164   C.2       1 RES1   0.0000
    24 N24     11.4938  11.7672  25.6013   N.3       1 RES1   0.0000
    25 C25     11.6343  13.2178  25.3783   C.3       1 RES1   0.0000
    26 C26     11.3615  13.9994  26.6386   C.3       1 RES1   0.0000
    27 N27     12.3363  13.5717  27.6886   N.3       1 RES1   1.0000
    28 C28     12.2600  14.4083  28.9111   C.3       1 RES1   0.0000
    29 C29     12.7225  15.8631  28.6664   C.3       1 RES1   0.0000
    30 O30     14.0596  15.9535  28.0975   O.3       1 RES1   0.0000
    31 C31     12.1148  12.1190  27.9544   C.3       1 RES1   0.0000
    32 C32     12.3742  11.3309  26.6921   C.3       1 RES1   0.0000
    33 N33     11.8525  11.6723  23.2277   N.2       1 RES1   0.0000
@<TRIPOS>BOND
     1     1     2    1
     2     2     3    2
     3     3     4    1
     4     4     5    1
     5     5     6    1
     6     6     7    2
     7     7     8    1
     8     8     9    2
     9     9    10    1
    10    10    11    2
    11    10    12   am
    12    12    13    1
    13    13    14    2
    14    14    15    1
    15    14    16    1
    16    16    17    2
    17    17    18    1
    18    18    19    2
    19    19    20    1
    20     9    21    1
    21     4    22    2
    22    22    23    1
    23    23    24    1
    24    24    25    1
    25    25    26    1
    26    26    27    1
    27    27    28    1
    28    28    29    1
    29    29    30    1
    30    27    31    1
    31    31    32    1
    32    23    33    2
    33    33     2    1
    34    21     6    1
    35    32    24    1
    36    19    13    1
@<TRIPOS>SUBSTRUCTURE
     1 RES1        1 GROUP             0 ****  ****    0  
@<TRIPOS>MOLECULE
ligand_61
    33    36     1     0     0
SMALL
USER_CHARGES
****
Generated from the CSD

@<TRIPOS>ATOM
     1 C1      12.2208  11.6569  20.7663   C.3       1 RES1   0.0000
     2 C2      12.0953  10.9601  22.0943   C.2       1 RES1   0.0000
     3 N3      12.1901   9.6139  22.1182   N.2       1 RES1   0.0000
     4 C4      12.0967   8.9265  23.2767   C.2       1 RES1   0.0000
     5 N5      12.2139   7.5671  23.2902   N.2       1 RES1   0.0000
     6 C6      12.4282   6.7830  22.1909   C.2       1 RES1   0.0000
     7 N7      12.5297   5.4450  22.3086   N.2       1 RES1   0.0000
     8 C8      12.7005   4.7983  21.1239   C.2       1 RES1   0.0000
     9 C9      12.6936   5.6502  20.0109   C.2       1 RES1   0.0000
    10 C10     12.8652   5.3873  18.5578   C.2       1 RES1   0.0000
    11 O11     12.8523   6.3244  17.7869   O.2       1 RES1   0.0000
    12 N12     13.0420   4.1270  18.1500   N.am      1 RES1   0.0000
    13 C13     13.2240   3.8270  16.7860   C.2       1 RES1   0.0000
    14 C14     14.4900   3.7930  16.2040   C.2       1 RES1   0.0000
    15 C15     15.7200   4.0740  17.0300   C.3       1 RES1   0.0000
    16 C16     14.6170   3.5190  14.8460   C.2       1 RES1   0.0000
    17 C17     13.4940   3.2730  14.0610   C.2       1 RES1   0.0000
    18 C18     12.2310   3.3030  14.6430   C.2       1 RES1   0.0000
    19 C19     12.1070   3.5850  16.0010   C.2       1 RES1   0.0000
    20 Cl20    10.4800   3.6230  16.7500   Cl        1 RES1   0.0000
    21 S21     12.4830   7.3450  20.5022   S.3       1 RES1   0.0000
    22 C22     11.8501   9.6363  24.4613   C.2       1 RES1   0.0000
    23 C23     11.7271  11.0405  24.4164   C.2       1 RES1   0.0000
    24 N24     11.4938  11.7672  25.6013   N.3       1 RES1   0.0000
    25 C25     11.6082  10.9050  26.7917   C.3       1 RES1   0.0000
    26 C26     11.3829  11.6849  28.0625   C.3       1 RES1   0.0000
    27 N27     10.0121  12.2806  28.0228   N.3       1 RES1   1.0000
    28 C28      9.6328  12.9221  29.3054   C.3       1 RES1   0.0000
    29 C29      9.4686  11.9018  30.4553   C.3       1 RES1   0.0000
    30 O30      8.5269  10.8349  30.1475   O.3       1 RES1   0.0000
    31 C31      9.9514  13.2127  26.8576   C.3       1 RES1   0.0000
    32 C32     10.1890  12.4398  25.5817   C.3       1 RES1   0.0000
    33 N33     11.8525  11.6723  23.2277   N.2       1 RES1   0.0000
@<TRIPOS>BOND
     1     1     2    1
     2     2     3    2
     3     3     4    1
     4     4     5    1
     5     5     6    1
     6     6     7    2
     7     7     8    1
     8     8     9    2
     9     9    10    1
    10    10    11    2
    11    10    12   am
    12    12    13    1
    13    13    14    2
    14    14    15    1
    15    14    16    1
    16    16    17    2
    17    17    18    1
    18    18    19    2
    19    19    20    1
    20     9    21    1
    21     4    22    2
    22    22    23    1
    23    23    24    1
    24    24    25    1
    25    25    26    1
    26    26    27    1
    27    27    28    1
    28    28    29    1
    29    29    30    1
    30    27    31    1
    31    31    32    1
    32    23    33    2
    33    33     2    1
    34    21     6    1
    35    32    24    1
    36    19    13    1
@<TRIPOS>SUBSTRUCTURE
     1 RES1        1 GROUP             0 ****  ****    0  
@<TRIPOS>MOLECULE
ligand_62
    33    36     1     0     0
SMALL
USER_CHARGES
****
Generated from the CSD

@<TRIPOS>ATOM
     1 C1      12.7664  -1.5949  23.7538   C.3       1 RES1   0.0000
     2 C2      12.5936  -0.4065  24.6608   C.2       1 RES1   0.0000
     3 N3      12.5702   0.8221  24.1026   N.2       1 RES1   0.0000
     4 C4      12.4083   1.9303  24.8571   C.2       1 RES1   0.0000
     5 N5      12.3665   3.1654  24.2787   N.2       1 RES1   0.0000
     6 C6      12.4776   3.4130  22.9387   C.2       1 RES1   0.0000
     7 N7      12.4237   4.6726  22.4643   N.2       1 RES1   0.0000
     8 C8      12.5908   4.7624  21.1172   C.2       1 RES1   0.0000
     9 C9      12.8292   3.5289  20.4955   C.2       1 RES1   0.0000
    10 C10     13.0415   3.1590  19.0714   C.2       1 RES1   0.0000
    11 O11     13.1952   1.9896  18.7861   O.2       1 RES1   0.0000
    12 N12     13.0420   4.1270  18.1500   N.am      1 RES1   0.0000
    13 C13     13.2240   3.8270  16.7860   C.2       1 RES1   0.0000
    14 C14     14.4900   3.7930  16.2040   C.2       1 RES1   0.0000
    15 C15     15.7200   4.0740  17.0300   C.3       1 RES1   0.0000
    16 C16     14.6170   3.5190  14.8460   C.2       1 RES1   0.0000
    17 C17     13.4940   3.2730  14.0610   C.2       1 RES1   0.0000
    18 C18     12.2310   3.3030  14.6430   C.2       1 RES1   0.0000
    19 C19     12.1070   3.5850  16.0010   C.2       1 RES1   0.0000
    20 Cl20    10.4800   3.6230  16.7500   Cl        1 RES1   0.0000
    21 S21     12.8164   2.2022  21.6778   S.3       1 RES1   0.0000
    22 C22     12.3111   1.7872  26.2492   C.2       1 RES1   0.0000
    23 C23     12.3639   0.4987  26.8199   C.2       1 RES1   0.0000
    24 N24     12.2529   0.3396  28.2160   N.3       1 RES1   0.0000
    25 C25     12.0943  -1.0793  28.5841   C.3       1 RES1   0.0000
    26 C26     11.9994  -1.2549  30.0787   C.3       1 RES1   0.0000
    27 N27     10.8172  -0.4876  30.5777   N.3       1 RES1   1.0000
    28 C28     10.5390  -0.7398  32.0127   C.3       1 RES1   0.0000
    29 C29     11.5773  -0.0755  32.9458   C.3       1 RES1   0.0000
    30 O30     12.9385  -0.5363  32.7122   O.3       1 RES1   0.0000
    31 C31     11.0434   0.9554  30.2665   C.3       1 RES1   0.0000
    32 C32     11.1521   1.1369  28.7708   C.3       1 RES1   0.0000
    33 N33     12.5055  -0.5732  26.0081   N.2       1 RES1   0.0000
@<TRIPOS>BOND
     1     1     2    1
     2     2     3    2
     3     3     4    1
     4     4     5    1
     5     5     6    1
     6     6     7    2
     7     7     8    1
     8     8     9    2
     9     9    10    1
    10    10    11    2
    11    10    12   am
    12    12    13    1
    13    13    14    2
    14    14    15    1
    15    14    16    1
    16    16    17    2
    17    17    18    1
    18    18    19    2
    19    19    20    1
    20     9    21    1
    21     4    22    2
    22    22    23    1
    23    23    24    1
    24    24    25    1
    25    25    26    1
    26    26    27    1
    27    27    28    1
    28    28    29    1
    29    29    30    1
    30    27    31    1
    31    31    32    1
    32    23    33    2
    33    33     2    1
    34    21     6    1
    35    32    24    1
    36    19    13    1
@<TRIPOS>SUBSTRUCTURE
     1 RES1        1 GROUP             0 ****  ****    0  
@<TRIPOS>MOLECULE
ligand_63
    33    36     1     0     0
SMALL
USER_CHARGES
****
Generated from the CSD

@<TRIPOS>ATOM
     1 C1      12.7664  -1.5949  23.7538   C.3       1 RES1   0.0000
     2 C2      12.5936  -0.4065  24.6608   C.2       1 RES1   0.0000
     3 N3      12.5702   0.8221  24.1026   N.2       1 RES1   0.0000
     4 C4      12.4083   1.9303  24.8571   C.2       1 RES1   0.0000
     5 N5      12.3665   3.1654  24.2787   N.2       1 RES1   0.0000
     6 C6      12.4776   3.4130  22.9387   C.2       1 RES1   0.0000
     7 N7      12.4237   4.6726  22.4643   N.2       1 RES1   0.0000
     8 C8      12.5908   4.7624  21.1172   C.2       1 RES1   0.0000
     9 C9      12.8292   3.5289  20.4955   C.2       1 RES1   0.0000
    10 C10     13.0415   3.1590  19.0714   C.2       1 RES1   0.0000
    11 O11     13.1952   1.9896  18.7861   O.2       1 RES1   0.0000
    12 N12     13.0420   4.1270  18.1500   N.am      1 RES1   0.0000
    13 C13     13.2240   3.8270  16.7860   C.2       1 RES1   0.0000
    14 C14     14.4900   3.7930  16.2040   C.2       1 RES1   0.0000
    15 C15     15.7200   4.0740  17.0300   C.3       1 RES1   0.0000
    16 C16     14.6170   3.5190  14.8460   C.2       1 RES1   0.0000
    17 C17     13.4940   3.2730  14.0610   C.2       1 RES1   0.0000
    18 C18     12.2310   3.3030  14.6430   C.2       1 RES1   0.0000
    19 C19     12.1070   3.5850  16.0010   C.2       1 RES1   0.0000
    20 Cl20    10.4800   3.6230  16.7500   Cl        1 RES1   0.0000
    21 S21     12.8164   2.2022  21.6778   S.3       1 RES1   0.0000
    22 C22     12.3111   1.7872  26.2492   C.2       1 RES1   0.0000
    23 C23     12.3639   0.4987  26.8199   C.2       1 RES1   0.0000
    24 N24     12.2529   0.3396  28.2160   N.3       1 RES1   0.0000
    25 C25     11.8925   1.6086  28.8743   C.3       1 RES1   0.0000
    26 C26     11.7492   1.4361  30.3655   C.3       1 RES1   0.0000
    27 N27     13.0512   0.9529  30.9196   N.3       1 RES1   1.0000
    28 C28     13.0616   0.9196  32.4025   C.3       1 RES1   0.0000
    29 C29     12.1989  -0.2270  32.9780   C.3       1 RES1   0.0000
    30 O30     10.7990  -0.1458  32.5861   O.3       1 RES1   0.0000
    31 C31     13.3494  -0.3721  30.2987   C.3       1 RES1   0.0000
    32 C32     13.4817  -0.2088  28.8028   C.3       1 RES1   0.0000
    33 N33     12.5055  -0.5732  26.0081   N.2       1 RES1   0.0000
@<TRIPOS>BOND
     1     1     2    1
     2     2     3    2
     3     3     4    1
     4     4     5    1
     5     5     6    1
     6     6     7    2
     7     7     8    1
     8     8     9    2
     9     9    10    1
    10    10    11    2
    11    10    12   am
    12    12    13    1
    13    13    14    2
    14    14    15    1
    15    14    16    1
    16    16    17    2
    17    17    18    1
    18    18    19    2
    19    19    20    1
    20     9    21    1
    21     4    22    2
    22    22    23    1
    23    23    24    1
    24    24    25    1
    25    25    26    1
    26    26    27    1
    27    27    28    1
    28    28    29    1
    29    29    30    1
    30    27    31    1
    31    31    32    1
    32    23    33    2
    33    33     2    1
    34    21     6    1
    35    32    24    1
    36    19    13    1
@<TRIPOS>SUBSTRUCTURE
     1 RES1        1 GROUP             0 ****  ****    0  
@<TRIPOS>MOLECULE
ligand_64
    33    36     1     0     0
SMALL
USER_CHARGES
****
Generated from the CSD

@<TRIPOS>ATOM
     1 C1      12.2208  11.6569  20.7663   C.3       1 RES1   0.0000
     2 C2      12.0953  10.9601  22.0943   C.2       1 RES1   0.0000
     3 N3      12.1901   9.6139  22.1182   N.2       1 RES1   0.0000
     4 C4      12.0967   8.9265  23.2767   C.2       1 RES1   0.0000
     5 N5      12.2139   7.5671  23.2902   N.2       1 RES1   0.0000
     6 C6      12.4282   6.7830  22.1909   C.2       1 RES1   0.0000
     7 N7      12.5297   5.4450  22.3086   N.2       1 RES1   0.0000
     8 C8      12.7005   4.7983  21.1239   C.2       1 RES1   0.0000
     9 C9      12.6936   5.6502  20.0109   C.2       1 RES1   0.0000
    10 C10     12.8652   5.3873  18.5578   C.2       1 RES1   0.0000
    11 O11     12.8523   6.3244  17.7869   O.2       1 RES1   0.0000
    12 N12     13.0420   4.1270  18.1500   N.am      1 RES1   0.0000
    13 C13     13.2240   3.8270  16.7860   C.2       1 RES1   0.0000
    14 C14     14.4900   3.7930  16.2040   C.2       1 RES1   0.0000
    15 C15     15.7200   4.0740  17.0300   C.3       1 RES1   0.0000
    16 C16     14.6170   3.5190  14.8460   C.2       1 RES1   0.0000
    17 C17     13.4940   3.2730  14.0610   C.2       1 RES1   0.0000
    18 C18     12.2310   3.3030  14.6430   C.2       1 RES1   0.0000
    19 C19     12.1070   3.5850  16.0010   C.2       1 RES1   0.0000
    20 Cl20    10.4800   3.6230  16.7500   Cl        1 RES1   0.0000
    21 S21     12.4830   7.3450  20.5022   S.3       1 RES1   0.0000
    22 C22     11.8501   9.6363  24.4613   C.2       1 RES1   0.0000
    23 C23     11.7271  11.0405  24.4164   C.2       1 RES1   0.0000
    24 N24     11.4938  11.7672  25.6013   N.3       1 RES1   0.0000
    25 C25     11.6330  13.2179  25.3780   C.3       1 RES1   0.0000
    26 C26     11.3603  13.9995  26.6384   C.3       1 RES1   0.0000
    27 N27     12.3359  13.5727  27.6879   N.3       1 RES1   1.0000
    28 C28     12.2595  14.4094  28.9103   C.3       1 RES1   0.0000
    29 C29     10.9858  14.1332  29.7418   C.3       1 RES1   0.0000
    30 O30      9.7539  14.3809  29.0063   O.3       1 RES1   0.0000
    31 C31     12.1157  12.1198  27.9541   C.3       1 RES1   0.0000
    32 C32     12.3750  11.3317  26.6917   C.3       1 RES1   0.0000
    33 N33     11.8525  11.6723  23.2277   N.2       1 RES1   0.0000
@<TRIPOS>BOND
     1     1     2    1
     2     2     3    2
     3     3     4    1
     4     4     5    1
     5     5     6    1
     6     6     7    2
     7     7     8    1
     8     8     9    2
     9     9    10    1
    10    10    11    2
    11    10    12   am
    12    12    13    1
    13    13    14    2
    14    14    15    1
    15    14    16    1
    16    16    17    2
    17    17    18    1
    18    18    19    2
    19    19    20    1
    20     9    21    1
    21     4    22    2
    22    22    23    1
    23    23    24    1
    24    24    25    1
    25    25    26    1
    26    26    27    1
    27    27    28    1
    28    28    29    1
    29    29    30    1
    30    27    31    1
    31    31    32    1
    32    23    33    2
    33    33     2    1
    34    21     6    1
    35    32    24    1
    36    19    13    1
@<TRIPOS>SUBSTRUCTURE
     1 RES1        1 GROUP             0 ****  ****    0  
@<TRIPOS>MOLECULE
ligand_65
    33    36     1     0     0
SMALL
USER_CHARGES
****
Generated from the CSD

@<TRIPOS>ATOM
     1 C1      12.2208  11.6569  20.7663   C.3       1 RES1   0.0000
     2 C2      12.0953  10.9601  22.0943   C.2       1 RES1   0.0000
     3 N3      12.1901   9.6139  22.1182   N.2       1 RES1   0.0000
     4 C4      12.0967   8.9265  23.2767   C.2       1 RES1   0.0000
     5 N5      12.2139   7.5671  23.2902   N.2       1 RES1   0.0000
     6 C6      12.4282   6.7830  22.1909   C.2       1 RES1   0.0000
     7 N7      12.5297   5.4450  22.3086   N.2       1 RES1   0.0000
     8 C8      12.7005   4.7983  21.1239   C.2       1 RES1   0.0000
     9 C9      12.6936   5.6502  20.0109   C.2       1 RES1   0.0000
    10 C10     12.8652   5.3873  18.5578   C.2       1 RES1   0.0000
    11 O11     12.8523   6.3244  17.7869   O.2       1 RES1   0.0000
    12 N12     13.0420   4.1270  18.1500   N.am      1 RES1   0.0000
    13 C13     13.2240   3.8270  16.7860   C.2       1 RES1   0.0000
    14 C14     14.4900   3.7930  16.2040   C.2       1 RES1   0.0000
    15 C15     15.7200   4.0740  17.0300   C.3       1 RES1   0.0000
    16 C16     14.6170   3.5190  14.8460   C.2       1 RES1   0.0000
    17 C17     13.4940   3.2730  14.0610   C.2       1 RES1   0.0000
    18 C18     12.2310   3.3030  14.6430   C.2       1 RES1   0.0000
    19 C19     12.1070   3.5850  16.0010   C.2       1 RES1   0.0000
    20 Cl20    10.4800   3.6230  16.7500   Cl        1 RES1   0.0000
    21 S21     12.4830   7.3450  20.5022   S.3       1 RES1   0.0000
    22 C22     11.8501   9.6363  24.4613   C.2       1 RES1   0.0000
    23 C23     11.7271  11.0405  24.4164   C.2       1 RES1   0.0000
    24 N24     11.4938  11.7672  25.6013   N.3       1 RES1   0.0000
    25 C25     11.6075  10.9048  26.7917   C.3       1 RES1   0.0000
    26 C26     11.3822  11.6847  28.0624   C.3       1 RES1   0.0000
    27 N27     10.0117  12.2810  28.0225   N.3       1 RES1   1.0000
    28 C28      9.6323  12.9225  29.3050   C.3       1 RES1   0.0000
    29 C29     10.3852  14.2500  29.5519   C.3       1 RES1   0.0000
    30 O30     11.8320  14.0916  29.5926   O.3       1 RES1   0.0000
    31 C31      9.9517  13.2133  26.8574   C.3       1 RES1   0.0000
    32 C32     10.1893  12.4403  25.5814   C.3       1 RES1   0.0000
    33 N33     11.8525  11.6723  23.2277   N.2       1 RES1   0.0000
@<TRIPOS>BOND
     1     1     2    1
     2     2     3    2
     3     3     4    1
     4     4     5    1
     5     5     6    1
     6     6     7    2
     7     7     8    1
     8     8     9    2
     9     9    10    1
    10    10    11    2
    11    10    12   am
    12    12    13    1
    13    13    14    2
    14    14    15    1
    15    14    16    1
    16    16    17    2
    17    17    18    1
    18    18    19    2
    19    19    20    1
    20     9    21    1
    21     4    22    2
    22    22    23    1
    23    23    24    1
    24    24    25    1
    25    25    26    1
    26    26    27    1
    27    27    28    1
    28    28    29    1
    29    29    30    1
    30    27    31    1
    31    31    32    1
    32    23    33    2
    33    33     2    1
    34    21     6    1
    35    32    24    1
    36    19    13    1
@<TRIPOS>SUBSTRUCTURE
     1 RES1        1 GROUP             0 ****  ****    0  
@<TRIPOS>MOLECULE
ligand_66
    33    36     1     0     0
SMALL
USER_CHARGES
****
Generated from the CSD

@<TRIPOS>ATOM
     1 C1      10.4734   4.4482  25.9819   C.3       1 RES1   0.0000
     2 C2      11.4579   5.5865  25.9732   C.2       1 RES1   0.0000
     3 N3      12.1018   5.8622  24.8195   N.2       1 RES1   0.0000
     4 C4      12.9902   6.8760  24.7393   C.2       1 RES1   0.0000
     5 N5      13.6200   7.1574  23.5620   N.2       1 RES1   0.0000
     6 C6      13.4353   6.4819  22.3877   C.2       1 RES1   0.0000
     7 N7      12.5777   5.4455  22.3170   N.2       1 RES1   0.0000
     8 C8      12.4705   4.9019  21.0746   C.2       1 RES1   0.0000
     9 C9      13.2421   5.5566  20.1046   C.2       1 RES1   0.0000
    10 C10     13.4438   5.2973  18.6548   C.2       1 RES1   0.0000
    11 O11     13.9780   6.1494  17.9756   O.2       1 RES1   0.0000
    12 N12     13.0420   4.1270  18.1500   N.am      1 RES1   0.0000
    13 C13     13.2375   3.8210  16.7892   C.2       1 RES1   0.0000
    14 C14     14.5123   3.7214  16.2346   C.2       1 RES1   0.0000
    15 C15     15.7372   3.9349  17.0879   C.3       1 RES1   0.0000
    16 C16     14.6542   3.4442  14.8787   C.2       1 RES1   0.0000
    17 C17     13.5371   3.2598  14.0688   C.2       1 RES1   0.0000
    18 C18     12.2651   3.3553  14.6235   C.2       1 RES1   0.0000
    19 C19     12.1266   3.6403  15.9794   C.2       1 RES1   0.0000
    20 Cl20    10.4880   3.7626  16.6932   Cl        1 RES1   0.0000
    21 S21     14.1561   6.9047  20.8155   S.3       1 RES1   0.0000
    22 C22     13.2719   7.6160  25.8974   C.2       1 RES1   0.0000
    23 C23     12.6106   7.2986  27.1019   C.2       1 RES1   0.0000
    24 N24     12.8734   8.0434  28.2693   N.3       1 RES1   0.0000
    25 C25     14.1589   8.7589  28.1720   C.3       1 RES1   0.0000
    26 C26     14.4314   9.5758  29.4098   C.3       1 RES1   0.0000
    27 N27     14.4728   8.6589  30.5901   N.3       1 RES1   1.0000
    28 C28     14.9076   9.3466  31.8303   C.3       1 RES1   0.0000
    29 C29     14.9591   8.3979  33.0500   C.3       1 RES1   0.0000
    30 O30     15.7886   7.2219  32.8291   O.3       1 RES1   0.0000
    31 C31     13.1326   8.0118  30.7144   C.3       1 RES1   0.0000
    32 C32     12.8475   7.2016  29.4717   C.3       1 RES1   0.0000
    33 N33     11.7152   6.2856  27.1115   N.2       1 RES1   0.0000
@<TRIPOS>BOND
     1     1     2    1
     2     2     3    2
     3     3     4    1
     4     4     5    1
     5     5     6    1
     6     6     7    2
     7     7     8    1
     8     8     9    2
     9     9    10    1
    10    10    11    2
    11    10    12   am
    12    12    13    1
    13    13    14    2
    14    14    15    1
    15    14    16    1
    16    16    17    2
    17    17    18    1
    18    18    19    2
    19    19    20    1
    20     9    21    1
    21     4    22    2
    22    22    23    1
    23    23    24    1
    24    24    25    1
    25    25    26    1
    26    26    27    1
    27    27    28    1
    28    28    29    1
    29    29    30    1
    30    27    31    1
    31    31    32    1
    32    23    33    2
    33    33     2    1
    34    21     6    1
    35    32    24    1
    36    19    13    1
@<TRIPOS>SUBSTRUCTURE
     1 RES1        1 GROUP             0 ****  ****    0  
@<TRIPOS>MOLECULE
ligand_67
    33    36     1     0     0
SMALL
USER_CHARGES
****
Generated from the CSD

@<TRIPOS>ATOM
     1 C1      13.5468   7.2076  25.7851   C.3       1 RES1   0.0000
     2 C2      12.5347   6.1149  26.0007   C.2       1 RES1   0.0000
     3 N3      12.1860   5.3527  24.9428   N.2       1 RES1   0.0000
     4 C4      11.2914   4.3489  25.0685   C.2       1 RES1   0.0000
     5 N5      10.9619   3.5727  23.9958   N.2       1 RES1   0.0000
     6 C6      11.4715   3.7125  22.7348   C.2       1 RES1   0.0000
     7 N7      12.3752   4.6729  22.4599   N.2       1 RES1   0.0000
     8 C8      12.8197   4.6605  21.1743   C.2       1 RES1   0.0000
     9 C9      12.2807   3.6225  20.4017   C.2       1 RES1   0.0000
    10 C10     12.4628   3.2490  18.9744   C.2       1 RES1   0.0000
    11 O11     12.0695   2.1647  18.5973   O.2       1 RES1   0.0000
    12 N12     13.0420   4.1270  18.1500   N.am      1 RES1   0.0000
    13 C13     13.2044   3.8358  16.7816   C.2       1 RES1   0.0000
    14 C14     14.4657   3.7045  16.2033   C.2       1 RES1   0.0000
    15 C15     15.7112   3.8661  17.0381   C.3       1 RES1   0.0000
    16 C16     14.5755   3.4437  14.8412   C.2       1 RES1   0.0000
    17 C17     13.4395   3.3072  14.0484   C.2       1 RES1   0.0000
    18 C18     12.1808   3.4343  14.6266   C.2       1 RES1   0.0000
    19 C19     12.0747   3.7027  15.9889   C.2       1 RES1   0.0000
    20 Cl20    10.4532   3.8658  16.7330   Cl        1 RES1   0.0000
    21 S21     11.1450   2.6397  21.3517   S.3       1 RES1   0.0000
    22 C22     10.6886   4.1384  26.3175   C.2       1 RES1   0.0000
    23 C23     11.0438   4.9603  27.4071   C.2       1 RES1   0.0000
    24 N24     10.4565   4.7503  28.6711   N.3       1 RES1   0.0000
    25 C25      9.2004   3.9863  28.5596   C.3       1 RES1   0.0000
    26 C26      8.5822   3.7392  29.9126   C.3       1 RES1   0.0000
    27 N27      8.2946   5.0576  30.5564   N.3       1 RES1   1.0000
    28 C28      7.5259   4.9198  31.8175   C.3       1 RES1   0.0000
    29 C29      7.2208   6.2827  32.4804   C.3       1 RES1   0.0000
    30 O30      6.5378   7.2136  31.5934   O.3       1 RES1   0.0000
    31 C31      9.5931   5.7737  30.7336   C.3       1 RES1   0.0000
    32 C32     10.2243   6.0134  29.3822   C.3       1 RES1   0.0000
    33 N33     11.9626   5.9347  27.2218   N.2       1 RES1   0.0000
@<TRIPOS>BOND
     1     1     2    1
     2     2     3    2
     3     3     4    1
     4     4     5    1
     5     5     6    1
     6     6     7    2
     7     7     8    1
     8     8     9    2
     9     9    10    1
    10    10    11    2
    11    10    12   am
    12    12    13    1
    13    13    14    2
    14    14    15    1
    15    14    16    1
    16    16    17    2
    17    17    18    1
    18    18    19    2
    19    19    20    1
    20     9    21    1
    21     4    22    2
    22    22    23    1
    23    23    24    1
    24    24    25    1
    25    25    26    1
    26    26    27    1
    27    27    28    1
    28    28    29    1
    29    29    30    1
    30    27    31    1
    31    31    32    1
    32    23    33    2
    33    33     2    1
    34    21     6    1
    35    32    24    1
    36    19    13    1
@<TRIPOS>SUBSTRUCTURE
     1 RES1        1 GROUP             0 ****  ****    0  
@<TRIPOS>MOLECULE
ligand_68
    33    36     1     0     0
SMALL
USER_CHARGES
****
Generated from the CSD

@<TRIPOS>ATOM
     1 C1      11.9153   7.8118  25.4208   C.3       1 RES1   0.0000
     2 C2      11.9762   6.3743  25.8622   C.2       1 RES1   0.0000
     3 N3      12.1245   5.4236  24.9156   N.2       1 RES1   0.0000
     4 C4      12.1966   4.1156  25.2432   C.2       1 RES1   0.0000
     5 N5      12.3665   3.1654  24.2787   N.2       1 RES1   0.0000
     6 C6      12.4776   3.4130  22.9387   C.2       1 RES1   0.0000
     7 N7      12.4237   4.6726  22.4643   N.2       1 RES1   0.0000
     8 C8      12.5908   4.7624  21.1172   C.2       1 RES1   0.0000
     9 C9      12.8292   3.5289  20.4955   C.2       1 RES1   0.0000
    10 C10     13.0415   3.1590  19.0714   C.2       1 RES1   0.0000
    11 O11     13.1952   1.9896  18.7861   O.2       1 RES1   0.0000
    12 N12     13.0420   4.1270  18.1500   N.am      1 RES1   0.0000
    13 C13     13.2240   3.8270  16.7860   C.2       1 RES1   0.0000
    14 C14     14.4900   3.7930  16.2040   C.2       1 RES1   0.0000
    15 C15     15.7200   4.0740  17.0300   C.3       1 RES1   0.0000
    16 C16     14.6170   3.5190  14.8460   C.2       1 RES1   0.0000
    17 C17     13.4940   3.2730  14.0610   C.2       1 RES1   0.0000
    18 C18     12.2310   3.3030  14.6430   C.2       1 RES1   0.0000
    19 C19     12.1070   3.5850  16.0010   C.2       1 RES1   0.0000
    20 Cl20    10.4800   3.6230  16.7500   Cl        1 RES1   0.0000
    21 S21     12.8164   2.2022  21.6778   S.3       1 RES1   0.0000
    22 C22     12.0664   3.7523  26.5919   C.2       1 RES1   0.0000
    23 C23     11.8853   4.7554  27.5665   C.2       1 RES1   0.0000
    24 N24     11.7677   4.4054  28.9268   N.pl3     1 RES1   0.0000
    25 C25     11.8442   5.3904  30.0140   C.3       1 RES1   0.0000
    26 C26     10.4765   5.7978  30.4895   C.3       1 RES1   0.0000
    27 N27      9.6524   4.6175  30.8775   N.3       1 RES1   1.0000
    28 C28      8.3043   5.0309  31.3382   C.3       1 RES1   0.0000
    29 C29      7.4230   3.8302  31.7527   C.3       1 RES1   0.0000
    30 O30      8.0433   2.9825  32.7609   O.3       1 RES1   0.0000
    31 C31      9.5916   3.6340  29.7525   C.3       1 RES1   0.0000
    32 C32     10.9920   3.2529  29.3371   C.3       1 RES1   0.0000
    33 N33     11.8435   6.0493  27.1765   N.2       1 RES1   0.0000
@<TRIPOS>BOND
     1     1     2    1
     2     2     3    2
     3     3     4    1
     4     4     5    1
     5     5     6    1
     6     6     7    2
     7     7     8    1
     8     8     9    2
     9     9    10    1
    10    10    11    2
    11    10    12   am
    12    12    13    1
    13    13    14    2
    14    14    15    1
    15    14    16    1
    16    16    17    2
    17    17    18    1
    18    18    19    2
    19    19    20    1
    20     9    21    1
    21     4    22    2
    22    22    23    1
    23    23    24    1
    24    24    25    1
    25    25    26    1
    26    26    27    1
    27    27    28    1
    28    28    29    1
    29    29    30    1
    30    27    31    1
    31    31    32    1
    32    23    33    2
    33    33     2    1
    34    21     6    1
    35    32    24    1
    36    19    13    1
@<TRIPOS>SUBSTRUCTURE
     1 RES1        1 GROUP             0 ****  ****    0  
@<TRIPOS>MOLECULE
ligand_69
    33    36     1     0     0
SMALL
USER_CHARGES
****
Generated from the CSD

@<TRIPOS>ATOM
     1 C1      11.9153   7.8118  25.4208   C.3       1 RES1   0.0000
     2 C2      11.9762   6.3743  25.8622   C.2       1 RES1   0.0000
     3 N3      12.1245   5.4236  24.9156   N.2       1 RES1   0.0000
     4 C4      12.1966   4.1156  25.2432   C.2       1 RES1   0.0000
     5 N5      12.3665   3.1654  24.2787   N.2       1 RES1   0.0000
     6 C6      12.4776   3.4130  22.9387   C.2       1 RES1   0.0000
     7 N7      12.4237   4.6726  22.4643   N.2       1 RES1   0.0000
     8 C8      12.5908   4.7624  21.1172   C.2       1 RES1   0.0000
     9 C9      12.8292   3.5289  20.4955   C.2       1 RES1   0.0000
    10 C10     13.0415   3.1590  19.0714   C.2       1 RES1   0.0000
    11 O11     13.1952   1.9896  18.7861   O.2       1 RES1   0.0000
    12 N12     13.0420   4.1270  18.1500   N.am      1 RES1   0.0000
    13 C13     13.2240   3.8270  16.7860   C.2       1 RES1   0.0000
    14 C14     14.4900   3.7930  16.2040   C.2       1 RES1   0.0000
    15 C15     15.7200   4.0740  17.0300   C.3       1 RES1   0.0000
    16 C16     14.6170   3.5190  14.8460   C.2       1 RES1   0.0000
    17 C17     13.4940   3.2730  14.0610   C.2       1 RES1   0.0000
    18 C18     12.2310   3.3030  14.6430   C.2       1 RES1   0.0000
    19 C19     12.1070   3.5850  16.0010   C.2       1 RES1   0.0000
    20 Cl20    10.4800   3.6230  16.7500   Cl        1 RES1   0.0000
    21 S21     12.8164   2.2022  21.6778   S.3       1 RES1   0.0000
    22 C22     12.0664   3.7523  26.5919   C.2       1 RES1   0.0000
    23 C23     11.8853   4.7554  27.5665   C.2       1 RES1   0.0000
    24 N24     11.7677   4.4054  28.9268   N.pl3     1 RES1   0.0000
    25 C25     12.0376   3.0514  29.4288   C.3       1 RES1   0.0000
    26 C26     13.4211   2.9414  30.0090   C.3       1 RES1   0.0000
    27 N27     13.6634   3.9724  31.0584   N.3       1 RES1   1.0000
    28 C28     15.0323   3.8585  31.6183   C.3       1 RES1   0.0000
    29 C29     15.3166   4.9116  32.7138   C.3       1 RES1   0.0000
    30 O30     14.3442   4.8912  33.7973   O.3       1 RES1   0.0000
    31 C31     13.3820   5.3386  30.5190   C.3       1 RES1   0.0000
    32 C32     11.9760   5.3869  29.9714   C.3       1 RES1   0.0000
    33 N33     11.8435   6.0493  27.1765   N.2       1 RES1   0.0000
@<TRIPOS>BOND
     1     1     2    1
     2     2     3    2
     3     3     4    1
     4     4     5    1
     5     5     6    1
     6     6     7    2
     7     7     8    1
     8     8     9    2
     9     9    10    1
    10    10    11    2
    11    10    12   am
    12    12    13    1
    13    13    14    2
    14    14    15    1
    15    14    16    1
    16    16    17    2
    17    17    18    1
    18    18    19    2
    19    19    20    1
    20     9    21    1
    21     4    22    2
    22    22    23    1
    23    23    24    1
    24    24    25    1
    25    25    26    1
    26    26    27    1
    27    27    28    1
    28    28    29    1
    29    29    30    1
    30    27    31    1
    31    31    32    1
    32    23    33    2
    33    33     2    1
    34    21     6    1
    35    32    24    1
    36    19    13    1
@<TRIPOS>SUBSTRUCTURE
     1 RES1        1 GROUP             0 ****  ****    0  
@<TRIPOS>MOLECULE
ligand_70
    33    36     1     0     0
SMALL
USER_CHARGES
****
Generated from the CSD

@<TRIPOS>ATOM
     1 C1      12.1084   3.8384  26.3205   C.3       1 RES1   0.0000
     2 C2      12.0182   5.3242  26.0987   C.2       1 RES1   0.0000
     3 N3      12.1641   5.7899  24.8403   N.2       1 RES1   0.0000
     4 C4      12.0844   7.1104  24.5695   C.2       1 RES1   0.0000
     5 N5      12.2139   7.5671  23.2902   N.2       1 RES1   0.0000
     6 C6      12.4282   6.7830  22.1909   C.2       1 RES1   0.0000
     7 N7      12.5297   5.4450  22.3086   N.2       1 RES1   0.0000
     8 C8      12.7005   4.7983  21.1239   C.2       1 RES1   0.0000
     9 C9      12.6936   5.6502  20.0109   C.2       1 RES1   0.0000
    10 C10     12.8652   5.3873  18.5578   C.2       1 RES1   0.0000
    11 O11     12.8523   6.3244  17.7869   O.2       1 RES1   0.0000
    12 N12     13.0420   4.1270  18.1500   N.am      1 RES1   0.0000
    13 C13     13.2240   3.8270  16.7860   C.2       1 RES1   0.0000
    14 C14     14.4900   3.7930  16.2040   C.2       1 RES1   0.0000
    15 C15     15.7200   4.0740  17.0300   C.3       1 RES1   0.0000
    16 C16     14.6170   3.5190  14.8460   C.2       1 RES1   0.0000
    17 C17     13.4940   3.2730  14.0610   C.2       1 RES1   0.0000
    18 C18     12.2310   3.3030  14.6430   C.2       1 RES1   0.0000
    19 C19     12.1070   3.5850  16.0010   C.2       1 RES1   0.0000
    20 Cl20    10.4800   3.6230  16.7500   Cl        1 RES1   0.0000
    21 S21     12.4830   7.3450  20.5022   S.3       1 RES1   0.0000
    22 C22     11.8927   8.0043  25.6335   C.2       1 RES1   0.0000
    23 C23     11.7685   7.5043  26.9464   C.2       1 RES1   0.0000
    24 N24     11.5610   8.3903  28.0228   N.pl3     1 RES1   0.0000
    25 C25     11.1607   7.9390  29.3622   C.3       1 RES1   0.0000
    26 C26     12.3413   7.8401  30.2892   C.3       1 RES1   0.0000
    27 N27     13.1057   9.1187  30.3483   N.3       1 RES1   1.0000
    28 C28     14.2707   9.0071  31.2598   C.3       1 RES1   0.0000
    29 C29     15.0849  10.3184  31.3480   C.3       1 RES1   0.0000
    30 O30     14.2797  11.4710  31.7261   O.3       1 RES1   0.0000
    31 C31     13.5002   9.5521  28.9724   C.3       1 RES1   0.0000
    32 C32     12.2715   9.6502  28.1008   C.3       1 RES1   0.0000
    33 N33     11.8353   6.1693  27.1490   N.2       1 RES1   0.0000
@<TRIPOS>BOND
     1     1     2    1
     2     2     3    2
     3     3     4    1
     4     4     5    1
     5     5     6    1
     6     6     7    2
     7     7     8    1
     8     8     9    2
     9     9    10    1
    10    10    11    2
    11    10    12   am
    12    12    13    1
    13    13    14    2
    14    14    15    1
    15    14    16    1
    16    16    17    2
    17    17    18    1
    18    18    19    2
    19    19    20    1
    20     9    21    1
    21     4    22    2
    22    22    23    1
    23    23    24    1
    24    24    25    1
    25    25    26    1
    26    26    27    1
    27    27    28    1
    28    28    29    1
    29    29    30    1
    30    27    31    1
    31    31    32    1
    32    23    33    2
    33    33     2    1
    34    21     6    1
    35    32    24    1
    36    19    13    1
@<TRIPOS>SUBSTRUCTURE
     1 RES1        1 GROUP             0 ****  ****    0  
@<TRIPOS>MOLECULE
ligand_71
    33    36     1     0     0
SMALL
USER_CHARGES
****
Generated from the CSD

@<TRIPOS>ATOM
     1 C1      12.1084   3.8384  26.3205   C.3       1 RES1   0.0000
     2 C2      12.0182   5.3242  26.0987   C.2       1 RES1   0.0000
     3 N3      12.1641   5.7899  24.8403   N.2       1 RES1   0.0000
     4 C4      12.0844   7.1104  24.5695   C.2       1 RES1   0.0000
     5 N5      12.2139   7.5671  23.2902   N.2       1 RES1   0.0000
     6 C6      12.4282   6.7830  22.1909   C.2       1 RES1   0.0000
     7 N7      12.5297   5.4450  22.3086   N.2       1 RES1   0.0000
     8 C8      12.7005   4.7983  21.1239   C.2       1 RES1   0.0000
     9 C9      12.6936   5.6502  20.0109   C.2       1 RES1   0.0000
    10 C10     12.8652   5.3873  18.5578   C.2       1 RES1   0.0000
    11 O11     12.8523   6.3244  17.7869   O.2       1 RES1   0.0000
    12 N12     13.0420   4.1270  18.1500   N.am      1 RES1   0.0000
    13 C13     13.2240   3.8270  16.7860   C.2       1 RES1   0.0000
    14 C14     14.4900   3.7930  16.2040   C.2       1 RES1   0.0000
    15 C15     15.7200   4.0740  17.0300   C.3       1 RES1   0.0000
    16 C16     14.6170   3.5190  14.8460   C.2       1 RES1   0.0000
    17 C17     13.4940   3.2730  14.0610   C.2       1 RES1   0.0000
    18 C18     12.2310   3.3030  14.6430   C.2       1 RES1   0.0000
    19 C19     12.1070   3.5850  16.0010   C.2       1 RES1   0.0000
    20 Cl20    10.4800   3.6230  16.7500   Cl        1 RES1   0.0000
    21 S21     12.4830   7.3450  20.5022   S.3       1 RES1   0.0000
    22 C22     11.8927   8.0043  25.6335   C.2       1 RES1   0.0000
    23 C23     11.7685   7.5043  26.9464   C.2       1 RES1   0.0000
    24 N24     11.5610   8.3903  28.0228   N.pl3     1 RES1   0.0000
    25 C25     11.2490   9.8137  27.8362   C.3       1 RES1   0.0000
    26 C26      9.7726  10.0769  27.9528   C.3       1 RES1   0.0000
    27 N27      9.2189   9.5591  29.2366   N.3       1 RES1   1.0000
    28 C28      7.7619   9.8183  29.3374   C.3       1 RES1   0.0000
    29 C29      7.1549   9.2971  30.6602   C.3       1 RES1   0.0000
    30 O30      7.8247   9.8162  31.8442   O.3       1 RES1   0.0000
    31 C31      9.5507   8.1098  29.3983   C.3       1 RES1   0.0000
    32 C32     11.0442   7.9174  29.2905   C.3       1 RES1   0.0000
    33 N33     11.8353   6.1693  27.1490   N.2       1 RES1   0.0000
@<TRIPOS>BOND
     1     1     2    1
     2     2     3    2
     3     3     4    1
     4     4     5    1
     5     5     6    1
     6     6     7    2
     7     7     8    1
     8     8     9    2
     9     9    10    1
    10    10    11    2
    11    10    12   am
    12    12    13    1
    13    13    14    2
    14    14    15    1
    15    14    16    1
    16    16    17    2
    17    17    18    1
    18    18    19    2
    19    19    20    1
    20     9    21    1
    21     4    22    2
    22    22    23    1
    23    23    24    1
    24    24    25    1
    25    25    26    1
    26    26    27    1
    27    27    28    1
    28    28    29    1
    29    29    30    1
    30    27    31    1
    31    31    32    1
    32    23    33    2
    33    33     2    1
    34    21     6    1
    35    32    24    1
    36    19    13    1
@<TRIPOS>SUBSTRUCTURE
     1 RES1        1 GROUP             0 ****  ****    0  
@<TRIPOS>MOLECULE
ligand_72
    33    36     1     0     0
SMALL
USER_CHARGES
****
Generated from the CSD

@<TRIPOS>ATOM
     1 C1      10.4734   4.4482  25.9819   C.3       1 RES1   0.0000
     2 C2      11.4579   5.5865  25.9732   C.2       1 RES1   0.0000
     3 N3      12.1018   5.8622  24.8195   N.2       1 RES1   0.0000
     4 C4      12.9902   6.8760  24.7393   C.2       1 RES1   0.0000
     5 N5      13.6200   7.1574  23.5620   N.2       1 RES1   0.0000
     6 C6      13.4353   6.4819  22.3877   C.2       1 RES1   0.0000
     7 N7      12.5777   5.4455  22.3170   N.2       1 RES1   0.0000
     8 C8      12.4705   4.9019  21.0746   C.2       1 RES1   0.0000
     9 C9      13.2421   5.5566  20.1046   C.2       1 RES1   0.0000
    10 C10     13.4438   5.2973  18.6548   C.2       1 RES1   0.0000
    11 O11     13.9780   6.1494  17.9756   O.2       1 RES1   0.0000
    12 N12     13.0420   4.1270  18.1500   N.am      1 RES1   0.0000
    13 C13     13.2376   3.8209  16.7892   C.2       1 RES1   0.0000
    14 C14     14.5125   3.7214  16.2347   C.2       1 RES1   0.0000
    15 C15     15.7373   3.9352  17.0881   C.3       1 RES1   0.0000
    16 C16     14.6544   3.4442  14.8788   C.2       1 RES1   0.0000
    17 C17     13.5374   3.2597  14.0688   C.2       1 RES1   0.0000
    18 C18     12.2653   3.3550  14.6234   C.2       1 RES1   0.0000
    19 C19     12.1268   3.6401  15.9794   C.2       1 RES1   0.0000
    20 Cl20    10.4881   3.7623  16.6931   Cl        1 RES1   0.0000
    21 S21     14.1561   6.9047  20.8155   S.3       1 RES1   0.0000
    22 C22     13.2719   7.6160  25.8974   C.2       1 RES1   0.0000
    23 C23     12.6106   7.2986  27.1019   C.2       1 RES1   0.0000
    24 N24     12.8734   8.0434  28.2693   N.pl3     1 RES1   0.0000
    25 C25     14.0906   8.8199  28.4834   C.3       1 RES1   0.0000
    26 C26     13.7726  10.0768  29.2554   C.3       1 RES1   0.0000
    27 N27     13.0962   9.7499  30.5451   N.3       1 RES1   1.0000
    28 C28     12.7963  11.0051  31.2764   C.3       1 RES1   0.0000
    29 C29     14.0729  11.7366  31.7514   C.3       1 RES1   0.0000
    30 O30     14.9482  10.8997  32.5596   O.3       1 RES1   0.0000
    31 C31     11.8911   8.9018  30.3073   C.3       1 RES1   0.0000
    32 C32     12.2526   7.6607  29.5303   C.3       1 RES1   0.0000
    33 N33     11.7152   6.2856  27.1115   N.2       1 RES1   0.0000
@<TRIPOS>BOND
     1     1     2    1
     2     2     3    2
     3     3     4    1
     4     4     5    1
     5     5     6    1
     6     6     7    2
     7     7     8    1
     8     8     9    2
     9     9    10    1
    10    10    11    2
    11    10    12   am
    12    12    13    1
    13    13    14    2
    14    14    15    1
    15    14    16    1
    16    16    17    2
    17    17    18    1
    18    18    19    2
    19    19    20    1
    20     9    21    1
    21     4    22    2
    22    22    23    1
    23    23    24    1
    24    24    25    1
    25    25    26    1
    26    26    27    1
    27    27    28    1
    28    28    29    1
    29    29    30    1
    30    27    31    1
    31    31    32    1
    32    23    33    2
    33    33     2    1
    34    21     6    1
    35    32    24    1
    36    19    13    1
@<TRIPOS>SUBSTRUCTURE
     1 RES1        1 GROUP             0 ****  ****    0  
@<TRIPOS>MOLECULE
ligand_73
    33    36     1     0     0
SMALL
USER_CHARGES
****
Generated from the CSD

@<TRIPOS>ATOM
     1 C1      13.5468   7.2076  25.7851   C.3       1 RES1   0.0000
     2 C2      12.5347   6.1149  26.0007   C.2       1 RES1   0.0000
     3 N3      12.1860   5.3527  24.9428   N.2       1 RES1   0.0000
     4 C4      11.2914   4.3489  25.0685   C.2       1 RES1   0.0000
     5 N5      10.9619   3.5727  23.9958   N.2       1 RES1   0.0000
     6 C6      11.4715   3.7125  22.7348   C.2       1 RES1   0.0000
     7 N7      12.3752   4.6729  22.4599   N.2       1 RES1   0.0000
     8 C8      12.8197   4.6605  21.1743   C.2       1 RES1   0.0000
     9 C9      12.2807   3.6225  20.4017   C.2       1 RES1   0.0000
    10 C10     12.4628   3.2490  18.9744   C.2       1 RES1   0.0000
    11 O11     12.0695   2.1647  18.5973   O.2       1 RES1   0.0000
    12 N12     13.0420   4.1270  18.1500   N.am      1 RES1   0.0000
    13 C13     13.2054   3.8354  16.7818   C.2       1 RES1   0.0000
    14 C14     14.4671   3.7036  16.2045   C.2       1 RES1   0.0000
    15 C15     15.7119   3.8651  17.0401   C.3       1 RES1   0.0000
    16 C16     14.5778   3.4424  14.8425   C.2       1 RES1   0.0000
    17 C17     13.4423   3.3059  14.0489   C.2       1 RES1   0.0000
    18 C18     12.1832   3.4335  14.6262   C.2       1 RES1   0.0000
    19 C19     12.0762   3.7024  15.9883   C.2       1 RES1   0.0000
    20 Cl20    10.4542   3.8661  16.7312   Cl        1 RES1   0.0000
    21 S21     11.1450   2.6397  21.3517   S.3       1 RES1   0.0000
    22 C22     10.6886   4.1384  26.3175   C.2       1 RES1   0.0000
    23 C23     11.0438   4.9603  27.4071   C.2       1 RES1   0.0000
    24 N24     10.4565   4.7503  28.6711   N.pl3     1 RES1   0.0000
    25 C25      9.1830   4.0667  28.8742   C.3       1 RES1   0.0000
    26 C26      9.2274   3.2592  30.1482   C.3       1 RES1   0.0000
    27 N27      9.5774   4.1250  31.3126   N.3       1 RES1   1.0000
    28 C28      9.6145   3.3013  32.5457   C.3       1 RES1   0.0000
    29 C29      8.2212   2.7623  32.9434   C.3       1 RES1   0.0000
    30 O30      7.2194   3.8089  33.0877   O.3       1 RES1   0.0000
    31 C31     10.8491   4.8632  31.0561   C.3       1 RES1   0.0000
    32 C32     10.7631   5.6519  29.7734   C.3       1 RES1   0.0000
    33 N33     11.9626   5.9347  27.2218   N.2       1 RES1   0.0000
@<TRIPOS>BOND
     1     1     2    1
     2     2     3    2
     3     3     4    1
     4     4     5    1
     5     5     6    1
     6     6     7    2
     7     7     8    1
     8     8     9    2
     9     9    10    1
    10    10    11    2
    11    10    12   am
    12    12    13    1
    13    13    14    2
    14    14    15    1
    15    14    16    1
    16    16    17    2
    17    17    18    1
    18    18    19    2
    19    19    20    1
    20     9    21    1
    21     4    22    2
    22    22    23    1
    23    23    24    1
    24    24    25    1
    25    25    26    1
    26    26    27    1
    27    27    28    1
    28    28    29    1
    29    29    30    1
    30    27    31    1
    31    31    32    1
    32    23    33    2
    33    33     2    1
    34    21     6    1
    35    32    24    1
    36    19    13    1
@<TRIPOS>SUBSTRUCTURE
     1 RES1        1 GROUP             0 ****  ****    0  
@<TRIPOS>MOLECULE
ligand_74
    33    36     1     0     0
SMALL
USER_CHARGES
****
Generated from the CSD

@<TRIPOS>ATOM
     1 C1      11.9138   4.3852  28.9051   C.3       1 RES1   0.0000
     2 C2      11.6579   4.7011  27.4561   C.2       1 RES1   0.0000
     3 N3      12.1176   3.8381  26.5258   N.2       1 RES1   0.0000
     4 C4      11.9140   4.0556  25.2087   C.2       1 RES1   0.0000
     5 N5      12.3665   3.1654  24.2787   N.2       1 RES1   0.0000
     6 C6      12.6193   3.4556  22.9668   C.2       1 RES1   0.0000
     7 N7      12.8392   4.7247  22.5723   N.2       1 RES1   0.0000
     8 C8      13.1175   4.8499  21.2465   C.2       1 RES1   0.0000
     9 C9      13.1626   3.6274  20.5623   C.2       1 RES1   0.0000
    10 C10     13.4038   3.2975  19.1330   C.2       1 RES1   0.0000
    11 O11     13.3538   2.1366  18.7828   O.2       1 RES1   0.0000
    12 N12     13.6543   4.2933  18.2778   N.am      1 RES1   0.0000
    13 C13     13.8747   4.0346  16.9110   C.2       1 RES1   0.0000
    14 C14     15.1502   3.7868  16.4067   C.2       1 RES1   0.0000
    15 C15     16.3479   3.7819  17.3229   C.3       1 RES1   0.0000
    16 C16     15.3211   3.5638  15.0442   C.2       1 RES1   0.0000
    17 C17     14.2318   3.5802  14.1776   C.2       1 RES1   0.0000
    18 C18     12.9585   3.8235  14.6818   C.2       1 RES1   0.0000
    19 C19     12.7920   4.0537  16.0450   C.2       1 RES1   0.0000
    20 Cl20    11.1516   4.3665  16.6938   Cl        1 RES1   0.0000
    21 S21     12.8134   2.2690  21.6536   S.3       1 RES1   0.0000
    22 C22     11.2518   5.2281  24.8156   C.2       1 RES1   0.0000
    23 C23     10.8008   6.1334  25.7985   C.2       1 RES1   0.0000
    24 N24     10.1212   7.3081  25.4179   N.3       1 RES1   0.0000
    25 C25      9.8098   7.3058  23.9769   C.3       1 RES1   0.0000
    26 C26      9.0614   8.5505  23.5714   C.3       1 RES1   0.0000
    27 N27      9.9080   9.7424  23.8845   N.3       1 RES1   1.0000
    28 C28      9.3298  11.0045  23.3619   C.3       1 RES1   0.0000
    29 C29      9.3187  11.0590  21.8169   C.3       1 RES1   0.0000
    30 O30     10.6309  10.8427  21.2244   O.3       1 RES1   0.0000
    31 C31     10.1372   9.7664  25.3600   C.3       1 RES1   0.0000
    32 C32     10.8757   8.5157  25.7751   C.3       1 RES1   0.0000
    33 N33     11.0163   5.8473  27.1022   N.2       1 RES1   0.0000
@<TRIPOS>BOND
     1     1     2    1
     2     2     3    2
     3     3     4    1
     4     4     5    1
     5     5     6    1
     6     6     7    2
     7     7     8    1
     8     8     9    2
     9     9    10    1
    10    10    11    2
    11    10    12   am
    12    12    13    1
    13    13    14    2
    14    14    15    1
    15    14    16    1
    16    16    17    2
    17    17    18    1
    18    18    19    2
    19    19    20    1
    20     9    21    1
    21     4    22    2
    22    22    23    1
    23    23    24    1
    24    24    25    1
    25    25    26    1
    26    26    27    1
    27    27    28    1
    28    28    29    1
    29    29    30    1
    30    27    31    1
    31    31    32    1
    32    23    33    2
    33    33     2    1
    34    21     6    1
    35    32    24    1
    36    19    13    1
@<TRIPOS>SUBSTRUCTURE
     1 RES1        1 GROUP             0 ****  ****    0  
@<TRIPOS>MOLECULE
ligand_75
    33    36     1     0     0
SMALL
USER_CHARGES
****
Generated from the CSD

@<TRIPOS>ATOM
     1 C1      11.4263   8.3917  27.9589   C.3       1 RES1   0.0000
     2 C2      12.0189   7.5207  26.8842   C.2       1 RES1   0.0000
     3 N3      11.8550   7.8962  25.5982   N.2       1 RES1   0.0000
     4 C4      12.3695   7.1663  24.5853   C.2       1 RES1   0.0000
     5 N5      12.2139   7.5671  23.2902   N.2       1 RES1   0.0000
     6 C6      12.2819   6.7480  22.1976   C.2       1 RES1   0.0000
     7 N7      12.0982   5.4192  22.3206   N.2       1 RES1   0.0000
     8 C8      12.1542   4.7431  21.1415   C.2       1 RES1   0.0000
     9 C9      12.3491   5.5699  20.0265   C.2       1 RES1   0.0000
    10 C10     12.4919   5.2669  18.5781   C.2       1 RES1   0.0000
    11 O11     12.6918   6.1807  17.8050   O.2       1 RES1   0.0000
    12 N12     12.4090   3.9948  18.1773   N.am      1 RES1   0.0000
    13 C13     12.5524   3.6540  16.8182   C.2       1 RES1   0.0000
    14 C14     13.7949   3.3515  16.2640   C.2       1 RES1   0.0000
    15 C15     15.0391   3.3742  17.1159   C.3       1 RES1   0.0000
    16 C16     13.8898   3.0477  14.9097   C.2       1 RES1   0.0000
    17 C17     12.7567   3.0371  14.1011   C.2       1 RES1   0.0000
    18 C18     11.5163   3.3350  14.6554   C.2       1 RES1   0.0000
    19 C19     11.4260   3.6460  16.0097   C.2       1 RES1   0.0000
    20 Cl20     9.8279   4.0292  16.7231   Cl        1 RES1   0.0000
    21 S21     12.4883   7.2745  20.5093   S.3       1 RES1   0.0000
    22 C22     13.0434   5.9744  24.8905   C.2       1 RES1   0.0000
    23 C23     13.1835   5.5817  26.2377   C.2       1 RES1   0.0000
    24 N24     13.8710   4.3939  26.5592   N.3       1 RES1   0.0000
    25 C25     14.5328   3.8186  25.3740   C.3       1 RES1   0.0000
    26 C26     15.2892   2.5608  25.7197   C.3       1 RES1   0.0000
    27 N27     14.3269   1.5596  26.2739   N.3       1 RES1   1.0000
    28 C28     14.9471   0.2282  26.4816   C.3       1 RES1   0.0000
    29 C29     15.3415  -0.4581  25.1536   C.3       1 RES1   0.0000
    30 O30     14.2333  -0.5781  24.2169   O.3       1 RES1   0.0000
    31 C31     13.7347   2.1340  27.5187   C.3       1 RES1   0.0000
    32 C32     12.9858   3.4018  27.1814   C.3       1 RES1   0.0000
    33 N33     12.6646   6.3678  27.2077   N.2       1 RES1   0.0000
@<TRIPOS>BOND
     1     1     2    1
     2     2     3    2
     3     3     4    1
     4     4     5    1
     5     5     6    1
     6     6     7    2
     7     7     8    1
     8     8     9    2
     9     9    10    1
    10    10    11    2
    11    10    12   am
    12    12    13    1
    13    13    14    2
    14    14    15    1
    15    14    16    1
    16    16    17    2
    17    17    18    1
    18    18    19    2
    19    19    20    1
    20     9    21    1
    21     4    22    2
    22    22    23    1
    23    23    24    1
    24    24    25    1
    25    25    26    1
    26    26    27    1
    27    27    28    1
    28    28    29    1
    29    29    30    1
    30    27    31    1
    31    31    32    1
    32    23    33    2
    33    33     2    1
    34    21     6    1
    35    32    24    1
    36    19    13    1
@<TRIPOS>SUBSTRUCTURE
     1 RES1        1 GROUP             0 ****  ****    0  
@<TRIPOS>MOLECULE
ligand_76
    33    36     1     0     0
SMALL
USER_CHARGES
****
Generated from the CSD

@<TRIPOS>ATOM
     1 C1      11.6696   4.3913  28.8730   C.3       1 RES1   0.0000
     2 C2      12.1653   4.7583  27.5003   C.2       1 RES1   0.0000
     3 N3      12.0700   3.8343  26.5211   N.2       1 RES1   0.0000
     4 C4      12.4864   4.1011  25.2646   C.2       1 RES1   0.0000
     5 N5      12.3665   3.1654  24.2787   N.2       1 RES1   0.0000
     6 C6      12.3391   3.4315  22.9379   C.2       1 RES1   0.0000
     7 N7      12.0252   4.6611  22.4862   N.2       1 RES1   0.0000
     8 C8      12.0809   4.7823  21.1323   C.2       1 RES1   0.0000
     9 C9      12.4962   3.6141  20.4786   C.2       1 RES1   0.0000
    10 C10     12.6743   3.2916  19.0383   C.2       1 RES1   0.0000
    11 O11     13.0180   2.1702  18.7268   O.2       1 RES1   0.0000
    12 N12     12.4363   4.2452  18.1329   N.am      1 RES1   0.0000
    13 C13     12.5762   3.9859  16.7556   C.2       1 RES1   0.0000
    14 C14     13.7846   4.1840  16.0900   C.2       1 RES1   0.0000
    15 C15     14.9966   4.6826  16.8359   C.3       1 RES1   0.0000
    16 C16     13.8662   3.9402  14.7227   C.2       1 RES1   0.0000
    17 C17     12.7556   3.4953  14.0111   C.2       1 RES1   0.0000
    18 C18     11.5508   3.2938  14.6765   C.2       1 RES1   0.0000
    19 C19     11.4707   3.5460  16.0436   C.2       1 RES1   0.0000
    20 Cl20     9.9188   3.2858  16.9001   Cl        1 RES1   0.0000
    21 S21     12.8051   2.3050  21.6401   S.3       1 RES1   0.0000
    22 C22     13.0691   5.3496  25.0005   C.2       1 RES1   0.0000
    23 C23     13.1860   6.2950  26.0405   C.2       1 RES1   0.0000
    24 N24     13.7561   7.5585  25.7855   N.3       1 RES1   0.0000
    25 C25     13.5709   8.4719  26.9279   C.3       1 RES1   0.0000
    26 C26     14.2010   9.8169  26.6676   C.3       1 RES1   0.0000
    27 N27     13.5645  10.4181  25.4556   N.3       1 RES1   1.0000
    28 C28     13.9961  11.8177  25.2208   C.3       1 RES1   0.0000
    29 C29     15.4527  11.9138  24.7118   C.3       1 RES1   0.0000
    30 O30     16.4231  11.3420  25.6343   O.3       1 RES1   0.0000
    31 C31     13.8396   9.5151  24.2984   C.3       1 RES1   0.0000
    32 C32     13.2217   8.1613  24.5582   C.3       1 RES1   0.0000
    33 N33     12.7297   5.9750  27.2724   N.2       1 RES1   0.0000
@<TRIPOS>BOND
     1     1     2    1
     2     2     3    2
     3     3     4    1
     4     4     5    1
     5     5     6    1
     6     6     7    2
     7     7     8    1
     8     8     9    2
     9     9    10    1
    10    10    11    2
    11    10    12   am
    12    12    13    1
    13    13    14    2
    14    14    15    1
    15    14    16    1
    16    16    17    2
    17    17    18    1
    18    18    19    2
    19    19    20    1
    20     9    21    1
    21     4    22    2
    22    22    23    1
    23    23    24    1
    24    24    25    1
    25    25    26    1
    26    26    27    1
    27    27    28    1
    28    28    29    1
    29    29    30    1
    30    27    31    1
    31    31    32    1
    32    23    33    2
    33    33     2    1
    34    21     6    1
    35    32    24    1
    36    19    13    1
@<TRIPOS>SUBSTRUCTURE
     1 RES1        1 GROUP             0 ****  ****    0  
@<TRIPOS>MOLECULE
ligand_77
    33    36     1     0     0
SMALL
USER_CHARGES
****
Generated from the CSD

@<TRIPOS>ATOM
     1 C1      11.6696   4.3913  28.8730   C.3       1 RES1   0.0000
     2 C2      12.1653   4.7583  27.5003   C.2       1 RES1   0.0000
     3 N3      12.0700   3.8343  26.5211   N.2       1 RES1   0.0000
     4 C4      12.4864   4.1011  25.2646   C.2       1 RES1   0.0000
     5 N5      12.3665   3.1654  24.2787   N.2       1 RES1   0.0000
     6 C6      12.3393   3.4315  22.9379   C.2       1 RES1   0.0000
     7 N7      12.0258   4.6612  22.4861   N.2       1 RES1   0.0000
     8 C8      12.0816   4.7823  21.1323   C.2       1 RES1   0.0000
     9 C9      12.4966   3.6139  20.4786   C.2       1 RES1   0.0000
    10 C10     12.6749   3.2915  19.0384   C.2       1 RES1   0.0000
    11 O11     13.0182   2.1700  18.7269   O.2       1 RES1   0.0000
    12 N12     12.4372   4.2451  18.1329   N.am      1 RES1   0.0000
    13 C13     12.5771   3.9857  16.7556   C.2       1 RES1   0.0000
    14 C14     13.7856   4.1834  16.0901   C.2       1 RES1   0.0000
    15 C15     14.9978   4.6818  16.8361   C.3       1 RES1   0.0000
    16 C16     13.8673   3.9396  14.7229   C.2       1 RES1   0.0000
    17 C17     12.7567   3.4950  14.0111   C.2       1 RES1   0.0000
    18 C18     11.5518   3.2939  14.6764   C.2       1 RES1   0.0000
    19 C19     11.4716   3.5461  16.0435   C.2       1 RES1   0.0000
    20 Cl20     9.9196   3.2863  16.8998   Cl        1 RES1   0.0000
    21 S21     12.8052   2.3049  21.6402   S.3       1 RES1   0.0000
    22 C22     13.0691   5.3496  25.0005   C.2       1 RES1   0.0000
    23 C23     13.1860   6.2950  26.0405   C.2       1 RES1   0.0000
    24 N24     13.7561   7.5585  25.7855   N.3       1 RES1   0.0000
    25 C25     13.9809   7.7653  24.3431   C.3       1 RES1   0.0000
    26 C26     14.5685   9.1259  24.0651   C.3       1 RES1   0.0000
    27 N27     15.8753   9.2396  24.7826   N.3       1 RES1   1.0000
    28 C28     16.6126  10.4775  24.4300   C.3       1 RES1   0.0000
    29 C29     17.2721  10.4000  23.0339   C.3       1 RES1   0.0000
    30 O30     16.3174  10.1709  21.9588   O.3       1 RES1   0.0000
    31 C31     15.6069   9.1107  26.2460   C.3       1 RES1   0.0000
    32 C32     15.0061   7.7541  26.5301   C.3       1 RES1   0.0000
    33 N33     12.7297   5.9750  27.2724   N.2       1 RES1   0.0000
@<TRIPOS>BOND
     1     1     2    1
     2     2     3    2
     3     3     4    1
     4     4     5    1
     5     5     6    1
     6     6     7    2
     7     7     8    1
     8     8     9    2
     9     9    10    1
    10    10    11    2
    11    10    12   am
    12    12    13    1
    13    13    14    2
    14    14    15    1
    15    14    16    1
    16    16    17    2
    17    17    18    1
    18    18    19    2
    19    19    20    1
    20     9    21    1
    21     4    22    2
    22    22    23    1
    23    23    24    1
    24    24    25    1
    25    25    26    1
    26    26    27    1
    27    27    28    1
    28    28    29    1
    29    29    30    1
    30    27    31    1
    31    31    32    1
    32    23    33    2
    33    33     2    1
    34    21     6    1
    35    32    24    1
    36    19    13    1
@<TRIPOS>SUBSTRUCTURE
     1 RES1        1 GROUP             0 ****  ****    0  
@<TRIPOS>MOLECULE
ligand_78
    33    36     1     0     0
SMALL
USER_CHARGES
****
Generated from the CSD

@<TRIPOS>ATOM
     1 C1      11.6696   4.3913  28.8730   C.3       1 RES1   0.0000
     2 C2      12.1653   4.7583  27.5003   C.2       1 RES1   0.0000
     3 N3      12.0700   3.8343  26.5211   N.2       1 RES1   0.0000
     4 C4      12.4864   4.1011  25.2646   C.2       1 RES1   0.0000
     5 N5      12.3665   3.1654  24.2787   N.2       1 RES1   0.0000
     6 C6      12.3395   3.4315  22.9379   C.2       1 RES1   0.0000
     7 N7      12.0263   4.6612  22.4860   N.2       1 RES1   0.0000
     8 C8      12.0823   4.7824  21.1322   C.2       1 RES1   0.0000
     9 C9      12.4971   3.6139  20.4786   C.2       1 RES1   0.0000
    10 C10     12.6754   3.2913  19.0384   C.2       1 RES1   0.0000
    11 O11     13.0185   2.1697  18.7269   O.2       1 RES1   0.0000
    12 N12     12.4380   4.2450  18.1329   N.am      1 RES1   0.0000
    13 C13     12.5780   3.9855  16.7556   C.2       1 RES1   0.0000
    14 C14     13.7866   4.1830  16.0902   C.2       1 RES1   0.0000
    15 C15     14.9988   4.6811  16.8363   C.3       1 RES1   0.0000
    16 C16     13.8684   3.9391  14.7230   C.2       1 RES1   0.0000
    17 C17     12.7577   3.4947  14.0111   C.2       1 RES1   0.0000
    18 C18     11.5527   3.2939  14.6763   C.2       1 RES1   0.0000
    19 C19     11.4724   3.5462  16.0434   C.2       1 RES1   0.0000
    20 Cl20     9.9203   3.2868  16.8996   Cl        1 RES1   0.0000
    21 S21     12.8052   2.3047  21.6403   S.3       1 RES1   0.0000
    22 C22     13.0691   5.3496  25.0005   C.2       1 RES1   0.0000
    23 C23     13.1860   6.2950  26.0405   C.2       1 RES1   0.0000
    24 N24     13.7561   7.5585  25.7855   N.3       1 RES1   0.0000
    25 C25     13.9811   7.7652  24.3432   C.3       1 RES1   0.0000
    26 C26     14.5687   9.1258  24.0651   C.3       1 RES1   0.0000
    27 N27     15.8754   9.2396  24.7828   N.3       1 RES1   1.0000
    28 C28     16.6127  10.4775  24.4302   C.3       1 RES1   0.0000
    29 C29     15.9733  11.7454  25.0414   C.3       1 RES1   0.0000
    30 O30     14.5981  11.9592  24.6139   O.3       1 RES1   0.0000
    31 C31     15.6068   9.1108  26.2462   C.3       1 RES1   0.0000
    32 C32     15.0060   7.7542  26.5302   C.3       1 RES1   0.0000
    33 N33     12.7297   5.9750  27.2724   N.2       1 RES1   0.0000
@<TRIPOS>BOND
     1     1     2    1
     2     2     3    2
     3     3     4    1
     4     4     5    1
     5     5     6    1
     6     6     7    2
     7     7     8    1
     8     8     9    2
     9     9    10    1
    10    10    11    2
    11    10    12   am
    12    12    13    1
    13    13    14    2
    14    14    15    1
    15    14    16    1
    16    16    17    2
    17    17    18    1
    18    18    19    2
    19    19    20    1
    20     9    21    1
    21     4    22    2
    22    22    23    1
    23    23    24    1
    24    24    25    1
    25    25    26    1
    26    26    27    1
    27    27    28    1
    28    28    29    1
    29    29    30    1
    30    27    31    1
    31    31    32    1
    32    23    33    2
    33    33     2    1
    34    21     6    1
    35    32    24    1
    36    19    13    1
@<TRIPOS>SUBSTRUCTURE
     1 RES1        1 GROUP             0 ****  ****    0  
@<TRIPOS>MOLECULE
ligand_79
    33    36     1     0     0
SMALL
USER_CHARGES
****
Generated from the CSD

@<TRIPOS>ATOM
     1 C1      11.6701   8.3863  27.9944   C.3       1 RES1   0.0000
     2 C2      11.5143   7.4590  26.8194   C.2       1 RES1   0.0000
     3 N3      11.9024   7.9004  25.6044   N.2       1 RES1   0.0000
     4 C4      11.7997   7.1164  24.5098   C.2       1 RES1   0.0000
     5 N5      12.2139   7.5671  23.2902   N.2       1 RES1   0.0000
     6 C6      12.5613   6.7734  22.2325   C.2       1 RES1   0.0000
     7 N7      12.9101   5.4863  22.4227   N.2       1 RES1   0.0000
     8 C8      13.1885   4.8145  21.2730   C.2       1 RES1   0.0000
     9 C9      13.0150   5.5842  20.1145   C.2       1 RES1   0.0000
    10 C10     13.2210   5.2733  18.6754   C.2       1 RES1   0.0000
    11 O11     13.0286   6.1455  17.8539   O.2       1 RES1   0.0000
    12 N12     13.6253   4.0458  18.3354   N.am      1 RES1   0.0000
    13 C13     13.8491   3.7057  16.9871   C.2       1 RES1   0.0000
    14 C14     15.0948   3.8722  16.3846   C.2       1 RES1   0.0000
    15 C15     16.2578   4.4231  17.1708   C.3       1 RES1   0.0000
    16 C16     15.2598   3.5478  15.0419   C.2       1 RES1   0.0000
    17 C17     14.1958   3.0534  14.2927   C.2       1 RES1   0.0000
    18 C18     12.9537   2.8835  14.8954   C.2       1 RES1   0.0000
    19 C19     12.7902   3.2163  16.2376   C.2       1 RES1   0.0000
    20 Cl20    11.1903   2.9967  17.0132   Cl        1 RES1   0.0000
    21 S21     12.4977   7.2366  20.5144   S.3       1 RES1   0.0000
    22 C22     11.2338   5.8402  24.6477   C.2       1 RES1   0.0000
    23 C23     10.8085   5.4033  25.9194   C.2       1 RES1   0.0000
    24 N24     10.2517   4.1178  26.0747   N.3       1 RES1   0.0000
    25 C25     10.0945   3.7688  27.4985   C.3       1 RES1   0.0000
    26 C26      9.4766   2.4038  27.6677   C.3       1 RES1   0.0000
    27 N27     10.3621   1.3921  27.0135   N.3       1 RES1   1.0000
    28 C28      9.9266  -0.0011  27.2772   C.3       1 RES1   0.0000
    29 C29      8.6407  -0.3786  26.5065   C.3       1 RES1   0.0000
    30 O30      7.5033   0.4685  26.8357   O.3       1 RES1   0.0000
    31 C31     10.4355   1.7206  25.5585   C.3       1 RES1   0.0000
    32 C32     11.0422   3.0928  25.3822   C.3       1 RES1   0.0000
    33 N33     10.9589   6.2276  26.9805   N.2       1 RES1   0.0000
@<TRIPOS>BOND
     1     1     2    1
     2     2     3    2
     3     3     4    1
     4     4     5    1
     5     5     6    1
     6     6     7    2
     7     7     8    1
     8     8     9    2
     9     9    10    1
    10    10    11    2
    11    10    12   am
    12    12    13    1
    13    13    14    2
    14    14    15    1
    15    14    16    1
    16    16    17    2
    17    17    18    1
    18    18    19    2
    19    19    20    1
    20     9    21    1
    21     4    22    2
    22    22    23    1
    23    23    24    1
    24    24    25    1
    25    25    26    1
    26    26    27    1
    27    27    28    1
    28    28    29    1
    29    29    30    1
    30    27    31    1
    31    31    32    1
    32    23    33    2
    33    33     2    1
    34    21     6    1
    35    32    24    1
    36    19    13    1
@<TRIPOS>SUBSTRUCTURE
     1 RES1        1 GROUP             0 ****  ****    0  
@<TRIPOS>MOLECULE
ligand_80
    33    36     1     0     0
SMALL
USER_CHARGES
****
Generated from the CSD

@<TRIPOS>ATOM
     1 C1      11.6701   8.3863  27.9944   C.3       1 RES1   0.0000
     2 C2      11.5143   7.4590  26.8194   C.2       1 RES1   0.0000
     3 N3      11.9024   7.9004  25.6044   N.2       1 RES1   0.0000
     4 C4      11.7997   7.1164  24.5098   C.2       1 RES1   0.0000
     5 N5      12.2139   7.5671  23.2902   N.2       1 RES1   0.0000
     6 C6      12.5611   6.7734  22.2325   C.2       1 RES1   0.0000
     7 N7      12.9095   5.4862  22.4226   N.2       1 RES1   0.0000
     8 C8      13.1878   4.8144  21.2728   C.2       1 RES1   0.0000
     9 C9      13.0145   5.5843  20.1144   C.2       1 RES1   0.0000
    10 C10     13.2205   5.2735  18.6752   C.2       1 RES1   0.0000
    11 O11     13.0283   6.1458  17.8538   O.2       1 RES1   0.0000
    12 N12     13.6244   4.0459  18.3351   N.am      1 RES1   0.0000
    13 C13     13.8481   3.7058  16.9868   C.2       1 RES1   0.0000
    14 C14     15.0940   3.8721  16.3843   C.2       1 RES1   0.0000
    15 C15     16.2571   4.4226  17.1706   C.3       1 RES1   0.0000
    16 C16     15.2589   3.5477  15.0416   C.2       1 RES1   0.0000
    17 C17     14.1947   3.0537  14.2923   C.2       1 RES1   0.0000
    18 C18     12.9526   2.8840  14.8950   C.2       1 RES1   0.0000
    19 C19     12.7892   3.2168  16.2372   C.2       1 RES1   0.0000
    20 Cl20    11.1892   2.9976  17.0128   Cl        1 RES1   0.0000
    21 S21     12.4976   7.2368  20.5144   S.3       1 RES1   0.0000
    22 C22     11.2338   5.8402  24.6477   C.2       1 RES1   0.0000
    23 C23     10.8085   5.4033  25.9194   C.2       1 RES1   0.0000
    24 N24     10.2517   4.1178  26.0747   N.3       1 RES1   0.0000
    25 C25     10.3841   3.3223  24.8404   C.3       1 RES1   0.0000
    26 C26      9.8108   1.9381  25.0112   C.3       1 RES1   0.0000
    27 N27      8.3618   2.0588  25.3594   N.3       1 RES1   1.0000
    28 C28      7.6692   0.7472  25.3768   C.3       1 RES1   0.0000
    29 C29      7.3854   0.2053  23.9569   C.3       1 RES1   0.0000
    30 O30      8.5899   0.0226  23.1597   O.3       1 RES1   0.0000
    31 C31      8.2620   2.7946  26.6551   C.3       1 RES1   0.0000
    32 C32      8.8463   4.1784  26.4946   C.3       1 RES1   0.0000
    33 N33     10.9589   6.2276  26.9805   N.2       1 RES1   0.0000
@<TRIPOS>BOND
     1     1     2    1
     2     2     3    2
     3     3     4    1
     4     4     5    1
     5     5     6    1
     6     6     7    2
     7     7     8    1
     8     8     9    2
     9     9    10    1
    10    10    11    2
    11    10    12   am
    12    12    13    1
    13    13    14    2
    14    14    15    1
    15    14    16    1
    16    16    17    2
    17    17    18    1
    18    18    19    2
    19    19    20    1
    20     9    21    1
    21     4    22    2
    22    22    23    1
    23    23    24    1
    24    24    25    1
    25    25    26    1
    26    26    27    1
    27    27    28    1
    28    28    29    1
    29    29    30    1
    30    27    31    1
    31    31    32    1
    32    23    33    2
    33    33     2    1
    34    21     6    1
    35    32    24    1
    36    19    13    1
@<TRIPOS>SUBSTRUCTURE
     1 RES1        1 GROUP             0 ****  ****    0  
@<TRIPOS>MOLECULE
ligand_81
    33    36     1     0     0
SMALL
USER_CHARGES
****
Generated from the CSD

@<TRIPOS>ATOM
     1 C1      11.6701   8.3863  27.9944   C.3       1 RES1   0.0000
     2 C2      11.5143   7.4590  26.8194   C.2       1 RES1   0.0000
     3 N3      11.9024   7.9004  25.6044   N.2       1 RES1   0.0000
     4 C4      11.7997   7.1164  24.5098   C.2       1 RES1   0.0000
     5 N5      12.2139   7.5671  23.2902   N.2       1 RES1   0.0000
     6 C6      12.5609   6.7734  22.2324   C.2       1 RES1   0.0000
     7 N7      12.9090   5.4861  22.4224   N.2       1 RES1   0.0000
     8 C8      13.1872   4.8143  21.2726   C.2       1 RES1   0.0000
     9 C9      13.0141   5.5843  20.1142   C.2       1 RES1   0.0000
    10 C10     13.2200   5.2736  18.6751   C.2       1 RES1   0.0000
    11 O11     13.0281   6.1460  17.8537   O.2       1 RES1   0.0000
    12 N12     13.6236   4.0459  18.3348   N.am      1 RES1   0.0000
    13 C13     13.8473   3.7059  16.9865   C.2       1 RES1   0.0000
    14 C14     15.0932   3.8719  16.3841   C.2       1 RES1   0.0000
    15 C15     16.2564   4.4221  17.1704   C.3       1 RES1   0.0000
    16 C16     15.2580   3.5477  15.0413   C.2       1 RES1   0.0000
    17 C17     14.1938   3.0539  14.2920   C.2       1 RES1   0.0000
    18 C18     12.9516   2.8845  14.8946   C.2       1 RES1   0.0000
    19 C19     12.7882   3.2172  16.2369   C.2       1 RES1   0.0000
    20 Cl20    11.1882   2.9983  17.0124   Cl        1 RES1   0.0000
    21 S21     12.4976   7.2370  20.5144   S.3       1 RES1   0.0000
    22 C22     11.2338   5.8402  24.6477   C.2       1 RES1   0.0000
    23 C23     10.8085   5.4033  25.9194   C.2       1 RES1   0.0000
    24 N24     10.2517   4.1178  26.0747   N.3       1 RES1   0.0000
    25 C25     10.3839   3.3224  24.8403   C.3       1 RES1   0.0000
    26 C26      9.8106   1.9382  25.0111   C.3       1 RES1   0.0000
    27 N27      8.3616   2.0589  25.3596   N.3       1 RES1   1.0000
    28 C28      7.6690   0.7473  25.3769   C.3       1 RES1   0.0000
    29 C29      8.0643  -0.1182  26.5954   C.3       1 RES1   0.0000
    30 O30      9.4889  -0.4133  26.6534   O.3       1 RES1   0.0000
    31 C31      8.2621   2.7946  26.6554   C.3       1 RES1   0.0000
    32 C32      8.8463   4.1784  26.4948   C.3       1 RES1   0.0000
    33 N33     10.9589   6.2276  26.9805   N.2       1 RES1   0.0000
@<TRIPOS>BOND
     1     1     2    1
     2     2     3    2
     3     3     4    1
     4     4     5    1
     5     5     6    1
     6     6     7    2
     7     7     8    1
     8     8     9    2
     9     9    10    1
    10    10    11    2
    11    10    12   am
    12    12    13    1
    13    13    14    2
    14    14    15    1
    15    14    16    1
    16    16    17    2
    17    17    18    1
    18    18    19    2
    19    19    20    1
    20     9    21    1
    21     4    22    2
    22    22    23    1
    23    23    24    1
    24    24    25    1
    25    25    26    1
    26    26    27    1
    27    27    28    1
    28    28    29    1
    29    29    30    1
    30    27    31    1
    31    31    32    1
    32    23    33    2
    33    33     2    1
    34    21     6    1
    35    32    24    1
    36    19    13    1
@<TRIPOS>SUBSTRUCTURE
     1 RES1        1 GROUP             0 ****  ****    0  
@<TRIPOS>MOLECULE
ligand_82
    33    36     1     0     0
SMALL
USER_CHARGES
****
Generated from the CSD

@<TRIPOS>ATOM
     1 C1      11.9138   4.3852  28.9051   C.3       1 RES1   0.0000
     2 C2      11.6579   4.7011  27.4561   C.2       1 RES1   0.0000
     3 N3      12.1176   3.8381  26.5258   N.2       1 RES1   0.0000
     4 C4      11.9140   4.0556  25.2087   C.2       1 RES1   0.0000
     5 N5      12.3665   3.1654  24.2787   N.2       1 RES1   0.0000
     6 C6      12.6202   3.4559  22.9670   C.2       1 RES1   0.0000
     7 N7      12.8417   4.7248  22.5731   N.2       1 RES1   0.0000
     8 C8      13.1207   4.8503  21.2475   C.2       1 RES1   0.0000
     9 C9      13.1649   3.6280  20.5629   C.2       1 RES1   0.0000
    10 C10     13.4063   3.2983  19.1335   C.2       1 RES1   0.0000
    11 O11     13.3553   2.1377  18.7828   O.2       1 RES1   0.0000
    12 N12     13.6583   4.2942  18.2788   N.am      1 RES1   0.0000
    13 C13     13.8790   4.0358  16.9120   C.2       1 RES1   0.0000
    14 C14     15.1545   3.7868  16.4082   C.2       1 RES1   0.0000
    15 C15     16.3518   3.7804  17.3250   C.3       1 RES1   0.0000
    16 C16     15.3259   3.5642  15.0457   C.2       1 RES1   0.0000
    17 C17     14.2369   3.5820  14.1786   C.2       1 RES1   0.0000
    18 C18     12.9636   3.8265  14.6823   C.2       1 RES1   0.0000
    19 C19     12.7967   4.0564  16.0455   C.2       1 RES1   0.0000
    20 Cl20    11.1564   4.3707  16.6937   Cl        1 RES1   0.0000
    21 S21     12.8137   2.2695  21.6534   S.3       1 RES1   0.0000
    22 C22     11.2518   5.2281  24.8156   C.2       1 RES1   0.0000
    23 C23     10.8008   6.1334  25.7985   C.2       1 RES1   0.0000
    24 N24     10.1212   7.3081  25.4179   N.3       1 RES1   0.0000
    25 C25      9.5311   7.9893  26.5848   C.3       1 RES1   0.0000
    26 C26      8.8239   9.2592  26.1838   C.3       1 RES1   0.0000
    27 N27      7.7352   8.9173  25.2177   N.3       1 RES1   1.0000
    28 C28      6.8708  10.0799  24.8991   C.3       1 RES1   0.0000
    29 C29      7.5779  11.1176  23.9972   C.3       1 RES1   0.0000
    30 O30      8.7891  11.6653  24.5911   O.3       1 RES1   0.0000
    31 C31      8.3688   8.3065  24.0112   C.3       1 RES1   0.0000
    32 C32      9.0900   7.0399  24.4080   C.3       1 RES1   0.0000
    33 N33     11.0163   5.8473  27.1022   N.2       1 RES1   0.0000
@<TRIPOS>BOND
     1     1     2    1
     2     2     3    2
     3     3     4    1
     4     4     5    1
     5     5     6    1
     6     6     7    2
     7     7     8    1
     8     8     9    2
     9     9    10    1
    10    10    11    2
    11    10    12   am
    12    12    13    1
    13    13    14    2
    14    14    15    1
    15    14    16    1
    16    16    17    2
    17    17    18    1
    18    18    19    2
    19    19    20    1
    20     9    21    1
    21     4    22    2
    22    22    23    1
    23    23    24    1
    24    24    25    1
    25    25    26    1
    26    26    27    1
    27    27    28    1
    28    28    29    1
    29    29    30    1
    30    27    31    1
    31    31    32    1
    32    23    33    2
    33    33     2    1
    34    21     6    1
    35    32    24    1
    36    19    13    1
@<TRIPOS>SUBSTRUCTURE
     1 RES1        1 GROUP             0 ****  ****    0  
@<TRIPOS>MOLECULE
ligand_83
    33    36     1     0     0
SMALL
USER_CHARGES
****
Generated from the CSD

@<TRIPOS>ATOM
     1 C1      11.9138   4.3852  28.9051   C.3       1 RES1   0.0000
     2 C2      11.6579   4.7011  27.4561   C.2       1 RES1   0.0000
     3 N3      12.1176   3.8381  26.5258   N.2       1 RES1   0.0000
     4 C4      11.9140   4.0556  25.2087   C.2       1 RES1   0.0000
     5 N5      12.3665   3.1654  24.2787   N.2       1 RES1   0.0000
     6 C6      12.6191   3.4556  22.9667   C.2       1 RES1   0.0000
     7 N7      12.8382   4.7247  22.5720   N.2       1 RES1   0.0000
     8 C8      13.1163   4.8498  21.2462   C.2       1 RES1   0.0000
     9 C9      13.1621   3.6273  20.5622   C.2       1 RES1   0.0000
    10 C10     13.4033   3.2972  19.1329   C.2       1 RES1   0.0000
    11 O11     13.3540   2.1363  18.7828   O.2       1 RES1   0.0000
    12 N12     13.6532   4.2931  18.2775   N.am      1 RES1   0.0000
    13 C13     13.8736   4.0343  16.9107   C.2       1 RES1   0.0000
    14 C14     15.1492   3.7871  16.4063   C.2       1 RES1   0.0000
    15 C15     16.3470   3.7830  17.3225   C.3       1 RES1   0.0000
    16 C16     15.3202   3.5640  15.0439   C.2       1 RES1   0.0000
    17 C17     14.2308   3.5797  14.1774   C.2       1 RES1   0.0000
    18 C18     12.9574   3.8223  14.6817   C.2       1 RES1   0.0000
    19 C19     12.7908   4.0526  16.0448   C.2       1 RES1   0.0000
    20 Cl20    11.1503   4.3647  16.6937   Cl        1 RES1   0.0000
    21 S21     12.8137   2.2688  21.6537   S.3       1 RES1   0.0000
    22 C22     11.2518   5.2281  24.8156   C.2       1 RES1   0.0000
    23 C23     10.8008   6.1334  25.7985   C.2       1 RES1   0.0000
    24 N24     10.1212   7.3081  25.4179   N.3       1 RES1   0.0000
    25 C25      9.8110   7.3064  23.9766   C.3       1 RES1   0.0000
    26 C26      9.0626   8.5511  23.5711   C.3       1 RES1   0.0000
    27 N27      9.9086   9.7431  23.8855   N.3       1 RES1   1.0000
    28 C28      9.3305  11.0053  23.3630   C.3       1 RES1   0.0000
    29 C29      8.0881  11.4654  24.1597   C.3       1 RES1   0.0000
    30 O30      7.0053  10.4922  24.1493   O.3       1 RES1   0.0000
    31 C31     10.1366   9.7664  25.3612   C.3       1 RES1   0.0000
    32 C32     10.8751   8.5157  25.7763   C.3       1 RES1   0.0000
    33 N33     11.0163   5.8473  27.1022   N.2       1 RES1   0.0000
@<TRIPOS>BOND
     1     1     2    1
     2     2     3    2
     3     3     4    1
     4     4     5    1
     5     5     6    1
     6     6     7    2
     7     7     8    1
     8     8     9    2
     9     9    10    1
    10    10    11    2
    11    10    12   am
    12    12    13    1
    13    13    14    2
    14    14    15    1
    15    14    16    1
    16    16    17    2
    17    17    18    1
    18    18    19    2
    19    19    20    1
    20     9    21    1
    21     4    22    2
    22    22    23    1
    23    23    24    1
    24    24    25    1
    25    25    26    1
    26    26    27    1
    27    27    28    1
    28    28    29    1
    29    29    30    1
    30    27    31    1
    31    31    32    1
    32    23    33    2
    33    33     2    1
    34    21     6    1
    35    32    24    1
    36    19    13    1
@<TRIPOS>SUBSTRUCTURE
     1 RES1        1 GROUP             0 ****  ****    0  
@<TRIPOS>MOLECULE
ligand_84
    33    36     1     0     0
SMALL
USER_CHARGES
****
Generated from the CSD

@<TRIPOS>ATOM
     1 C1      11.4263   8.3917  27.9589   C.3       1 RES1   0.0000
     2 C2      12.0189   7.5207  26.8842   C.2       1 RES1   0.0000
     3 N3      11.8550   7.8962  25.5982   N.2       1 RES1   0.0000
     4 C4      12.3695   7.1663  24.5853   C.2       1 RES1   0.0000
     5 N5      12.2139   7.5671  23.2902   N.2       1 RES1   0.0000
     6 C6      12.2809   6.7479  22.1977   C.2       1 RES1   0.0000
     7 N7      12.0956   5.4193  22.3208   N.2       1 RES1   0.0000
     8 C8      12.1509   4.7430  21.1417   C.2       1 RES1   0.0000
     9 C9      12.3468   5.5695  20.0267   C.2       1 RES1   0.0000
    10 C10     12.4893   5.2662  18.5783   C.2       1 RES1   0.0000
    11 O11     12.6903   6.1797  17.8051   O.2       1 RES1   0.0000
    12 N12     12.4049   3.9942  18.1775   N.am      1 RES1   0.0000
    13 C13     12.5479   3.6531  16.8185   C.2       1 RES1   0.0000
    14 C14     13.7901   3.3491  16.2643   C.2       1 RES1   0.0000
    15 C15     15.0342   3.3703  17.1163   C.3       1 RES1   0.0000
    16 C16     13.8846   3.0451  14.9101   C.2       1 RES1   0.0000
    17 C17     12.7516   3.0358  14.1014   C.2       1 RES1   0.0000
    18 C18     11.5115   3.3352  14.6557   C.2       1 RES1   0.0000
    19 C19     11.4215   3.6464  16.0100   C.2       1 RES1   0.0000
    20 Cl20     9.8239   4.0316  16.7233   Cl        1 RES1   0.0000
    21 S21     12.4880   7.2740  20.5093   S.3       1 RES1   0.0000
    22 C22     13.0434   5.9744  24.8905   C.2       1 RES1   0.0000
    23 C23     13.1835   5.5817  26.2377   C.2       1 RES1   0.0000
    24 N24     13.8710   4.3939  26.5592   N.3       1 RES1   0.0000
    25 C25     14.1119   4.2885  28.0099   C.3       1 RES1   0.0000
    26 C26     14.8259   3.0073  28.3597   C.3       1 RES1   0.0000
    27 N27     16.1389   2.9795  27.6450   N.3       1 RES1   1.0000
    28 C28     16.9901   1.8385  28.0619   C.3       1 RES1   0.0000
    29 C29     16.4753   0.4840  27.5232   C.3       1 RES1   0.0000
    30 O30     15.1257   0.1643  27.9661   O.3       1 RES1   0.0000
    31 C31     15.8620   3.0022  26.1776   C.3       1 RES1   0.0000
    32 C32     15.1353   4.2779  25.8221   C.3       1 RES1   0.0000
    33 N33     12.6646   6.3678  27.2077   N.2       1 RES1   0.0000
@<TRIPOS>BOND
     1     1     2    1
     2     2     3    2
     3     3     4    1
     4     4     5    1
     5     5     6    1
     6     6     7    2
     7     7     8    1
     8     8     9    2
     9     9    10    1
    10    10    11    2
    11    10    12   am
    12    12    13    1
    13    13    14    2
    14    14    15    1
    15    14    16    1
    16    16    17    2
    17    17    18    1
    18    18    19    2
    19    19    20    1
    20     9    21    1
    21     4    22    2
    22    22    23    1
    23    23    24    1
    24    24    25    1
    25    25    26    1
    26    26    27    1
    27    27    28    1
    28    28    29    1
    29    29    30    1
    30    27    31    1
    31    31    32    1
    32    23    33    2
    33    33     2    1
    34    21     6    1
    35    32    24    1
    36    19    13    1
@<TRIPOS>SUBSTRUCTURE
     1 RES1        1 GROUP             0 ****  ****    0  
@<TRIPOS>MOLECULE
ligand_85
    33    36     1     0     0
SMALL
USER_CHARGES
****
Generated from the CSD

@<TRIPOS>ATOM
     1 C1      11.4263   8.3917  27.9589   C.3       1 RES1   0.0000
     2 C2      12.0189   7.5207  26.8842   C.2       1 RES1   0.0000
     3 N3      11.8550   7.8962  25.5982   N.2       1 RES1   0.0000
     4 C4      12.3695   7.1663  24.5853   C.2       1 RES1   0.0000
     5 N5      12.2139   7.5671  23.2902   N.2       1 RES1   0.0000
     6 C6      12.2822   6.7481  22.1976   C.2       1 RES1   0.0000
     7 N7      12.0992   5.4192  22.3206   N.2       1 RES1   0.0000
     8 C8      12.1554   4.7431  21.1415   C.2       1 RES1   0.0000
     9 C9      12.3497   5.5700  20.0265   C.2       1 RES1   0.0000
    10 C10     12.4924   5.2671  18.5781   C.2       1 RES1   0.0000
    11 O11     12.6917   6.1810  17.8049   O.2       1 RES1   0.0000
    12 N12     12.4102   3.9949  18.1772   N.am      1 RES1   0.0000
    13 C13     12.5535   3.6542  16.8181   C.2       1 RES1   0.0000
    14 C14     13.7961   3.3525  16.2637   C.2       1 RES1   0.0000
    15 C15     15.0404   3.3758  17.1154   C.3       1 RES1   0.0000
    16 C16     13.8910   3.0487  14.9094   C.2       1 RES1   0.0000
    17 C17     12.7578   3.0375  14.1009   C.2       1 RES1   0.0000
    18 C18     11.5172   3.3347  14.6555   C.2       1 RES1   0.0000
    19 C19     11.4270   3.6457  16.0098   C.2       1 RES1   0.0000
    20 Cl20     9.8288   4.0279  16.7234   Cl        1 RES1   0.0000
    21 S21     12.4880   7.2747  20.5092   S.3       1 RES1   0.0000
    22 C22     13.0434   5.9744  24.8905   C.2       1 RES1   0.0000
    23 C23     13.1835   5.5817  26.2377   C.2       1 RES1   0.0000
    24 N24     13.8710   4.3939  26.5592   N.3       1 RES1   0.0000
    25 C25     14.5317   3.8179  25.3737   C.3       1 RES1   0.0000
    26 C26     15.2881   2.5601  25.7194   C.3       1 RES1   0.0000
    27 N27     14.3260   1.5594  26.2749   N.3       1 RES1   1.0000
    28 C28     14.9461   0.2279  26.4827   C.3       1 RES1   0.0000
    29 C29     15.9222   0.2067  27.6813   C.3       1 RES1   0.0000
    30 O30     17.0250   1.1469  27.5416   O.3       1 RES1   0.0000
    31 C31     13.7350   2.1345  27.5199   C.3       1 RES1   0.0000
    32 C32     12.9861   3.4022  27.1826   C.3       1 RES1   0.0000
    33 N33     12.6646   6.3678  27.2077   N.2       1 RES1   0.0000
@<TRIPOS>BOND
     1     1     2    1
     2     2     3    2
     3     3     4    1
     4     4     5    1
     5     5     6    1
     6     6     7    2
     7     7     8    1
     8     8     9    2
     9     9    10    1
    10    10    11    2
    11    10    12   am
    12    12    13    1
    13    13    14    2
    14    14    15    1
    15    14    16    1
    16    16    17    2
    17    17    18    1
    18    18    19    2
    19    19    20    1
    20     9    21    1
    21     4    22    2
    22    22    23    1
    23    23    24    1
    24    24    25    1
    25    25    26    1
    26    26    27    1
    27    27    28    1
    28    28    29    1
    29    29    30    1
    30    27    31    1
    31    31    32    1
    32    23    33    2
    33    33     2    1
    34    21     6    1
    35    32    24    1
    36    19    13    1
@<TRIPOS>SUBSTRUCTURE
     1 RES1        1 GROUP             0 ****  ****    0  
@<TRIPOS>MOLECULE
ligand_86
    33    36     1     0     0
SMALL
USER_CHARGES
****
Generated from the CSD

@<TRIPOS>ATOM
     1 C1      11.6696   4.3913  28.8730   C.3       1 RES1   0.0000
     2 C2      12.1653   4.7583  27.5003   C.2       1 RES1   0.0000
     3 N3      12.0700   3.8343  26.5211   N.2       1 RES1   0.0000
     4 C4      12.4864   4.1011  25.2646   C.2       1 RES1   0.0000
     5 N5      12.3665   3.1654  24.2787   N.2       1 RES1   0.0000
     6 C6      12.3394   3.4315  22.9379   C.2       1 RES1   0.0000
     7 N7      12.0261   4.6612  22.4861   N.2       1 RES1   0.0000
     8 C8      12.0819   4.7824  21.1322   C.2       1 RES1   0.0000
     9 C9      12.4969   3.6139  20.4786   C.2       1 RES1   0.0000
    10 C10     12.6751   3.2914  19.0384   C.2       1 RES1   0.0000
    11 O11     13.0183   2.1698  18.7269   O.2       1 RES1   0.0000
    12 N12     12.4376   4.2450  18.1329   N.am      1 RES1   0.0000
    13 C13     12.5775   3.9856  16.7556   C.2       1 RES1   0.0000
    14 C14     13.7861   4.1832  16.0901   C.2       1 RES1   0.0000
    15 C15     14.9983   4.6814  16.8362   C.3       1 RES1   0.0000
    16 C16     13.8678   3.9393  14.7229   C.2       1 RES1   0.0000
    17 C17     12.7571   3.4949  14.0111   C.2       1 RES1   0.0000
    18 C18     11.5522   3.2939  14.6764   C.2       1 RES1   0.0000
    19 C19     11.4720   3.5462  16.0435   C.2       1 RES1   0.0000
    20 Cl20     9.9199   3.2866  16.8997   Cl        1 RES1   0.0000
    21 S21     12.8052   2.3048  21.6402   S.3       1 RES1   0.0000
    22 C22     13.0691   5.3496  25.0005   C.2       1 RES1   0.0000
    23 C23     13.1860   6.2950  26.0405   C.2       1 RES1   0.0000
    24 N24     13.7561   7.5585  25.7855   N.3       1 RES1   0.0000
    25 C25     14.1803   8.2184  27.0339   C.3       1 RES1   0.0000
    26 C26     14.8126   9.5600  26.7623   C.3       1 RES1   0.0000
    27 N27     13.8139  10.4291  26.0674   N.3       1 RES1   1.0000
    28 C28     14.2850  11.8271  25.9136   C.3       1 RES1   0.0000
    29 C29     13.2501  12.7290  25.2025   C.3       1 RES1   0.0000
    30 O30     11.9441  12.7235  25.8461   O.3       1 RES1   0.0000
    31 C31     13.4659   9.7787  24.7689   C.3       1 RES1   0.0000
    32 C32     12.8432   8.4280  25.0333   C.3       1 RES1   0.0000
    33 N33     12.7297   5.9750  27.2724   N.2       1 RES1   0.0000
@<TRIPOS>BOND
     1     1     2    1
     2     2     3    2
     3     3     4    1
     4     4     5    1
     5     5     6    1
     6     6     7    2
     7     7     8    1
     8     8     9    2
     9     9    10    1
    10    10    11    2
    11    10    12   am
    12    12    13    1
    13    13    14    2
    14    14    15    1
    15    14    16    1
    16    16    17    2
    17    17    18    1
    18    18    19    2
    19    19    20    1
    20     9    21    1
    21     4    22    2
    22    22    23    1
    23    23    24    1
    24    24    25    1
    25    25    26    1
    26    26    27    1
    27    27    28    1
    28    28    29    1
    29    29    30    1
    30    27    31    1
    31    31    32    1
    32    23    33    2
    33    33     2    1
    34    21     6    1
    35    32    24    1
    36    19    13    1
@<TRIPOS>SUBSTRUCTURE
     1 RES1        1 GROUP             0 ****  ****    0  
@<TRIPOS>MOLECULE
ligand_87
    33    36     1     0     0
SMALL
USER_CHARGES
****
Generated from the CSD

@<TRIPOS>ATOM
     1 C1      11.6701   8.3863  27.9944   C.3       1 RES1   0.0000
     2 C2      11.5143   7.4590  26.8194   C.2       1 RES1   0.0000
     3 N3      11.9024   7.9004  25.6044   N.2       1 RES1   0.0000
     4 C4      11.7997   7.1164  24.5098   C.2       1 RES1   0.0000
     5 N5      12.2139   7.5671  23.2902   N.2       1 RES1   0.0000
     6 C6      12.5610   6.7734  22.2324   C.2       1 RES1   0.0000
     7 N7      12.9093   5.4861  22.4225   N.2       1 RES1   0.0000
     8 C8      13.1875   4.8144  21.2727   C.2       1 RES1   0.0000
     9 C9      13.0143   5.5843  20.1143   C.2       1 RES1   0.0000
    10 C10     13.2203   5.2735  18.6752   C.2       1 RES1   0.0000
    11 O11     13.0282   6.1459  17.8537   O.2       1 RES1   0.0000
    12 N12     13.6240   4.0459  18.3350   N.am      1 RES1   0.0000
    13 C13     13.8477   3.7059  16.9866   C.2       1 RES1   0.0000
    14 C14     15.0936   3.8720  16.3842   C.2       1 RES1   0.0000
    15 C15     16.2568   4.4223  17.1705   C.3       1 RES1   0.0000
    16 C16     15.2585   3.5477  15.0415   C.2       1 RES1   0.0000
    17 C17     14.1943   3.0538  14.2922   C.2       1 RES1   0.0000
    18 C18     12.9521   2.8843  14.8948   C.2       1 RES1   0.0000
    19 C19     12.7887   3.2170  16.2370   C.2       1 RES1   0.0000
    20 Cl20    11.1887   2.9980  17.0126   Cl        1 RES1   0.0000
    21 S21     12.4976   7.2369  20.5144   S.3       1 RES1   0.0000
    22 C22     11.2338   5.8402  24.6477   C.2       1 RES1   0.0000
    23 C23     10.8085   5.4033  25.9194   C.2       1 RES1   0.0000
    24 N24     10.2517   4.1178  26.0747   N.3       1 RES1   0.0000
    25 C25      9.4929   4.0095  27.3341   C.3       1 RES1   0.0000
    26 C26      8.8758   2.6428  27.4915   C.3       1 RES1   0.0000
    27 N27      9.9673   1.6209  27.4915   N.3       1 RES1   1.0000
    28 C28      9.4734   0.2603  27.8156   C.3       1 RES1   0.0000
    29 C29     10.6021  -0.7962  27.8239   C.3       1 RES1   0.0000
    30 O30     11.7037  -0.4538  28.7122   O.3       1 RES1   0.0000
    31 C31     10.6644   1.6957  26.1729   C.3       1 RES1   0.0000
    32 C32     11.2745   3.0671  26.0031   C.3       1 RES1   0.0000
    33 N33     10.9589   6.2276  26.9805   N.2       1 RES1   0.0000
@<TRIPOS>BOND
     1     1     2    1
     2     2     3    2
     3     3     4    1
     4     4     5    1
     5     5     6    1
     6     6     7    2
     7     7     8    1
     8     8     9    2
     9     9    10    1
    10    10    11    2
    11    10    12   am
    12    12    13    1
    13    13    14    2
    14    14    15    1
    15    14    16    1
    16    16    17    2
    17    17    18    1
    18    18    19    2
    19    19    20    1
    20     9    21    1
    21     4    22    2
    22    22    23    1
    23    23    24    1
    24    24    25    1
    25    25    26    1
    26    26    27    1
    27    27    28    1
    28    28    29    1
    29    29    30    1
    30    27    31    1
    31    31    32    1
    32    23    33    2
    33    33     2    1
    34    21     6    1
    35    32    24    1
    36    19    13    1
@<TRIPOS>SUBSTRUCTURE
     1 RES1        1 GROUP             0 ****  ****    0  
@<TRIPOS>MOLECULE
ligand_88
    33    36     1     0     0
SMALL
USER_CHARGES
****
Generated from the CSD

@<TRIPOS>ATOM
     1 C1      11.9138   4.3852  28.9051   C.3       1 RES1   0.0000
     2 C2      11.6579   4.7011  27.4561   C.2       1 RES1   0.0000
     3 N3      12.1176   3.8381  26.5258   N.2       1 RES1   0.0000
     4 C4      11.9140   4.0556  25.2087   C.2       1 RES1   0.0000
     5 N5      12.3665   3.1654  24.2787   N.2       1 RES1   0.0000
     6 C6      12.6192   3.4556  22.9667   C.2       1 RES1   0.0000
     7 N7      12.8388   4.7247  22.5721   N.2       1 RES1   0.0000
     8 C8      13.1169   4.8498  21.2464   C.2       1 RES1   0.0000
     9 C9      13.1623   3.6273  20.5622   C.2       1 RES1   0.0000
    10 C10     13.4034   3.2973  19.1329   C.2       1 RES1   0.0000
    11 O11     13.3536   2.1365  18.7828   O.2       1 RES1   0.0000
    12 N12     13.6536   4.2932  18.2776   N.am      1 RES1   0.0000
    13 C13     13.8739   4.0344  16.9108   C.2       1 RES1   0.0000
    14 C14     15.1494   3.7868  16.4064   C.2       1 RES1   0.0000
    15 C15     16.3473   3.7823  17.3225   C.3       1 RES1   0.0000
    16 C16     15.3204   3.5638  15.0439   C.2       1 RES1   0.0000
    17 C17     14.2310   3.5799  14.1774   C.2       1 RES1   0.0000
    18 C18     12.9576   3.8230  14.6817   C.2       1 RES1   0.0000
    19 C19     12.7911   4.0532  16.0449   C.2       1 RES1   0.0000
    20 Cl20    11.1508   4.3658  16.6938   Cl        1 RES1   0.0000
    21 S21     12.8134   2.2689  21.6536   S.3       1 RES1   0.0000
    22 C22     11.2518   5.2281  24.8156   C.2       1 RES1   0.0000
    23 C23     10.8008   6.1334  25.7985   C.2       1 RES1   0.0000
    24 N24     10.1212   7.3081  25.4179   N.3       1 RES1   0.0000
    25 C25     10.1177   8.3031  26.5059   C.3       1 RES1   0.0000
    26 C26      9.4123   9.5703  26.0934   C.3       1 RES1   0.0000
    27 N27      7.9997   9.2375  25.7336   N.3       1 RES1   1.0000
    28 C28      7.1767  10.4454  25.4813   C.3       1 RES1   0.0000
    29 C29      5.7136  10.1032  25.1172   C.3       1 RES1   0.0000
    30 O30      5.0555   9.2642  26.1084   O.3       1 RES1   0.0000
    31 C31      8.0321   8.2946  24.5759   C.3       1 RES1   0.0000
    32 C32      8.7488   7.0273  24.9786   C.3       1 RES1   0.0000
    33 N33     11.0163   5.8473  27.1022   N.2       1 RES1   0.0000
@<TRIPOS>BOND
     1     1     2    1
     2     2     3    2
     3     3     4    1
     4     4     5    1
     5     5     6    1
     6     6     7    2
     7     7     8    1
     8     8     9    2
     9     9    10    1
    10    10    11    2
    11    10    12   am
    12    12    13    1
    13    13    14    2
    14    14    15    1
    15    14    16    1
    16    16    17    2
    17    17    18    1
    18    18    19    2
    19    19    20    1
    20     9    21    1
    21     4    22    2
    22    22    23    1
    23    23    24    1
    24    24    25    1
    25    25    26    1
    26    26    27    1
    27    27    28    1
    28    28    29    1
    29    29    30    1
    30    27    31    1
    31    31    32    1
    32    23    33    2
    33    33     2    1
    34    21     6    1
    35    32    24    1
    36    19    13    1
@<TRIPOS>SUBSTRUCTURE
     1 RES1        1 GROUP             0 ****  ****    0  
@<TRIPOS>MOLECULE
ligand_89
    33    36     1     0     0
SMALL
USER_CHARGES
****
Generated from the CSD

@<TRIPOS>ATOM
     1 C1      11.4263   8.3917  27.9589   C.3       1 RES1   0.0000
     2 C2      12.0189   7.5207  26.8842   C.2       1 RES1   0.0000
     3 N3      11.8550   7.8962  25.5982   N.2       1 RES1   0.0000
     4 C4      12.3695   7.1663  24.5853   C.2       1 RES1   0.0000
     5 N5      12.2139   7.5671  23.2902   N.2       1 RES1   0.0000
     6 C6      12.2820   6.7481  22.1976   C.2       1 RES1   0.0000
     7 N7      12.0987   5.4192  22.3206   N.2       1 RES1   0.0000
     8 C8      12.1548   4.7431  21.1414   C.2       1 RES1   0.0000
     9 C9      12.3495   5.5700  20.0265   C.2       1 RES1   0.0000
    10 C10     12.4923   5.2670  18.5781   C.2       1 RES1   0.0000
    11 O11     12.6920   6.1808  17.8049   O.2       1 RES1   0.0000
    12 N12     12.4097   3.9949  18.1772   N.am      1 RES1   0.0000
    13 C13     12.5531   3.6541  16.8182   C.2       1 RES1   0.0000
    14 C14     13.7957   3.3520  16.2639   C.2       1 RES1   0.0000
    15 C15     15.0399   3.3749  17.1158   C.3       1 RES1   0.0000
    16 C16     13.8907   3.0482  14.9096   C.2       1 RES1   0.0000
    17 C17     12.7576   3.0373  14.1010   C.2       1 RES1   0.0000
    18 C18     11.5171   3.3350  14.6554   C.2       1 RES1   0.0000
    19 C19     11.4268   3.6460  16.0097   C.2       1 RES1   0.0000
    20 Cl20     9.8286   4.0288  16.7231   Cl        1 RES1   0.0000
    21 S21     12.4883   7.2746  20.5093   S.3       1 RES1   0.0000
    22 C22     13.0434   5.9744  24.8905   C.2       1 RES1   0.0000
    23 C23     13.1835   5.5817  26.2377   C.2       1 RES1   0.0000
    24 N24     13.8710   4.3939  26.5592   N.3       1 RES1   0.0000
    25 C25     13.5473   3.9383  27.9235   C.3       1 RES1   0.0000
    26 C26     14.2626   2.6547  28.2616   C.3       1 RES1   0.0000
    27 N27     15.7364   2.8867  28.1627   N.3       1 RES1   1.0000
    28 C28     16.5286   1.7295  28.6461   C.3       1 RES1   0.0000
    29 C29     18.0527   1.9710  28.5522   C.3       1 RES1   0.0000
    30 O30     18.4870   3.1791  29.2389   O.3       1 RES1   0.0000
    31 C31     16.0468   3.2646  26.7517   C.3       1 RES1   0.0000
    32 C32     15.3229   4.5435  26.4021   C.3       1 RES1   0.0000
    33 N33     12.6646   6.3678  27.2077   N.2       1 RES1   0.0000
@<TRIPOS>BOND
     1     1     2    1
     2     2     3    2
     3     3     4    1
     4     4     5    1
     5     5     6    1
     6     6     7    2
     7     7     8    1
     8     8     9    2
     9     9    10    1
    10    10    11    2
    11    10    12   am
    12    12    13    1
    13    13    14    2
    14    14    15    1
    15    14    16    1
    16    16    17    2
    17    17    18    1
    18    18    19    2
    19    19    20    1
    20     9    21    1
    21     4    22    2
    22    22    23    1
    23    23    24    1
    24    24    25    1
    25    25    26    1
    26    26    27    1
    27    27    28    1
    28    28    29    1
    29    29    30    1
    30    27    31    1
    31    31    32    1
    32    23    33    2
    33    33     2    1
    34    21     6    1
    35    32    24    1
    36    19    13    1
@<TRIPOS>SUBSTRUCTURE
     1 RES1        1 GROUP             0 ****  ****    0  
@<TRIPOS>MOLECULE
ligand_90
    33    36     1     0     0
SMALL
USER_CHARGES
****
Generated from the CSD

@<TRIPOS>ATOM
     1 C1      10.3355   6.9838  25.3861   C.3       1 RES1   0.0000
     2 C2      11.4253   6.0578  25.8550   C.2       1 RES1   0.0000
     3 N3      12.0751   5.3200  24.9303   N.2       1 RES1   0.0000
     4 C4      13.0698   4.4768  25.2812   C.2       1 RES1   0.0000
     5 N5      13.7325   3.7509  24.3347   N.2       1 RES1   0.0000
     6 C6      13.4807   3.7901  22.9914   C.2       1 RES1   0.0000
     7 N7      12.5150   4.5871  22.4948   N.2       1 RES1   0.0000
     8 C8      12.4112   4.5488  21.1389   C.2       1 RES1   0.0000
     9 C9      13.3595   3.7195  20.5244   C.2       1 RES1   0.0000
    10 C10     13.5965   3.3676  19.0996   C.2       1 RES1   0.0000
    11 O11     14.2750   2.3953  18.8409   O.2       1 RES1   0.0000
    12 N12     13.0420   4.1270  18.1500   N.am      1 RES1   0.0000
    13 C13     13.2374   3.8366  16.7858   C.2       1 RES1   0.0000
    14 C14     14.5014   3.8775  16.1999   C.2       1 RES1   0.0000
    15 C15     15.7149   4.2327  17.0217   C.3       1 RES1   0.0000
    16 C16     14.6404   3.6098  14.8418   C.2       1 RES1   0.0000
    17 C17     13.5318   3.2960  14.0606   C.2       1 RES1   0.0000
    18 C18     12.2710   3.2512  14.6465   C.2       1 RES1   0.0000
    19 C19     12.1345   3.5271  16.0046   C.2       1 RES1   0.0000
    20 Cl20    10.5105   3.4687  16.7586   Cl        1 RES1   0.0000
    21 S21     14.4086   2.9425  21.7301   S.3       1 RES1   0.0000
    22 C22     13.3890   4.3427  26.6406   C.2       1 RES1   0.0000
    23 C23     12.6829   5.1008  27.5975   C.2       1 RES1   0.0000
    24 N24     13.0034   4.9865  28.9653   N.pl3     1 RES1   0.0000
    25 C25     12.1140   5.3968  30.0474   C.3       1 RES1   0.0000
    26 C26     12.2556   4.4549  31.2178   C.3       1 RES1   0.0000
    27 N27     13.6756   4.3832  31.6719   N.3       1 RES1   1.0000
    28 C28     13.7796   3.4492  32.8195   C.3       1 RES1   0.0000
    29 C29     15.2254   3.3185  33.3512   C.3       1 RES1   0.0000
    30 O30     15.8247   4.5965  33.7079   O.3       1 RES1   0.0000
    31 C31     14.5743   4.0255  30.5350   C.3       1 RES1   0.0000
    32 C32     14.3977   4.9879  29.3873   C.3       1 RES1   0.0000
    33 N33     11.7122   5.9442  27.1800   N.2       1 RES1   0.0000
@<TRIPOS>BOND
     1     1     2    1
     2     2     3    2
     3     3     4    1
     4     4     5    1
     5     5     6    1
     6     6     7    2
     7     7     8    1
     8     8     9    2
     9     9    10    1
    10    10    11    2
    11    10    12   am
    12    12    13    1
    13    13    14    2
    14    14    15    1
    15    14    16    1
    16    16    17    2
    17    17    18    1
    18    18    19    2
    19    19    20    1
    20     9    21    1
    21     4    22    2
    22    22    23    1
    23    23    24    1
    24    24    25    1
    25    25    26    1
    26    26    27    1
    27    27    28    1
    28    28    29    1
    29    29    30    1
    30    27    31    1
    31    31    32    1
    32    23    33    2
    33    33     2    1
    34    21     6    1
    35    32    24    1
    36    19    13    1
@<TRIPOS>SUBSTRUCTURE
     1 RES1        1 GROUP             0 ****  ****    0  
@<TRIPOS>MOLECULE
ligand_91
    33    36     1     0     0
SMALL
USER_CHARGES
****
Generated from the CSD

@<TRIPOS>ATOM
     1 C1      11.7527   2.1864  26.8575   C.3       1 RES1   0.0000
     2 C2      11.8315   3.6568  26.5464   C.2       1 RES1   0.0000
     3 N3      12.0862   4.0251  25.2731   N.2       1 RES1   0.0000
     4 C4      12.1602   5.3272  24.9231   C.2       1 RES1   0.0000
     5 N5      12.3988   5.6869  23.6286   N.2       1 RES1   0.0000
     6 C6      12.5812   4.8175  22.5893   C.2       1 RES1   0.0000
     7 N7      12.5343   3.4862  22.7889   N.2       1 RES1   0.0000
     8 C8      12.6922   2.7524  21.6543   C.2       1 RES1   0.0000
     9 C9      12.8292   3.5289  20.4955   C.2       1 RES1   0.0000
    10 C10     13.0415   3.1590  19.0714   C.2       1 RES1   0.0000
    11 O11     13.2107   1.9913  18.7879   O.2       1 RES1   0.0000
    12 N12     13.0250   4.1250  18.1480   N.am      1 RES1   0.0000
    13 C13     13.2126   3.8254  16.7847   C.2       1 RES1   0.0000
    14 C14     14.4791   3.8127  16.2030   C.2       1 RES1   0.0000
    15 C15     15.7038   4.1172  17.0286   C.3       1 RES1   0.0000
    16 C16     14.6113   3.5382  14.8456   C.2       1 RES1   0.0000
    17 C17     13.4930   3.2707  14.0609   C.2       1 RES1   0.0000
    18 C18     12.2296   3.2794  14.6426   C.2       1 RES1   0.0000
    19 C19     12.1003   3.5620  16.0000   C.2       1 RES1   0.0000
    20 Cl20    10.4727   3.5726  16.7486   Cl        1 RES1   0.0000
    21 S21     12.7763   5.2639  20.8767   S.3       1 RES1   0.0000
    22 C22     12.0136   6.3011  25.9221   C.2       1 RES1   0.0000
    23 C23     11.7742   5.8999  27.2527   C.2       1 RES1   0.0000
    24 N24     11.6105   6.8683  28.2637   N.pl3     1 RES1   0.0000
    25 C25     11.2069   6.5578  29.6316   C.3       1 RES1   0.0000
    26 C26     11.9103   7.4776  30.5992   C.3       1 RES1   0.0000
    27 N27     11.6455   8.9068  30.2599   N.3       1 RES1   1.0000
    28 C28     12.3517   9.7820  31.2271   C.3       1 RES1   0.0000
    29 C29     12.1273  11.2851  30.9434   C.3       1 RES1   0.0000
    30 O30     10.7205  11.6561  30.8884   O.3       1 RES1   0.0000
    31 C31     12.0051   9.1856  28.8383   C.3       1 RES1   0.0000
    32 C32     11.2847   8.2427  27.9072   C.3       1 RES1   0.0000
    33 N33     11.6891   4.5804  27.5350   N.2       1 RES1   0.0000
@<TRIPOS>BOND
     1     1     2    1
     2     2     3    2
     3     3     4    1
     4     4     5    1
     5     5     6    1
     6     6     7    2
     7     7     8    1
     8     8     9    2
     9     9    10    1
    10    10    11    2
    11    10    12   am
    12    12    13    1
    13    13    14    2
    14    14    15    1
    15    14    16    1
    16    16    17    2
    17    17    18    1
    18    18    19    2
    19    19    20    1
    20     9    21    1
    21     4    22    2
    22    22    23    1
    23    23    24    1
    24    24    25    1
    25    25    26    1
    26    26    27    1
    27    27    28    1
    28    28    29    1
    29    29    30    1
    30    27    31    1
    31    31    32    1
    32    23    33    2
    33    33     2    1
    34    21     6    1
    35    32    24    1
    36    19    13    1
@<TRIPOS>SUBSTRUCTURE
     1 RES1        1 GROUP             0 ****  ****    0  
@<TRIPOS>MOLECULE
ligand_92
    33    36     1     0     0
SMALL
USER_CHARGES
****
Generated from the CSD

@<TRIPOS>ATOM
     1 C1      11.7527   2.1864  26.8575   C.3       1 RES1   0.0000
     2 C2      11.8315   3.6568  26.5464   C.2       1 RES1   0.0000
     3 N3      12.0862   4.0251  25.2731   N.2       1 RES1   0.0000
     4 C4      12.1602   5.3272  24.9231   C.2       1 RES1   0.0000
     5 N5      12.3988   5.6869  23.6286   N.2       1 RES1   0.0000
     6 C6      12.5812   4.8175  22.5893   C.2       1 RES1   0.0000
     7 N7      12.5343   3.4862  22.7889   N.2       1 RES1   0.0000
     8 C8      12.6922   2.7524  21.6543   C.2       1 RES1   0.0000
     9 C9      12.8292   3.5289  20.4955   C.2       1 RES1   0.0000
    10 C10     13.0415   3.1590  19.0714   C.2       1 RES1   0.0000
    11 O11     13.2089   1.9911  18.7877   O.2       1 RES1   0.0000
    12 N12     13.0269   4.1252  18.1482   N.am      1 RES1   0.0000
    13 C13     13.2145   3.8257  16.7849   C.2       1 RES1   0.0000
    14 C14     14.4812   3.8111  16.2036   C.2       1 RES1   0.0000
    15 C15     15.7061   4.1134  17.0298   C.3       1 RES1   0.0000
    16 C16     14.6134   3.5367  14.8462   C.2       1 RES1   0.0000
    17 C17     13.4950   3.2711  14.0610   C.2       1 RES1   0.0000
    18 C18     12.2314   3.2818  14.6423   C.2       1 RES1   0.0000
    19 C19     12.1020   3.5642  15.9997   C.2       1 RES1   0.0000
    20 Cl20    10.4742   3.5773  16.7477   Cl        1 RES1   0.0000
    21 S21     12.7763   5.2639  20.8767   S.3       1 RES1   0.0000
    22 C22     12.0136   6.3011  25.9221   C.2       1 RES1   0.0000
    23 C23     11.7742   5.8999  27.2527   C.2       1 RES1   0.0000
    24 N24     11.6105   6.8683  28.2637   N.pl3     1 RES1   0.0000
    25 C25     11.4566   8.2967  28.0063   C.3       1 RES1   0.0000
    26 C26     10.5028   8.9022  29.0066   C.3       1 RES1   0.0000
    27 N27     10.9633   8.6427  30.4024   N.3       1 RES1   1.0000
    28 C28     10.0043   9.2481  31.3585   C.3       1 RES1   0.0000
    29 C29     10.4114   9.0227  32.8328   C.3       1 RES1   0.0000
    30 O30     11.7581   9.4864  33.1349   O.3       1 RES1   0.0000
    31 C31     11.1761   7.1819  30.6234   C.3       1 RES1   0.0000
    32 C32     12.1305   6.6173  29.6011   C.3       1 RES1   0.0000
    33 N33     11.6891   4.5804  27.5350   N.2       1 RES1   0.0000
@<TRIPOS>BOND
     1     1     2    1
     2     2     3    2
     3     3     4    1
     4     4     5    1
     5     5     6    1
     6     6     7    2
     7     7     8    1
     8     8     9    2
     9     9    10    1
    10    10    11    2
    11    10    12   am
    12    12    13    1
    13    13    14    2
    14    14    15    1
    15    14    16    1
    16    16    17    2
    17    17    18    1
    18    18    19    2
    19    19    20    1
    20     9    21    1
    21     4    22    2
    22    22    23    1
    23    23    24    1
    24    24    25    1
    25    25    26    1
    26    26    27    1
    27    27    28    1
    28    28    29    1
    29    29    30    1
    30    27    31    1
    31    31    32    1
    32    23    33    2
    33    33     2    1
    34    21     6    1
    35    32    24    1
    36    19    13    1
@<TRIPOS>SUBSTRUCTURE
     1 RES1        1 GROUP             0 ****  ****    0  
@<TRIPOS>MOLECULE
ligand_93
    33    36     1     0     0
SMALL
USER_CHARGES
****
Generated from the CSD

@<TRIPOS>ATOM
     1 C1      12.2156   9.5550  25.2987   C.3       1 RES1   0.0000
     2 C2      12.1364   8.0854  25.6130   C.2       1 RES1   0.0000
     3 N3      12.1886   7.2111  24.5860   N.2       1 RES1   0.0000
     4 C4      12.1329   5.8787  24.7982   C.2       1 RES1   0.0000
     5 N5      12.2066   5.0044  23.7531   N.2       1 RES1   0.0000
     6 C6      12.3382   5.3561  22.4385   C.2       1 RES1   0.0000
     7 N7      12.4069   6.6515  22.0757   N.2       1 RES1   0.0000
     8 C8      12.5787   6.8420  20.7397   C.2       1 RES1   0.0000
     9 C9      12.6936   5.6502  20.0109   C.2       1 RES1   0.0000
    10 C10     12.8652   5.3873  18.5578   C.2       1 RES1   0.0000
    11 O11     12.8369   6.3228  17.7853   O.2       1 RES1   0.0000
    12 N12     13.0590   4.1290  18.1517   N.am      1 RES1   0.0000
    13 C13     13.2354   3.8285  16.7870   C.2       1 RES1   0.0000
    14 C14     14.4973   3.8133  16.1954   C.2       1 RES1   0.0000
    15 C15     15.7289   4.1160  17.0113   C.3       1 RES1   0.0000
    16 C16     14.6184   3.5380  14.8372   C.2       1 RES1   0.0000
    17 C17     13.4935   3.2721  14.0614   C.2       1 RES1   0.0000
    18 C18     12.2347   3.2834  14.6529   C.2       1 RES1   0.0000
    19 C19     12.1165   3.5667  16.0112   C.2       1 RES1   0.0000
    20 Cl20    10.4949   3.5806  16.7725   Cl        1 RES1   0.0000
    21 S21     12.5537   4.2329  21.0738   S.3       1 RES1   0.0000
    22 C22     11.9710   5.4134  26.1116   C.2       1 RES1   0.0000
    23 C23     11.8914   6.3404  27.1715   C.2       1 RES1   0.0000
    24 N24     11.7433   5.8859  28.4975   N.pl3     1 RES1   0.0000
    25 C25     11.8081   6.7548  29.6685   C.3       1 RES1   0.0000
    26 C26     10.8354   6.2790  30.7194   C.3       1 RES1   0.0000
    27 N27     11.0976   4.8541  31.0782   N.3       1 RES1   1.0000
    28 C28     10.1247   4.4185  32.1096   C.3       1 RES1   0.0000
    29 C29     10.3300   2.9471  32.5375   C.3       1 RES1   0.0000
    30 O30     11.6831   2.6645  32.9945   O.3       1 RES1   0.0000
    31 C31     11.0906   3.9943  29.8580   C.3       1 RES1   0.0000
    32 C32     12.0718   4.5071  28.8338   C.3       1 RES1   0.0000
    33 N33     11.9757   7.6613  26.8956   N.2       1 RES1   0.0000
@<TRIPOS>BOND
     1     1     2    1
     2     2     3    2
     3     3     4    1
     4     4     5    1
     5     5     6    1
     6     6     7    2
     7     7     8    1
     8     8     9    2
     9     9    10    1
    10    10    11    2
    11    10    12   am
    12    12    13    1
    13    13    14    2
    14    14    15    1
    15    14    16    1
    16    16    17    2
    17    17    18    1
    18    18    19    2
    19    19    20    1
    20     9    21    1
    21     4    22    2
    22    22    23    1
    23    23    24    1
    24    24    25    1
    25    25    26    1
    26    26    27    1
    27    27    28    1
    28    28    29    1
    29    29    30    1
    30    27    31    1
    31    31    32    1
    32    23    33    2
    33    33     2    1
    34    21     6    1
    35    32    24    1
    36    19    13    1
@<TRIPOS>SUBSTRUCTURE
     1 RES1        1 GROUP             0 ****  ****    0  
@<TRIPOS>MOLECULE
ligand_94
    33    36     1     0     0
SMALL
USER_CHARGES
****
Generated from the CSD

@<TRIPOS>ATOM
     1 C1      12.2156   9.5550  25.2987   C.3       1 RES1   0.0000
     2 C2      12.1364   8.0854  25.6130   C.2       1 RES1   0.0000
     3 N3      12.1886   7.2111  24.5860   N.2       1 RES1   0.0000
     4 C4      12.1329   5.8787  24.7982   C.2       1 RES1   0.0000
     5 N5      12.2066   5.0044  23.7531   N.2       1 RES1   0.0000
     6 C6      12.3382   5.3561  22.4385   C.2       1 RES1   0.0000
     7 N7      12.4069   6.6515  22.0757   N.2       1 RES1   0.0000
     8 C8      12.5787   6.8420  20.7397   C.2       1 RES1   0.0000
     9 C9      12.6936   5.6502  20.0109   C.2       1 RES1   0.0000
    10 C10     12.8652   5.3873  18.5578   C.2       1 RES1   0.0000
    11 O11     12.8386   6.3230  17.7855   O.2       1 RES1   0.0000
    12 N12     13.0571   4.1287  18.1515   N.am      1 RES1   0.0000
    13 C13     13.2335   3.8283  16.7868   C.2       1 RES1   0.0000
    14 C14     14.4956   3.8111  16.1957   C.2       1 RES1   0.0000
    15 C15     15.7274   4.1117  17.0121   C.3       1 RES1   0.0000
    16 C16     14.6167   3.5359  14.8374   C.2       1 RES1   0.0000
    17 C17     13.4916   3.2720  14.0612   C.2       1 RES1   0.0000
    18 C18     12.2326   3.2852  14.6523   C.2       1 RES1   0.0000
    19 C19     12.1144   3.5684  16.0105   C.2       1 RES1   0.0000
    20 Cl20    10.4925   3.5848  16.7713   Cl        1 RES1   0.0000
    21 S21     12.5537   4.2329  21.0738   S.3       1 RES1   0.0000
    22 C22     11.9710   5.4134  26.1116   C.2       1 RES1   0.0000
    23 C23     11.8914   6.3404  27.1715   C.2       1 RES1   0.0000
    24 N24     11.7433   5.8859  28.4975   N.pl3     1 RES1   0.0000
    25 C25     11.8779   4.4894  28.8999   C.3       1 RES1   0.0000
    26 C26     12.5162   4.4041  30.2646   C.3       1 RES1   0.0000
    27 N27     11.7359   5.1906  31.2648   N.3       1 RES1   1.0000
    28 C28     12.3903   5.0874  32.5920   C.3       1 RES1   0.0000
    29 C29     11.6402   5.8782  33.6884   C.3       1 RES1   0.0000
    30 O30     10.2373   5.5070  33.8072   O.3       1 RES1   0.0000
    31 C31     11.5554   6.5983  30.8024   C.3       1 RES1   0.0000
    32 C32     10.9197   6.6373  29.4352   C.3       1 RES1   0.0000
    33 N33     11.9757   7.6613  26.8956   N.2       1 RES1   0.0000
@<TRIPOS>BOND
     1     1     2    1
     2     2     3    2
     3     3     4    1
     4     4     5    1
     5     5     6    1
     6     6     7    2
     7     7     8    1
     8     8     9    2
     9     9    10    1
    10    10    11    2
    11    10    12   am
    12    12    13    1
    13    13    14    2
    14    14    15    1
    15    14    16    1
    16    16    17    2
    17    17    18    1
    18    18    19    2
    19    19    20    1
    20     9    21    1
    21     4    22    2
    22    22    23    1
    23    23    24    1
    24    24    25    1
    25    25    26    1
    26    26    27    1
    27    27    28    1
    28    28    29    1
    29    29    30    1
    30    27    31    1
    31    31    32    1
    32    23    33    2
    33    33     2    1
    34    21     6    1
    35    32    24    1
    36    19    13    1
@<TRIPOS>SUBSTRUCTURE
     1 RES1        1 GROUP             0 ****  ****    0  
@<TRIPOS>MOLECULE
ligand_95
    33    36     1     0     0
SMALL
USER_CHARGES
****
Generated from the CSD

@<TRIPOS>ATOM
     1 C1      10.4734   4.4482  25.9819   C.3       1 RES1   0.0000
     2 C2      11.4579   5.5865  25.9732   C.2       1 RES1   0.0000
     3 N3      12.1018   5.8622  24.8195   N.2       1 RES1   0.0000
     4 C4      12.9902   6.8760  24.7393   C.2       1 RES1   0.0000
     5 N5      13.6200   7.1574  23.5620   N.2       1 RES1   0.0000
     6 C6      13.4353   6.4819  22.3877   C.2       1 RES1   0.0000
     7 N7      12.5777   5.4455  22.3170   N.2       1 RES1   0.0000
     8 C8      12.4705   4.9019  21.0746   C.2       1 RES1   0.0000
     9 C9      13.2421   5.5566  20.1046   C.2       1 RES1   0.0000
    10 C10     13.4438   5.2973  18.6548   C.2       1 RES1   0.0000
    11 O11     13.9781   6.1494  17.9756   O.2       1 RES1   0.0000
    12 N12     13.0420   4.1270  18.1500   N.am      1 RES1   0.0000
    13 C13     13.2377   3.8209  16.7893   C.2       1 RES1   0.0000
    14 C14     14.5125   3.7212  16.2348   C.2       1 RES1   0.0000
    15 C15     15.7373   3.9348  17.0883   C.3       1 RES1   0.0000
    16 C16     14.6546   3.4440  14.8789   C.2       1 RES1   0.0000
    17 C17     13.5376   3.2596  14.0689   C.2       1 RES1   0.0000
    18 C18     12.2655   3.3551  14.6234   C.2       1 RES1   0.0000
    19 C19     12.1269   3.6402  15.9793   C.2       1 RES1   0.0000
    20 Cl20    10.4882   3.7626  16.6929   Cl        1 RES1   0.0000
    21 S21     14.1561   6.9047  20.8155   S.3       1 RES1   0.0000
    22 C22     13.2719   7.6160  25.8974   C.2       1 RES1   0.0000
    23 C23     12.6106   7.2986  27.1019   C.2       1 RES1   0.0000
    24 N24     12.8734   8.0434  28.2693   N.3       1 RES1   0.0000
    25 C25     14.1581   8.7602  28.1714   C.3       1 RES1   0.0000
    26 C26     14.4306   9.5771  29.4091   C.3       1 RES1   0.0000
    27 N27     14.4737   8.6600  30.5892   N.3       1 RES1   1.0000
    28 C28     14.9085   9.3478  31.8293   C.3       1 RES1   0.0000
    29 C29     16.3836   9.8067  31.7693   C.3       1 RES1   0.0000
    30 O30     17.3099   8.7264  31.4615   O.3       1 RES1   0.0000
    31 C31     13.1342   8.0116  30.7142   C.3       1 RES1   0.0000
    32 C32     12.8491   7.2013  29.4716   C.3       1 RES1   0.0000
    33 N33     11.7152   6.2856  27.1115   N.2       1 RES1   0.0000
@<TRIPOS>BOND
     1     1     2    1
     2     2     3    2
     3     3     4    1
     4     4     5    1
     5     5     6    1
     6     6     7    2
     7     7     8    1
     8     8     9    2
     9     9    10    1
    10    10    11    2
    11    10    12   am
    12    12    13    1
    13    13    14    2
    14    14    15    1
    15    14    16    1
    16    16    17    2
    17    17    18    1
    18    18    19    2
    19    19    20    1
    20     9    21    1
    21     4    22    2
    22    22    23    1
    23    23    24    1
    24    24    25    1
    25    25    26    1
    26    26    27    1
    27    27    28    1
    28    28    29    1
    29    29    30    1
    30    27    31    1
    31    31    32    1
    32    23    33    2
    33    33     2    1
    34    21     6    1
    35    32    24    1
    36    19    13    1
@<TRIPOS>SUBSTRUCTURE
     1 RES1        1 GROUP             0 ****  ****    0  
@<TRIPOS>MOLECULE
ligand_96
    33    36     1     0     0
SMALL
USER_CHARGES
****
Generated from the CSD

@<TRIPOS>ATOM
     1 C1      10.4734   4.4482  25.9819   C.3       1 RES1   0.0000
     2 C2      11.4579   5.5865  25.9732   C.2       1 RES1   0.0000
     3 N3      12.1018   5.8622  24.8195   N.2       1 RES1   0.0000
     4 C4      12.9902   6.8760  24.7393   C.2       1 RES1   0.0000
     5 N5      13.6200   7.1574  23.5620   N.2       1 RES1   0.0000
     6 C6      13.4353   6.4819  22.3877   C.2       1 RES1   0.0000
     7 N7      12.5777   5.4455  22.3170   N.2       1 RES1   0.0000
     8 C8      12.4705   4.9019  21.0746   C.2       1 RES1   0.0000
     9 C9      13.2421   5.5566  20.1046   C.2       1 RES1   0.0000
    10 C10     13.4438   5.2973  18.6548   C.2       1 RES1   0.0000
    11 O11     13.9780   6.1494  17.9756   O.2       1 RES1   0.0000
    12 N12     13.0420   4.1270  18.1500   N.am      1 RES1   0.0000
    13 C13     13.2376   3.8209  16.7892   C.2       1 RES1   0.0000
    14 C14     14.5125   3.7213  16.2347   C.2       1 RES1   0.0000
    15 C15     15.7373   3.9350  17.0882   C.3       1 RES1   0.0000
    16 C16     14.6545   3.4441  14.8789   C.2       1 RES1   0.0000
    17 C17     13.5375   3.2596  14.0689   C.2       1 RES1   0.0000
    18 C18     12.2654   3.3551  14.6234   C.2       1 RES1   0.0000
    19 C19     12.1268   3.6401  15.9794   C.2       1 RES1   0.0000
    20 Cl20    10.4881   3.7624  16.6930   Cl        1 RES1   0.0000
    21 S21     14.1561   6.9047  20.8155   S.3       1 RES1   0.0000
    22 C22     13.2719   7.6160  25.8974   C.2       1 RES1   0.0000
    23 C23     12.6106   7.2986  27.1019   C.2       1 RES1   0.0000
    24 N24     12.8734   8.0434  28.2693   N.3       1 RES1   0.0000
    25 C25     14.1580   8.7603  28.1713   C.3       1 RES1   0.0000
    26 C26     14.4306   9.5772  29.4091   C.3       1 RES1   0.0000
    27 N27     14.4737   8.6601  30.5891   N.3       1 RES1   1.0000
    28 C28     14.9086   9.3479  31.8293   C.3       1 RES1   0.0000
    29 C29     13.8271  10.2979  32.3933   C.3       1 RES1   0.0000
    30 O30     13.4431  11.3494  31.4623   O.3       1 RES1   0.0000
    31 C31     13.1343   8.0115  30.7142   C.3       1 RES1   0.0000
    32 C32     12.8493   7.2013  29.4715   C.3       1 RES1   0.0000
    33 N33     11.7152   6.2856  27.1115   N.2       1 RES1   0.0000
@<TRIPOS>BOND
     1     1     2    1
     2     2     3    2
     3     3     4    1
     4     4     5    1
     5     5     6    1
     6     6     7    2
     7     7     8    1
     8     8     9    2
     9     9    10    1
    10    10    11    2
    11    10    12   am
    12    12    13    1
    13    13    14    2
    14    14    15    1
    15    14    16    1
    16    16    17    2
    17    17    18    1
    18    18    19    2
    19    19    20    1
    20     9    21    1
    21     4    22    2
    22    22    23    1
    23    23    24    1
    24    24    25    1
    25    25    26    1
    26    26    27    1
    27    27    28    1
    28    28    29    1
    29    29    30    1
    30    27    31    1
    31    31    32    1
    32    23    33    2
    33    33     2    1
    34    21     6    1
    35    32    24    1
    36    19    13    1
@<TRIPOS>SUBSTRUCTURE
     1 RES1        1 GROUP             0 ****  ****    0  
@<TRIPOS>MOLECULE
ligand_97
    33    36     1     0     0
SMALL
USER_CHARGES
****
Generated from the CSD

@<TRIPOS>ATOM
     1 C1      11.6031   7.7956  25.3964   C.3       1 RES1   0.0000
     2 C2      12.0464   6.4359  25.8649   C.2       1 RES1   0.0000
     3 N3      12.3900   5.5223  24.9327   N.2       1 RES1   0.0000
     4 C4      12.8063   4.2867  25.2843   C.2       1 RES1   0.0000
     5 N5      13.1697   3.3784  24.3331   N.2       1 RES1   0.0000
     6 C6      13.1558   3.6008  22.9841   C.2       1 RES1   0.0000
     7 N7      12.7630   4.7891  22.4861   N.2       1 RES1   0.0000
     8 C8      12.8429   4.8728  21.1307   C.2       1 RES1   0.0000
     9 C9      13.3595   3.7195  20.5244   C.2       1 RES1   0.0000
    10 C10     13.5965   3.3676  19.0996   C.2       1 RES1   0.0000
    11 O11     14.2750   2.3953  18.8409   O.2       1 RES1   0.0000
    12 N12     13.0420   4.1270  18.1500   N.am      1 RES1   0.0000
    13 C13     13.2376   3.8367  16.7858   C.2       1 RES1   0.0000
    14 C14     14.5014   3.8789  16.1997   C.2       1 RES1   0.0000
    15 C15     15.7147   4.2354  17.0213   C.3       1 RES1   0.0000
    16 C16     14.6406   3.6111  14.8416   C.2       1 RES1   0.0000
    17 C17     13.5321   3.2962  14.0606   C.2       1 RES1   0.0000
    18 C18     12.2715   3.2501  14.6467   C.2       1 RES1   0.0000
    19 C19     12.1349   3.5260  16.0047   C.2       1 RES1   0.0000
    20 Cl20    10.5110   3.4661  16.7590   Cl        1 RES1   0.0000
    21 S21     13.7358   2.4732  21.7341   S.3       1 RES1   0.0000
    22 C22     12.8315   3.9479  26.6454   C.2       1 RES1   0.0000
    23 C23     12.4442   4.9049  27.6061   C.2       1 RES1   0.0000
    24 N24     12.4788   4.5825  28.9779   N.3       1 RES1   0.0000
    25 C25     12.4766   3.1230  29.1868   C.3       1 RES1   0.0000
    26 C26     12.5380   2.7748  30.6527   C.3       1 RES1   0.0000
    27 N27     11.3470   3.3662  31.3363   N.3       1 RES1   1.0000
    28 C28     11.2274   2.9314  32.7494   C.3       1 RES1   0.0000
    29 C29     10.7092   1.4810  32.8839   C.3       1 RES1   0.0000
    30 O30     11.5617   0.5022  32.2244   O.3       1 RES1   0.0000
    31 C31     11.4196   4.8497  31.1809   C.3       1 RES1   0.0000
    32 C32     11.3714   5.2051  29.7134   C.3       1 RES1   0.0000
    33 N33     12.0581   6.1324  27.1910   N.2       1 RES1   0.0000
@<TRIPOS>BOND
     1     1     2    1
     2     2     3    2
     3     3     4    1
     4     4     5    1
     5     5     6    1
     6     6     7    2
     7     7     8    1
     8     8     9    2
     9     9    10    1
    10    10    11    2
    11    10    12   am
    12    12    13    1
    13    13    14    2
    14    14    15    1
    15    14    16    1
    16    16    17    2
    17    17    18    1
    18    18    19    2
    19    19    20    1
    20     9    21    1
    21     4    22    2
    22    22    23    1
    23    23    24    1
    24    24    25    1
    25    25    26    1
    26    26    27    1
    27    27    28    1
    28    28    29    1
    29    29    30    1
    30    27    31    1
    31    31    32    1
    32    23    33    2
    33    33     2    1
    34    21     6    1
    35    32    24    1
    36    19    13    1
@<TRIPOS>SUBSTRUCTURE
     1 RES1        1 GROUP             0 ****  ****    0  
@<TRIPOS>MOLECULE
ligand_98
    33    36     1     0     0
SMALL
USER_CHARGES
****
Generated from the CSD

@<TRIPOS>ATOM
     1 C1      13.5468   7.2076  25.7851   C.3       1 RES1   0.0000
     2 C2      12.5347   6.1149  26.0007   C.2       1 RES1   0.0000
     3 N3      12.1860   5.3527  24.9428   N.2       1 RES1   0.0000
     4 C4      11.2914   4.3489  25.0685   C.2       1 RES1   0.0000
     5 N5      10.9619   3.5727  23.9958   N.2       1 RES1   0.0000
     6 C6      11.4715   3.7125  22.7348   C.2       1 RES1   0.0000
     7 N7      12.3752   4.6729  22.4599   N.2       1 RES1   0.0000
     8 C8      12.8197   4.6605  21.1743   C.2       1 RES1   0.0000
     9 C9      12.2807   3.6225  20.4017   C.2       1 RES1   0.0000
    10 C10     12.4628   3.2490  18.9744   C.2       1 RES1   0.0000
    11 O11     12.0695   2.1647  18.5973   O.2       1 RES1   0.0000
    12 N12     13.0420   4.1270  18.1500   N.am      1 RES1   0.0000
    13 C13     13.2044   3.8358  16.7816   C.2       1 RES1   0.0000
    14 C14     14.4657   3.7045  16.2033   C.2       1 RES1   0.0000
    15 C15     15.7112   3.8661  17.0381   C.3       1 RES1   0.0000
    16 C16     14.5755   3.4437  14.8412   C.2       1 RES1   0.0000
    17 C17     13.4395   3.3072  14.0484   C.2       1 RES1   0.0000
    18 C18     12.1808   3.4343  14.6266   C.2       1 RES1   0.0000
    19 C19     12.0747   3.7027  15.9889   C.2       1 RES1   0.0000
    20 Cl20    10.4532   3.8658  16.7331   Cl        1 RES1   0.0000
    21 S21     11.1450   2.6397  21.3517   S.3       1 RES1   0.0000
    22 C22     10.6886   4.1384  26.3175   C.2       1 RES1   0.0000
    23 C23     11.0438   4.9603  27.4071   C.2       1 RES1   0.0000
    24 N24     10.4565   4.7503  28.6711   N.3       1 RES1   0.0000
    25 C25      9.2004   3.9863  28.5596   C.3       1 RES1   0.0000
    26 C26      8.5822   3.7392  29.9126   C.3       1 RES1   0.0000
    27 N27      8.2946   5.0576  30.5564   N.3       1 RES1   1.0000
    28 C28      7.5259   4.9198  31.8175   C.3       1 RES1   0.0000
    29 C29      6.0903   4.3953  31.5850   C.3       1 RES1   0.0000
    30 O30      5.3310   5.1986  30.6375   O.3       1 RES1   0.0000
    31 C31      9.5931   5.7737  30.7336   C.3       1 RES1   0.0000
    32 C32     10.2243   6.0134  29.3822   C.3       1 RES1   0.0000
    33 N33     11.9626   5.9347  27.2218   N.2       1 RES1   0.0000
@<TRIPOS>BOND
     1     1     2    1
     2     2     3    2
     3     3     4    1
     4     4     5    1
     5     5     6    1
     6     6     7    2
     7     7     8    1
     8     8     9    2
     9     9    10    1
    10    10    11    2
    11    10    12   am
    12    12    13    1
    13    13    14    2
    14    14    15    1
    15    14    16    1
    16    16    17    2
    17    17    18    1
    18    18    19    2
    19    19    20    1
    20     9    21    1
    21     4    22    2
    22    22    23    1
    23    23    24    1
    24    24    25    1
    25    25    26    1
    26    26    27    1
    27    27    28    1
    28    28    29    1
    29    29    30    1
    30    27    31    1
    31    31    32    1
    32    23    33    2
    33    33     2    1
    34    21     6    1
    35    32    24    1
    36    19    13    1
@<TRIPOS>SUBSTRUCTURE
     1 RES1        1 GROUP             0 ****  ****    0  
@<TRIPOS>MOLECULE
ligand_99
    33    36     1     0     0
SMALL
USER_CHARGES
****
Generated from the CSD

@<TRIPOS>ATOM
     1 C1      11.9153   7.8118  25.4208   C.3       1 RES1   0.0000
     2 C2      11.9762   6.3743  25.8622   C.2       1 RES1   0.0000
     3 N3      12.1245   5.4236  24.9156   N.2       1 RES1   0.0000
     4 C4      12.1966   4.1156  25.2432   C.2       1 RES1   0.0000
     5 N5      12.3665   3.1654  24.2787   N.2       1 RES1   0.0000
     6 C6      12.4776   3.4130  22.9387   C.2       1 RES1   0.0000
     7 N7      12.4237   4.6726  22.4643   N.2       1 RES1   0.0000
     8 C8      12.5908   4.7624  21.1172   C.2       1 RES1   0.0000
     9 C9      12.8292   3.5289  20.4955   C.2       1 RES1   0.0000
    10 C10     13.0415   3.1590  19.0714   C.2       1 RES1   0.0000
    11 O11     13.1952   1.9896  18.7861   O.2       1 RES1   0.0000
    12 N12     13.0420   4.1270  18.1500   N.am      1 RES1   0.0000
    13 C13     13.2240   3.8270  16.7860   C.2       1 RES1   0.0000
    14 C14     14.4900   3.7930  16.2040   C.2       1 RES1   0.0000
    15 C15     15.7200   4.0740  17.0300   C.3       1 RES1   0.0000
    16 C16     14.6170   3.5190  14.8460   C.2       1 RES1   0.0000
    17 C17     13.4940   3.2730  14.0610   C.2       1 RES1   0.0000
    18 C18     12.2310   3.3030  14.6430   C.2       1 RES1   0.0000
    19 C19     12.1070   3.5850  16.0010   C.2       1 RES1   0.0000
    20 Cl20    10.4800   3.6230  16.7500   Cl        1 RES1   0.0000
    21 S21     12.8164   2.2022  21.6778   S.3       1 RES1   0.0000
    22 C22     12.0664   3.7523  26.5919   C.2       1 RES1   0.0000
    23 C23     11.8853   4.7554  27.5665   C.2       1 RES1   0.0000
    24 N24     11.7677   4.4054  28.9268   N.pl3     1 RES1   0.0000
    25 C25     11.8459   5.3901  30.0141   C.3       1 RES1   0.0000
    26 C26     10.4789   5.7994  30.4901   C.3       1 RES1   0.0000
    27 N27      9.6534   4.6202  30.8783   N.3       1 RES1   1.0000
    28 C28      8.3061   5.0354  31.3395   C.3       1 RES1   0.0000
    29 C29      8.3493   5.8284  32.6659   C.3       1 RES1   0.0000
    30 O30      9.0326   5.1189  33.7381   O.3       1 RES1   0.0000
    31 C31      9.5908   3.6369  29.7532   C.3       1 RES1   0.0000
    32 C32     10.9906   3.2540  29.3372   C.3       1 RES1   0.0000
    33 N33     11.8435   6.0493  27.1765   N.2       1 RES1   0.0000
@<TRIPOS>BOND
     1     1     2    1
     2     2     3    2
     3     3     4    1
     4     4     5    1
     5     5     6    1
     6     6     7    2
     7     7     8    1
     8     8     9    2
     9     9    10    1
    10    10    11    2
    11    10    12   am
    12    12    13    1
    13    13    14    2
    14    14    15    1
    15    14    16    1
    16    16    17    2
    17    17    18    1
    18    18    19    2
    19    19    20    1
    20     9    21    1
    21     4    22    2
    22    22    23    1
    23    23    24    1
    24    24    25    1
    25    25    26    1
    26    26    27    1
    27    27    28    1
    28    28    29    1
    29    29    30    1
    30    27    31    1
    31    31    32    1
    32    23    33    2
    33    33     2    1
    34    21     6    1
    35    32    24    1
    36    19    13    1
@<TRIPOS>SUBSTRUCTURE
     1 RES1        1 GROUP             0 ****  ****    0  
