@<TRIPOS>MOLECULE
native
    25    27     1     0     0
SMALL
USER_CHARGES
****
Generated from the CSD

@<TRIPOS>ATOM
     1 C1      86.3920   9.6320 -32.3450   C.3       1 RES1   0.0000
     2 C2      87.2370   8.3710 -32.6290   C.3       1 RES1   0.0000
     3 C3      86.3600   7.3130 -33.2510   C.3       1 RES1   0.0000
     4 N4      85.7180   6.4090 -32.3030   N.3       1 RES1   1.0000
     5 C5      86.1390   5.5770 -31.1970   C.3       1 RES1   0.0000
     6 C6      84.9880   4.8830 -30.5240   C.2       1 RES1   0.0000
     7 C7      84.0680   4.2060 -31.4010   C.3       1 RES1   0.0000
     8 C8      82.7440   4.0560 -30.5850   C.3       1 RES1   0.0000
     9 C9      81.8930   2.9090 -31.1000   C.2       1 RES1   0.0000
    10 C10     80.5040   3.1050 -31.3310   C.2       1 RES1   0.0000
    11 C11     79.7150   2.0390 -31.8150   C.2       1 RES1   0.0000
    12 C12     80.3040   0.8100 -32.0490   C.2       1 RES1   0.0000
    13 C13     81.6890   0.6110 -31.8060   C.2       1 RES1   0.0000
    14 C14     82.4780   1.6770 -31.3330   C.2       1 RES1   0.0000
    15 C15     83.8010   4.9540 -32.6460   C.3       1 RES1   0.0000
    16 C16     84.9960   5.6140 -33.2550   C.3       1 RES1   0.0000
    17 C17     88.4050   8.6430 -33.5170   C.3       1 RES1   0.0000
    18 O18     87.9650   9.0930 -34.7650   O.3       1 RES1   0.0000
    19 C19     89.3760   9.7090 -33.0300   C.2       1 RES1   0.0000
    20 C20     90.3090   9.4610 -32.0140   C.2       1 RES1   0.0000
    21 C21     91.1760  10.4590 -31.6210   C.2       1 RES1   0.0000
    22 C22     91.1630  11.7190 -32.2190   C.2       1 RES1   0.0000
    23 O23     92.0740  12.7470 -31.8080   O.3       1 RES1   0.0000
    24 C24     90.2480  11.9630 -33.2210   C.2       1 RES1   0.0000
    25 C25     89.3610  10.9500 -33.6230   C.2       1 RES1   0.0000
@<TRIPOS>BOND
     1     2     1    1
     2     2     3    1
     3     3     4    1
     4     4     5    1
     5     5     6    1
     6     6     7    1
     7     7     8    1
     8     8     9    1
     9     9    10    2
    10    10    11    1
    11    11    12    2
    12    12    13    1
    13    13    14    2
    14     7    15    1
    15    15    16    1
    16     2    17    1
    17    17    18    1
    18    17    19    1
    19    19    20    2
    20    20    21    1
    21    21    22    2
    22    22    23    1
    23    22    24    1
    24    24    25    2
    25    16     4    1
    26    25    19    1
    27    14     9    1
@<TRIPOS>SUBSTRUCTURE
     1 RES1        1 GROUP             0 ****  ****    0  
@<TRIPOS>MOLECULE
ligand_0
    25    27     1     0     0
SMALL
USER_CHARGES
****
Generated from the CSD

@<TRIPOS>ATOM
     1 C1      84.5203  10.2439 -32.7546   C.3       1 RES1   0.0000
     2 C2      85.2589   9.3134 -33.7411   C.3       1 RES1   0.0000
     3 C3      84.3177   8.2289 -34.2031   C.3       1 RES1   0.0000
     4 N4      83.7832   7.3833 -33.1414   N.3       1 RES1   1.0000
     5 C5      84.8706   6.7212 -32.3691   C.3       1 RES1   0.0000
     6 C6      84.2859   5.9493 -31.2023   C.3       1 RES1   0.0000
     7 C7      83.3522   4.8956 -31.7540   C.3       1 RES1   0.0000
     8 C8      82.7440   4.0560 -30.5850   C.3       1 RES1   0.0000
     9 C9      81.8930   2.9090 -31.1000   C.2       1 RES1   0.0000
    10 C10     80.5040   3.1050 -31.3310   C.2       1 RES1   0.0000
    11 C11     79.7150   2.0390 -31.8150   C.2       1 RES1   0.0000
    12 C12     80.3040   0.8100 -32.0490   C.2       1 RES1   0.0000
    13 C13     81.6890   0.6110 -31.8060   C.2       1 RES1   0.0000
    14 C14     82.4780   1.6770 -31.3330   C.2       1 RES1   0.0000
    15 C15     82.2620   5.5150 -32.5695   C.3       1 RES1   0.0000
    16 C16     82.8373   6.3718 -33.6725   C.3       1 RES1   0.0000
    17 C17     85.8091  10.0399 -34.9228   C.3       1 RES1   0.0000
    18 O18     84.7714  10.6312 -35.6489   O.3       1 RES1   0.0000
    19 C19     86.7752  11.1747 -34.6145   C.2       1 RES1   0.0000
    20 C20     86.3867  12.5204 -34.6643   C.2       1 RES1   0.0000
    21 C21     87.2992  13.5090 -34.3609   C.2       1 RES1   0.0000
    22 C22     88.6093  13.2083 -33.9885   C.2       1 RES1   0.0000
    23 O23     89.5478  14.2436 -33.6677   O.3       1 RES1   0.0000
    24 C24     88.9916  11.8848 -33.9357   C.2       1 RES1   0.0000
    25 C25     88.0660  10.8742 -34.2464   C.2       1 RES1   0.0000
@<TRIPOS>BOND
     1     2     1    1
     2     2     3    1
     3     3     4    1
     4     4     5    1
     5     5     6    1
     6     6     7    1
     7     7     8    1
     8     8     9    1
     9     9    10    2
    10    10    11    1
    11    11    12    2
    12    12    13    1
    13    13    14    2
    14     7    15    1
    15    15    16    1
    16     2    17    1
    17    17    18    1
    18    17    19    1
    19    19    20    2
    20    20    21    1
    21    21    22    2
    22    22    23    1
    23    22    24    1
    24    24    25    2
    25    16     4    1
    26    25    19    1
    27    14     9    1
@<TRIPOS>SUBSTRUCTURE
     1 RES1        1 GROUP             0 ****  ****    0  
@<TRIPOS>MOLECULE
ligand_1
    25    27     1     0     0
SMALL
USER_CHARGES
****
Generated from the CSD

@<TRIPOS>ATOM
     1 C1      88.2914   5.4068 -34.2666   C.3       1 RES1   0.0000
     2 C2      87.1585   6.0079 -35.1269   C.3       1 RES1   0.0000
     3 C3      86.2241   6.7943 -34.2416   C.3       1 RES1   0.0000
     4 N4      85.5871   6.0239 -33.1792   N.3       1 RES1   1.0000
     5 C5      84.8121   4.8756 -33.7251   C.3       1 RES1   0.0000
     6 C6      84.2657   4.0294 -32.5917   C.3       1 RES1   0.0000
     7 C7      83.3522   4.8956 -31.7540   C.3       1 RES1   0.0000
     8 C8      82.7440   4.0560 -30.5850   C.3       1 RES1   0.0000
     9 C9      81.8907   2.9107 -31.1000   C.2       1 RES1   0.0000
    10 C10     80.5038   3.1118 -31.3390   C.2       1 RES1   0.0000
    11 C11     79.7127   2.0473 -31.8230   C.2       1 RES1   0.0000
    12 C12     80.2976   0.8149 -32.0491   C.2       1 RES1   0.0000
    13 C13     81.6804   0.6108 -31.7980   C.2       1 RES1   0.0000
    14 C14     82.4716   1.6752 -31.3251   C.2       1 RES1   0.0000
    15 C15     84.0821   6.0841 -31.2138   C.3       1 RES1   0.0000
    16 C16     84.7190   6.8764 -32.3311   C.3       1 RES1   0.0000
    17 C17     87.6653   6.8810 -36.2258   C.3       1 RES1   0.0000
    18 O18     88.3662   7.9664 -35.6925   O.3       1 RES1   0.0000
    19 C19     88.6308   6.2262 -37.2032   C.2       1 RES1   0.0000
    20 C20     90.0145   6.4409 -37.1429   C.2       1 RES1   0.0000
    21 C21     90.8460   5.8103 -38.0446   C.2       1 RES1   0.0000
    22 C22     90.3491   4.9443 -39.0185   C.2       1 RES1   0.0000
    23 O23     91.2233   4.2879 -39.9463   O.3       1 RES1   0.0000
    24 C24     88.9885   4.7295 -39.0766   C.2       1 RES1   0.0000
    25 C25     88.1372   5.3718 -38.1615   C.2       1 RES1   0.0000
@<TRIPOS>BOND
     1     2     1    1
     2     2     3    1
     3     3     4    1
     4     4     5    1
     5     5     6    1
     6     6     7    1
     7     7     8    1
     8     8     9    1
     9     9    10    2
    10    10    11    1
    11    11    12    2
    12    12    13    1
    13    13    14    2
    14     7    15    1
    15    15    16    1
    16     2    17    1
    17    17    18    1
    18    17    19    1
    19    19    20    2
    20    20    21    1
    21    21    22    2
    22    22    23    1
    23    22    24    1
    24    24    25    2
    25    16     4    1
    26    25    19    1
    27    14     9    1
@<TRIPOS>SUBSTRUCTURE
     1 RES1        1 GROUP             0 ****  ****    0  
@<TRIPOS>MOLECULE
ligand_2
    25    27     1     0     0
SMALL
USER_CHARGES
****
Generated from the CSD

@<TRIPOS>ATOM
     1 C1      84.5363  10.2327 -32.7414   C.3       1 RES1   0.0000
     2 C2      85.2645   9.3089 -33.7419   C.3       1 RES1   0.0000
     3 C3      84.3177   8.2289 -34.2031   C.3       1 RES1   0.0000
     4 N4      83.7832   7.3833 -33.1414   N.3       1 RES1   1.0000
     5 C5      84.8706   6.7212 -32.3691   C.3       1 RES1   0.0000
     6 C6      84.2859   5.9493 -31.2023   C.3       1 RES1   0.0000
     7 C7      83.3522   4.8956 -31.7540   C.3       1 RES1   0.0000
     8 C8      82.7440   4.0560 -30.5850   C.3       1 RES1   0.0000
     9 C9      81.8930   2.9090 -31.1000   C.2       1 RES1   0.0000
    10 C10     80.5040   3.1050 -31.3310   C.2       1 RES1   0.0000
    11 C11     79.7150   2.0390 -31.8150   C.2       1 RES1   0.0000
    12 C12     80.3040   0.8100 -32.0490   C.2       1 RES1   0.0000
    13 C13     81.6890   0.6110 -31.8060   C.2       1 RES1   0.0000
    14 C14     82.4780   1.6770 -31.3330   C.2       1 RES1   0.0000
    15 C15     82.2620   5.5150 -32.5695   C.3       1 RES1   0.0000
    16 C16     82.8373   6.3718 -33.6725   C.3       1 RES1   0.0000
    17 C17     85.8042  10.0437 -34.9233   C.3       1 RES1   0.0000
    18 O18     86.7065   9.2353 -35.6205   O.3       1 RES1   0.0000
    19 C19     84.7787  10.4801 -35.9598   C.2       1 RES1   0.0000
    20 C20     84.6039   9.7967 -37.1708   C.2       1 RES1   0.0000
    21 C21     83.6493  10.2264 -38.0687   C.2       1 RES1   0.0000
    22 C22     82.8328  11.3251 -37.8011   C.2       1 RES1   0.0000
    23 O23     81.8382  11.7587 -38.7383   O.3       1 RES1   0.0000
    24 C24     83.0015  11.9959 -36.6085   C.2       1 RES1   0.0000
    25 C25     83.9745  11.5633 -35.6917   C.2       1 RES1   0.0000
@<TRIPOS>BOND
     1     2     1    1
     2     2     3    1
     3     3     4    1
     4     4     5    1
     5     5     6    1
     6     6     7    1
     7     7     8    1
     8     8     9    1
     9     9    10    2
    10    10    11    1
    11    11    12    2
    12    12    13    1
    13    13    14    2
    14     7    15    1
    15    15    16    1
    16     2    17    1
    17    17    18    1
    18    17    19    1
    19    19    20    2
    20    20    21    1
    21    21    22    2
    22    22    23    1
    23    22    24    1
    24    24    25    2
    25    16     4    1
    26    25    19    1
    27    14     9    1
@<TRIPOS>SUBSTRUCTURE
     1 RES1        1 GROUP             0 ****  ****    0  
@<TRIPOS>MOLECULE
ligand_3
    25    27     1     0     0
SMALL
USER_CHARGES
****
Generated from the CSD

@<TRIPOS>ATOM
     1 C1      88.2787   5.3881 -34.2737   C.3       1 RES1   0.0000
     2 C2      87.1530   6.0064 -35.1313   C.3       1 RES1   0.0000
     3 C3      86.2241   6.7943 -34.2416   C.3       1 RES1   0.0000
     4 N4      85.5871   6.0239 -33.1792   N.3       1 RES1   1.0000
     5 C5      84.8121   4.8756 -33.7251   C.3       1 RES1   0.0000
     6 C6      84.2657   4.0294 -32.5917   C.3       1 RES1   0.0000
     7 C7      83.3522   4.8956 -31.7540   C.3       1 RES1   0.0000
     8 C8      82.7440   4.0560 -30.5850   C.3       1 RES1   0.0000
     9 C9      81.8909   2.9105 -31.1000   C.2       1 RES1   0.0000
    10 C10     80.5038   3.1111 -31.3383   C.2       1 RES1   0.0000
    11 C11     79.7130   2.0465 -31.8222   C.2       1 RES1   0.0000
    12 C12     80.2982   0.8144 -32.0491   C.2       1 RES1   0.0000
    13 C13     81.6813   0.6108 -31.7988   C.2       1 RES1   0.0000
    14 C14     82.4722   1.6754 -31.3258   C.2       1 RES1   0.0000
    15 C15     84.0821   6.0841 -31.2138   C.3       1 RES1   0.0000
    16 C16     84.7190   6.8764 -32.3311   C.3       1 RES1   0.0000
    17 C17     87.6699   6.8834 -36.2223   C.3       1 RES1   0.0000
    18 O18     86.6532   7.1555 -37.1421   O.3       1 RES1   0.0000
    19 C19     88.1892   8.2469 -35.7892   C.2       1 RES1   0.0000
    20 C20     87.4429   9.4202 -35.9644   C.2       1 RES1   0.0000
    21 C21     87.9552  10.6283 -35.5399   C.2       1 RES1   0.0000
    22 C22     89.2023  10.7193 -34.9219   C.2       1 RES1   0.0000
    23 O23     89.7222  11.9793 -34.4775   O.3       1 RES1   0.0000
    24 C24     89.9358   9.5653 -34.7459   C.2       1 RES1   0.0000
    25 C25     89.4189   8.3325 -35.1790   C.2       1 RES1   0.0000
@<TRIPOS>BOND
     1     2     1    1
     2     2     3    1
     3     3     4    1
     4     4     5    1
     5     5     6    1
     6     6     7    1
     7     7     8    1
     8     8     9    1
     9     9    10    2
    10    10    11    1
    11    11    12    2
    12    12    13    1
    13    13    14    2
    14     7    15    1
    15    15    16    1
    16     2    17    1
    17    17    18    1
    18    17    19    1
    19    19    20    2
    20    20    21    1
    21    21    22    2
    22    22    23    1
    23    22    24    1
    24    24    25    2
    25    16     4    1
    26    25    19    1
    27    14     9    1
@<TRIPOS>SUBSTRUCTURE
     1 RES1        1 GROUP             0 ****  ****    0  
@<TRIPOS>MOLECULE
ligand_4
    25    27     1     0     0
SMALL
USER_CHARGES
****
Generated from the CSD

@<TRIPOS>ATOM
     1 C1      83.9719   9.6836 -36.1940   C.3       1 RES1   0.0000
     2 C2      83.2810   8.9651 -35.0146   C.3       1 RES1   0.0000
     3 C3      84.3177   8.2289 -34.2031   C.3       1 RES1   0.0000
     4 N4      83.7832   7.3833 -33.1414   N.3       1 RES1   1.0000
     5 C5      84.8706   6.7212 -32.3691   C.3       1 RES1   0.0000
     6 C6      84.2859   5.9493 -31.2023   C.3       1 RES1   0.0000
     7 C7      83.3522   4.8956 -31.7540   C.3       1 RES1   0.0000
     8 C8      82.7440   4.0560 -30.5850   C.3       1 RES1   0.0000
     9 C9      81.8930   2.9090 -31.1000   C.2       1 RES1   0.0000
    10 C10     80.5040   3.1050 -31.3310   C.2       1 RES1   0.0000
    11 C11     79.7150   2.0390 -31.8150   C.2       1 RES1   0.0000
    12 C12     80.3040   0.8100 -32.0490   C.2       1 RES1   0.0000
    13 C13     81.6890   0.6110 -31.8060   C.2       1 RES1   0.0000
    14 C14     82.4780   1.6770 -31.3330   C.2       1 RES1   0.0000
    15 C15     82.2620   5.5150 -32.5695   C.3       1 RES1   0.0000
    16 C16     82.8373   6.3718 -33.6725   C.3       1 RES1   0.0000
    17 C17     82.5199   9.8975 -34.1325   C.3       1 RES1   0.0000
    18 O18     83.3862  10.8358 -33.5643   O.3       1 RES1   0.0000
    19 C19     81.4351  10.7197 -34.8134   C.2       1 RES1   0.0000
    20 C20     81.6189  12.0686 -35.1464   C.2       1 RES1   0.0000
    21 C21     80.6074  12.7631 -35.7764   C.2       1 RES1   0.0000
    22 C22     79.3972  12.1548 -36.1090   C.2       1 RES1   0.0000
    23 O23     78.3551  12.8841 -36.7708   O.3       1 RES1   0.0000
    24 C24     79.2166  10.8269 -35.7851   C.2       1 RES1   0.0000
    25 C25     80.2433  10.1160 -35.1410   C.2       1 RES1   0.0000
@<TRIPOS>BOND
     1     2     1    1
     2     2     3    1
     3     3     4    1
     4     4     5    1
     5     5     6    1
     6     6     7    1
     7     7     8    1
     8     8     9    1
     9     9    10    2
    10    10    11    1
    11    11    12    2
    12    12    13    1
    13    13    14    2
    14     7    15    1
    15    15    16    1
    16     2    17    1
    17    17    18    1
    18    17    19    1
    19    19    20    2
    20    20    21    1
    21    21    22    2
    22    22    23    1
    23    22    24    1
    24    24    25    2
    25    16     4    1
    26    25    19    1
    27    14     9    1
@<TRIPOS>SUBSTRUCTURE
     1 RES1        1 GROUP             0 ****  ****    0  
@<TRIPOS>MOLECULE
ligand_5
    25    27     1     0     0
SMALL
USER_CHARGES
****
Generated from the CSD

@<TRIPOS>ATOM
     1 C1      87.5332   8.7740 -34.9945   C.3       1 RES1   0.0000
     2 C2      87.0593   7.9591 -33.7713   C.3       1 RES1   0.0000
     3 C3      86.2241   6.7943 -34.2416   C.3       1 RES1   0.0000
     4 N4      85.5871   6.0239 -33.1792   N.3       1 RES1   1.0000
     5 C5      84.8121   4.8756 -33.7251   C.3       1 RES1   0.0000
     6 C6      84.2657   4.0294 -32.5917   C.3       1 RES1   0.0000
     7 C7      83.3522   4.8956 -31.7540   C.3       1 RES1   0.0000
     8 C8      82.7440   4.0560 -30.5850   C.3       1 RES1   0.0000
     9 C9      81.8908   2.9106 -31.1000   C.2       1 RES1   0.0000
    10 C10     80.5038   3.1115 -31.3387   C.2       1 RES1   0.0000
    11 C11     79.7128   2.0470 -31.8227   C.2       1 RES1   0.0000
    12 C12     80.2979   0.8147 -32.0491   C.2       1 RES1   0.0000
    13 C13     81.6808   0.6108 -31.7984   C.2       1 RES1   0.0000
    14 C14     82.4718   1.6753 -31.3254   C.2       1 RES1   0.0000
    15 C15     84.0821   6.0841 -31.2138   C.3       1 RES1   0.0000
    16 C16     84.7190   6.8764 -32.3311   C.3       1 RES1   0.0000
    17 C17     88.1886   7.4627 -32.9318   C.3       1 RES1   0.0000
    18 O18     89.0025   6.6067 -33.6791   O.3       1 RES1   0.0000
    19 C19     89.1284   8.5277 -32.3851   C.2       1 RES1   0.0000
    20 C20     90.3870   8.7743 -32.9504   C.2       1 RES1   0.0000
    21 C21     91.1931   9.7621 -32.4243   C.2       1 RES1   0.0000
    22 C22     90.7854  10.5424 -31.3425   C.2       1 RES1   0.0000
    23 O23     91.6282  11.5718 -30.8083   O.3       1 RES1   0.0000
    24 C24     89.5461  10.3030 -30.7878   C.2       1 RES1   0.0000
    25 C25     88.7224   9.2960 -31.3189   C.2       1 RES1   0.0000
@<TRIPOS>BOND
     1     2     1    1
     2     2     3    1
     3     3     4    1
     4     4     5    1
     5     5     6    1
     6     6     7    1
     7     7     8    1
     8     8     9    1
     9     9    10    2
    10    10    11    1
    11    11    12    2
    12    12    13    1
    13    13    14    2
    14     7    15    1
    15    15    16    1
    16     2    17    1
    17    17    18    1
    18    17    19    1
    19    19    20    2
    20    20    21    1
    21    21    22    2
    22    22    23    1
    23    22    24    1
    24    24    25    2
    25    16     4    1
    26    25    19    1
    27    14     9    1
@<TRIPOS>SUBSTRUCTURE
     1 RES1        1 GROUP             0 ****  ****    0  
@<TRIPOS>MOLECULE
ligand_6
    25    27     1     0     0
SMALL
USER_CHARGES
****
Generated from the CSD

@<TRIPOS>ATOM
     1 C1      84.5476  10.2178 -32.7229   C.3       1 RES1   0.0000
     2 C2      85.2665   9.3073 -33.7422   C.3       1 RES1   0.0000
     3 C3      84.3177   8.2289 -34.2031   C.3       1 RES1   0.0000
     4 N4      83.7832   7.3833 -33.1414   N.3       1 RES1   1.0000
     5 C5      84.8706   6.7212 -32.3691   C.3       1 RES1   0.0000
     6 C6      84.2859   5.9493 -31.2023   C.3       1 RES1   0.0000
     7 C7      83.3522   4.8956 -31.7540   C.3       1 RES1   0.0000
     8 C8      82.7440   4.0560 -30.5850   C.3       1 RES1   0.0000
     9 C9      81.8930   2.9090 -31.1000   C.2       1 RES1   0.0000
    10 C10     80.5040   3.1050 -31.3310   C.2       1 RES1   0.0000
    11 C11     79.7150   2.0390 -31.8150   C.2       1 RES1   0.0000
    12 C12     80.3040   0.8100 -32.0490   C.2       1 RES1   0.0000
    13 C13     81.6890   0.6110 -31.8060   C.2       1 RES1   0.0000
    14 C14     82.4780   1.6770 -31.3330   C.2       1 RES1   0.0000
    15 C15     82.2620   5.5150 -32.5695   C.3       1 RES1   0.0000
    16 C16     82.8373   6.3718 -33.6725   C.3       1 RES1   0.0000
    17 C17     85.7889  10.0565 -34.9223   C.3       1 RES1   0.0000
    18 O18     86.6374  11.0844 -34.5014   O.3       1 RES1   0.0000
    19 C19     86.6095   9.2451 -35.9145   C.2       1 RES1   0.0000
    20 C20     86.0133   8.4511 -36.9036   C.2       1 RES1   0.0000
    21 C21     86.8047   7.7473 -37.7870   C.2       1 RES1   0.0000
    22 C22     88.1971   7.8117 -37.7356   C.2       1 RES1   0.0000
    23 O23     89.0104   7.0820 -38.6638   O.3       1 RES1   0.0000
    24 C24     88.7847   8.5953 -36.7652   C.2       1 RES1   0.0000
    25 C25     87.9824   9.3121 -35.8614   C.2       1 RES1   0.0000
@<TRIPOS>BOND
     1     2     1    1
     2     2     3    1
     3     3     4    1
     4     4     5    1
     5     5     6    1
     6     6     7    1
     7     7     8    1
     8     8     9    1
     9     9    10    2
    10    10    11    1
    11    11    12    2
    12    12    13    1
    13    13    14    2
    14     7    15    1
    15    15    16    1
    16     2    17    1
    17    17    18    1
    18    17    19    1
    19    19    20    2
    20    20    21    1
    21    21    22    2
    22    22    23    1
    23    22    24    1
    24    24    25    2
    25    16     4    1
    26    25    19    1
    27    14     9    1
@<TRIPOS>SUBSTRUCTURE
     1 RES1        1 GROUP             0 ****  ****    0  
@<TRIPOS>MOLECULE
ligand_7
    25    27     1     0     0
SMALL
USER_CHARGES
****
Generated from the CSD

@<TRIPOS>ATOM
     1 C1      88.2637   5.3665 -34.2738   C.3       1 RES1   0.0000
     2 C2      87.1510   6.0058 -35.1329   C.3       1 RES1   0.0000
     3 C3      86.2241   6.7943 -34.2416   C.3       1 RES1   0.0000
     4 N4      85.5871   6.0239 -33.1792   N.3       1 RES1   1.0000
     5 C5      84.8121   4.8756 -33.7251   C.3       1 RES1   0.0000
     6 C6      84.2657   4.0294 -32.5917   C.3       1 RES1   0.0000
     7 C7      83.3522   4.8956 -31.7540   C.3       1 RES1   0.0000
     8 C8      82.7440   4.0560 -30.5850   C.3       1 RES1   0.0000
     9 C9      81.8907   2.9107 -31.1000   C.2       1 RES1   0.0000
    10 C10     80.5038   3.1119 -31.3392   C.2       1 RES1   0.0000
    11 C11     79.7127   2.0475 -31.8232   C.2       1 RES1   0.0000
    12 C12     80.2975   0.8150 -32.0491   C.2       1 RES1   0.0000
    13 C13     81.6802   0.6108 -31.7978   C.2       1 RES1   0.0000
    14 C14     82.4714   1.6752 -31.3249   C.2       1 RES1   0.0000
    15 C15     84.0821   6.0841 -31.2138   C.3       1 RES1   0.0000
    16 C16     84.7190   6.8764 -32.3311   C.3       1 RES1   0.0000
    17 C17     87.6851   6.8886 -36.2109   C.3       1 RES1   0.0000
    18 O18     88.5769   6.1761 -37.0175   O.3       1 RES1   0.0000
    19 C19     86.6536   7.4637 -37.1710   C.2       1 RES1   0.0000
    20 C20     85.8945   8.5997 -36.8586   C.2       1 RES1   0.0000
    21 C21     84.9834   9.0876 -37.7718   C.2       1 RES1   0.0000
    22 C22     84.8005   8.4873 -39.0174   C.2       1 RES1   0.0000
    23 O23     83.8560   9.0074 -39.9625   O.3       1 RES1   0.0000
    24 C24     85.5492   7.3718 -39.3272   C.2       1 RES1   0.0000
    25 C25     86.4769   6.8696 -38.3989   C.2       1 RES1   0.0000
@<TRIPOS>BOND
     1     2     1    1
     2     2     3    1
     3     3     4    1
     4     4     5    1
     5     5     6    1
     6     6     7    1
     7     7     8    1
     8     8     9    1
     9     9    10    2
    10    10    11    1
    11    11    12    2
    12    12    13    1
    13    13    14    2
    14     7    15    1
    15    15    16    1
    16     2    17    1
    17    17    18    1
    18    17    19    1
    19    19    20    2
    20    20    21    1
    21    21    22    2
    22    22    23    1
    23    22    24    1
    24    24    25    2
    25    16     4    1
    26    25    19    1
    27    14     9    1
@<TRIPOS>SUBSTRUCTURE
     1 RES1        1 GROUP             0 ****  ****    0  
@<TRIPOS>MOLECULE
ligand_8
    25    27     1     0     0
SMALL
USER_CHARGES
****
Generated from the CSD

@<TRIPOS>ATOM
     1 C1      83.9596   9.5267 -36.2976   C.3       1 RES1   0.0000
     2 C2      83.2793   8.9207 -35.0507   C.3       1 RES1   0.0000
     3 C3      84.3177   8.2289 -34.2031   C.3       1 RES1   0.0000
     4 N4      83.7832   7.3833 -33.1414   N.3       1 RES1   1.0000
     5 C5      84.8706   6.7212 -32.3691   C.3       1 RES1   0.0000
     6 C6      84.2859   5.9493 -31.2023   C.3       1 RES1   0.0000
     7 C7      83.3522   4.8956 -31.7540   C.3       1 RES1   0.0000
     8 C8      82.7440   4.0560 -30.5850   C.3       1 RES1   0.0000
     9 C9      81.8930   2.9090 -31.1000   C.2       1 RES1   0.0000
    10 C10     80.5040   3.1050 -31.3310   C.2       1 RES1   0.0000
    11 C11     79.7150   2.0390 -31.8150   C.2       1 RES1   0.0000
    12 C12     80.3040   0.8100 -32.0490   C.2       1 RES1   0.0000
    13 C13     81.6890   0.6110 -31.8060   C.2       1 RES1   0.0000
    14 C14     82.4780   1.6770 -31.3330   C.2       1 RES1   0.0000
    15 C15     82.2620   5.5150 -32.5695   C.3       1 RES1   0.0000
    16 C16     82.8373   6.3718 -33.6725   C.3       1 RES1   0.0000
    17 C17     82.5569   9.9378 -34.2319   C.3       1 RES1   0.0000
    18 O18     81.4885   9.3404 -33.5572   O.3       1 RES1   0.0000
    19 C19     83.3773  10.6234 -33.1487   C.2       1 RES1   0.0000
    20 C20     83.2351  10.3061 -31.7910   C.2       1 RES1   0.0000
    21 C21     84.0148  10.9479 -30.8517   C.2       1 RES1   0.0000
    22 C22     84.9617  11.9053 -31.2154   C.2       1 RES1   0.0000
    23 O23     85.7725  12.5610 -30.2314   O.3       1 RES1   0.0000
    24 C24     85.1049  12.2158 -32.5510   C.2       1 RES1   0.0000
    25 C25     84.3109  11.5662 -33.5113   C.2       1 RES1   0.0000
@<TRIPOS>BOND
     1     2     1    1
     2     2     3    1
     3     3     4    1
     4     4     5    1
     5     5     6    1
     6     6     7    1
     7     7     8    1
     8     8     9    1
     9     9    10    2
    10    10    11    1
    11    11    12    2
    12    12    13    1
    13    13    14    2
    14     7    15    1
    15    15    16    1
    16     2    17    1
    17    17    18    1
    18    17    19    1
    19    19    20    2
    20    20    21    1
    21    21    22    2
    22    22    23    1
    23    22    24    1
    24    24    25    2
    25    16     4    1
    26    25    19    1
    27    14     9    1
@<TRIPOS>SUBSTRUCTURE
     1 RES1        1 GROUP             0 ****  ****    0  
@<TRIPOS>MOLECULE
ligand_9
    25    27     1     0     0
SMALL
USER_CHARGES
****
Generated from the CSD

@<TRIPOS>ATOM
     1 C1      87.3722   8.8724 -34.9921   C.3       1 RES1   0.0000
     2 C2      87.0128   7.9925 -33.7750   C.3       1 RES1   0.0000
     3 C3      86.2241   6.7943 -34.2416   C.3       1 RES1   0.0000
     4 N4      85.5871   6.0239 -33.1792   N.3       1 RES1   1.0000
     5 C5      84.8121   4.8756 -33.7251   C.3       1 RES1   0.0000
     6 C6      84.2657   4.0294 -32.5917   C.3       1 RES1   0.0000
     7 C7      83.3522   4.8956 -31.7540   C.3       1 RES1   0.0000
     8 C8      82.7440   4.0560 -30.5850   C.3       1 RES1   0.0000
     9 C9      81.8908   2.9107 -31.1000   C.2       1 RES1   0.0000
    10 C10     80.5038   3.1117 -31.3390   C.2       1 RES1   0.0000
    11 C11     79.7128   2.0472 -31.8229   C.2       1 RES1   0.0000
    12 C12     80.2977   0.8148 -32.0491   C.2       1 RES1   0.0000
    13 C13     81.6805   0.6108 -31.7981   C.2       1 RES1   0.0000
    14 C14     82.4716   1.6753 -31.3252   C.2       1 RES1   0.0000
    15 C15     84.0821   6.0841 -31.2138   C.3       1 RES1   0.0000
    16 C16     84.7190   6.8764 -32.3311   C.3       1 RES1   0.0000
    17 C17     88.2125   7.5397 -33.0118   C.3       1 RES1   0.0000
    18 O18     87.8801   7.3393 -31.6690   O.3       1 RES1   0.0000
    19 C19     88.8335   6.2271 -33.4675   C.2       1 RES1   0.0000
    20 C20     88.6699   5.0347 -32.7495   C.2       1 RES1   0.0000
    21 C21     89.2425   3.8697 -33.2156   C.2       1 RES1   0.0000
    22 C22     89.9772   3.8370 -34.4007   C.2       1 RES1   0.0000
    23 O23     90.5618   2.6189 -34.8802   O.3       1 RES1   0.0000
    24 C24     90.1359   5.0087 -35.1097   C.2       1 RES1   0.0000
    25 C25     89.5564   6.1985 -34.6373   C.2       1 RES1   0.0000
@<TRIPOS>BOND
     1     2     1    1
     2     2     3    1
     3     3     4    1
     4     4     5    1
     5     5     6    1
     6     6     7    1
     7     7     8    1
     8     8     9    1
     9     9    10    2
    10    10    11    1
    11    11    12    2
    12    12    13    1
    13    13    14    2
    14     7    15    1
    15    15    16    1
    16     2    17    1
    17    17    18    1
    18    17    19    1
    19    19    20    2
    20    20    21    1
    21    21    22    2
    22    22    23    1
    23    22    24    1
    24    24    25    2
    25    16     4    1
    26    25    19    1
    27    14     9    1
@<TRIPOS>SUBSTRUCTURE
     1 RES1        1 GROUP             0 ****  ****    0  
@<TRIPOS>MOLECULE
ligand_10
    25    27     1     0     0
SMALL
USER_CHARGES
****
Generated from the CSD

@<TRIPOS>ATOM
     1 C1      84.8964  10.4851 -35.0830   C.3       1 RES1   0.0000
     2 C2      84.5309   9.6726 -33.8216   C.3       1 RES1   0.0000
     3 C3      84.3177   8.2289 -34.2031   C.3       1 RES1   0.0000
     4 N4      83.7832   7.3833 -33.1414   N.3       1 RES1   1.0000
     5 C5      84.8706   6.7212 -32.3691   C.3       1 RES1   0.0000
     6 C6      84.2859   5.9493 -31.2023   C.3       1 RES1   0.0000
     7 C7      83.3522   4.8956 -31.7540   C.3       1 RES1   0.0000
     8 C8      82.7440   4.0560 -30.5850   C.3       1 RES1   0.0000
     9 C9      81.8930   2.9090 -31.1000   C.2       1 RES1   0.0000
    10 C10     80.5040   3.1050 -31.3310   C.2       1 RES1   0.0000
    11 C11     79.7150   2.0390 -31.8150   C.2       1 RES1   0.0000
    12 C12     80.3040   0.8100 -32.0490   C.2       1 RES1   0.0000
    13 C13     81.6890   0.6110 -31.8060   C.2       1 RES1   0.0000
    14 C14     82.4780   1.6770 -31.3330   C.2       1 RES1   0.0000
    15 C15     82.2620   5.5150 -32.5695   C.3       1 RES1   0.0000
    16 C16     82.8373   6.3718 -33.6725   C.3       1 RES1   0.0000
    17 C17     85.5677   9.7633 -32.7523   C.3       1 RES1   0.0000
    18 O18     86.7519   9.1555 -33.1787   O.3       1 RES1   0.0000
    19 C19     85.9711  11.1704 -32.3353   C.2       1 RES1   0.0000
    20 C20     87.1646  11.7641 -32.7681   C.2       1 RES1   0.0000
    21 C21     87.4744  13.0482 -32.3717   C.2       1 RES1   0.0000
    22 C22     86.6210  13.7894 -31.5546   C.2       1 RES1   0.0000
    23 O23     86.9493  15.1265 -31.1547   O.3       1 RES1   0.0000
    24 C24     85.4450  13.2076 -31.1311   C.2       1 RES1   0.0000
    25 C25     85.1263  11.8986 -31.5304   C.2       1 RES1   0.0000
@<TRIPOS>BOND
     1     2     1    1
     2     2     3    1
     3     3     4    1
     4     4     5    1
     5     5     6    1
     6     6     7    1
     7     7     8    1
     8     8     9    1
     9     9    10    2
    10    10    11    1
    11    11    12    2
    12    12    13    1
    13    13    14    2
    14     7    15    1
    15    15    16    1
    16     2    17    1
    17    17    18    1
    18    17    19    1
    19    19    20    2
    20    20    21    1
    21    21    22    2
    22    22    23    1
    23    22    24    1
    24    24    25    2
    25    16     4    1
    26    25    19    1
    27    14     9    1
@<TRIPOS>SUBSTRUCTURE
     1 RES1        1 GROUP             0 ****  ****    0  
@<TRIPOS>MOLECULE
ligand_11
    25    27     1     0     0
SMALL
USER_CHARGES
****
Generated from the CSD

@<TRIPOS>ATOM
     1 C1      88.2512   7.3958 -35.5564   C.3       1 RES1   0.0000
     2 C2      87.6342   6.3752 -34.5753   C.3       1 RES1   0.0000
     3 C3      86.2241   6.7943 -34.2416   C.3       1 RES1   0.0000
     4 N4      85.5871   6.0239 -33.1792   N.3       1 RES1   1.0000
     5 C5      84.8121   4.8756 -33.7251   C.3       1 RES1   0.0000
     6 C6      84.2657   4.0294 -32.5917   C.3       1 RES1   0.0000
     7 C7      83.3522   4.8956 -31.7540   C.3       1 RES1   0.0000
     8 C8      82.7440   4.0560 -30.5850   C.3       1 RES1   0.0000
     9 C9      81.8907   2.9107 -31.1000   C.2       1 RES1   0.0000
    10 C10     80.5038   3.1120 -31.3393   C.2       1 RES1   0.0000
    11 C11     79.7127   2.0475 -31.8232   C.2       1 RES1   0.0000
    12 C12     80.2974   0.8150 -32.0491   C.2       1 RES1   0.0000
    13 C13     81.6802   0.6108 -31.7978   C.2       1 RES1   0.0000
    14 C14     82.4714   1.6752 -31.3248   C.2       1 RES1   0.0000
    15 C15     84.0821   6.0841 -31.2138   C.3       1 RES1   0.0000
    16 C16     84.7190   6.8764 -32.3311   C.3       1 RES1   0.0000
    17 C17     87.6322   4.9827 -35.1117   C.3       1 RES1   0.0000
    18 O18     86.7854   4.8963 -36.2203   O.3       1 RES1   0.0000
    19 C19     88.9752   4.4550 -35.5954   C.2       1 RES1   0.0000
    20 C20     89.3032   4.3836 -36.9561   C.2       1 RES1   0.0000
    21 C21     90.5408   3.9106 -37.3391   C.2       1 RES1   0.0000
    22 C22     91.4937   3.5085 -36.4033   C.2       1 RES1   0.0000
    23 O23     92.7803   3.0255 -36.8120   O.3       1 RES1   0.0000
    24 C24     91.1735   3.5816 -35.0643   C.2       1 RES1   0.0000
    25 C25     89.9128   4.0605 -34.6695   C.2       1 RES1   0.0000
@<TRIPOS>BOND
     1     2     1    1
     2     2     3    1
     3     3     4    1
     4     4     5    1
     5     5     6    1
     6     6     7    1
     7     7     8    1
     8     8     9    1
     9     9    10    2
    10    10    11    1
    11    11    12    2
    12    12    13    1
    13    13    14    2
    14     7    15    1
    15    15    16    1
    16     2    17    1
    17    17    18    1
    18    17    19    1
    19    19    20    2
    20    20    21    1
    21    21    22    2
    22    22    23    1
    23    22    24    1
    24    24    25    2
    25    16     4    1
    26    25    19    1
    27    14     9    1
@<TRIPOS>SUBSTRUCTURE
     1 RES1        1 GROUP             0 ****  ****    0  
@<TRIPOS>MOLECULE
ligand_12
    25    27     1     0     0
SMALL
USER_CHARGES
****
Generated from the CSD

@<TRIPOS>ATOM
     1 C1      83.9252   9.4517 -36.3362   C.3       1 RES1   0.0000
     2 C2      83.2803   8.9526 -35.0249   C.3       1 RES1   0.0000
     3 C3      84.3177   8.2289 -34.2031   C.3       1 RES1   0.0000
     4 N4      83.7832   7.3833 -33.1414   N.3       1 RES1   1.0000
     5 C5      84.8706   6.7212 -32.3691   C.3       1 RES1   0.0000
     6 C6      84.2859   5.9493 -31.2023   C.3       1 RES1   0.0000
     7 C7      83.3522   4.8956 -31.7540   C.3       1 RES1   0.0000
     8 C8      82.7440   4.0560 -30.5850   C.3       1 RES1   0.0000
     9 C9      81.8930   2.9090 -31.1000   C.2       1 RES1   0.0000
    10 C10     80.5040   3.1050 -31.3310   C.2       1 RES1   0.0000
    11 C11     79.7150   2.0390 -31.8150   C.2       1 RES1   0.0000
    12 C12     80.3040   0.8100 -32.0490   C.2       1 RES1   0.0000
    13 C13     81.6890   0.6110 -31.8060   C.2       1 RES1   0.0000
    14 C14     82.4780   1.6770 -31.3330   C.2       1 RES1   0.0000
    15 C15     82.2620   5.5150 -32.5695   C.3       1 RES1   0.0000
    16 C16     82.8373   6.3718 -33.6725   C.3       1 RES1   0.0000
    17 C17     82.6777  10.0542 -34.2186   C.3       1 RES1   0.0000
    18 O18     81.8538  10.8444 -35.0250   O.3       1 RES1   0.0000
    19 C19     81.7974   9.6212 -33.0550   C.2       1 RES1   0.0000
    20 C20     82.1556   9.8552 -31.7203   C.2       1 RES1   0.0000
    21 C21     81.3133   9.4548 -30.7043   C.2       1 RES1   0.0000
    22 C22     80.0948   8.8286 -30.9659   C.2       1 RES1   0.0000
    23 O23     79.2231   8.4233 -29.9022   O.3       1 RES1   0.0000
    24 C24     79.7398   8.6011 -32.2786   C.2       1 RES1   0.0000
    25 C25     80.5959   9.0051 -33.3170   C.2       1 RES1   0.0000
@<TRIPOS>BOND
     1     2     1    1
     2     2     3    1
     3     3     4    1
     4     4     5    1
     5     5     6    1
     6     6     7    1
     7     7     8    1
     8     8     9    1
     9     9    10    2
    10    10    11    1
    11    11    12    2
    12    12    13    1
    13    13    14    2
    14     7    15    1
    15    15    16    1
    16     2    17    1
    17    17    18    1
    18    17    19    1
    19    19    20    2
    20    20    21    1
    21    21    22    2
    22    22    23    1
    23    22    24    1
    24    24    25    2
    25    16     4    1
    26    25    19    1
    27    14     9    1
@<TRIPOS>SUBSTRUCTURE
     1 RES1        1 GROUP             0 ****  ****    0  
@<TRIPOS>MOLECULE
ligand_13
    25    27     1     0     0
SMALL
USER_CHARGES
****
Generated from the CSD

@<TRIPOS>ATOM
     1 C1      87.3019   8.9204 -34.9611   C.3       1 RES1   0.0000
     2 C2      87.0462   7.9687 -33.7722   C.3       1 RES1   0.0000
     3 C3      86.2241   6.7943 -34.2416   C.3       1 RES1   0.0000
     4 N4      85.5871   6.0239 -33.1792   N.3       1 RES1   1.0000
     5 C5      84.8121   4.8756 -33.7251   C.3       1 RES1   0.0000
     6 C6      84.2657   4.0294 -32.5917   C.3       1 RES1   0.0000
     7 C7      83.3522   4.8956 -31.7540   C.3       1 RES1   0.0000
     8 C8      82.7440   4.0560 -30.5850   C.3       1 RES1   0.0000
     9 C9      81.8915   2.9101 -31.1000   C.2       1 RES1   0.0000
    10 C10     80.5039   3.1096 -31.3364   C.2       1 RES1   0.0000
    11 C11     79.7135   2.0446 -31.8204   C.2       1 RES1   0.0000
    12 C12     80.2997   0.8133 -32.0491   C.2       1 RES1   0.0000
    13 C13     81.6833   0.6109 -31.8007   C.2       1 RES1   0.0000
    14 C14     82.4737   1.6758 -31.3277   C.2       1 RES1   0.0000
    15 C15     84.0821   6.0841 -31.2138   C.3       1 RES1   0.0000
    16 C16     84.7190   6.8764 -32.3311   C.3       1 RES1   0.0000
    17 C17     88.3059   7.4805 -33.1384   C.3       1 RES1   0.0000
    18 O18     89.1562   8.5566 -32.8687   O.3       1 RES1   0.0000
    19 C19     88.1441   6.7589 -31.8082   C.2       1 RES1   0.0000
    20 C20     88.4282   5.3945 -31.6596   C.2       1 RES1   0.0000
    21 C21     88.2784   4.7934 -30.4273   C.2       1 RES1   0.0000
    22 C22     87.8608   5.5117 -29.3071   C.2       1 RES1   0.0000
    23 O23     87.7158   4.8786 -28.0289   O.3       1 RES1   0.0000
    24 C24     87.5845   6.8547 -29.4513   C.2       1 RES1   0.0000
    25 C25     87.7333   7.4709 -30.7054   C.2       1 RES1   0.0000
@<TRIPOS>BOND
     1     2     1    1
     2     2     3    1
     3     3     4    1
     4     4     5    1
     5     5     6    1
     6     6     7    1
     7     7     8    1
     8     8     9    1
     9     9    10    2
    10    10    11    1
    11    11    12    2
    12    12    13    1
    13    13    14    2
    14     7    15    1
    15    15    16    1
    16     2    17    1
    17    17    18    1
    18    17    19    1
    19    19    20    2
    20    20    21    1
    21    21    22    2
    22    22    23    1
    23    22    24    1
    24    24    25    2
    25    16     4    1
    26    25    19    1
    27    14     9    1
@<TRIPOS>SUBSTRUCTURE
     1 RES1        1 GROUP             0 ****  ****    0  
@<TRIPOS>MOLECULE
ligand_14
    25    27     1     0     0
SMALL
USER_CHARGES
****
Generated from the CSD

@<TRIPOS>ATOM
     1 C1      82.3013   5.7251 -37.1564   C.3       1 RES1   0.0000
     2 C2      83.2245   6.8245 -36.5873   C.3       1 RES1   0.0000
     3 C3      84.2630   6.1909 -35.6953   C.3       1 RES1   0.0000
     4 N4      83.7293   5.4542 -34.5549   N.3       1 RES1   1.0000
     5 C5      82.8781   6.3206 -33.6934   C.3       1 RES1   0.0000
     6 C6      82.2445   5.4966 -32.5896   C.3       1 RES1   0.0000
     7 C7      83.3522   4.8956 -31.7540   C.3       1 RES1   0.0000
     8 C8      82.7440   4.0560 -30.5850   C.3       1 RES1   0.0000
     9 C9      81.8900   2.9112 -31.1000   C.2       1 RES1   0.0000
    10 C10     80.5032   3.1133 -31.3392   C.2       1 RES1   0.0000
    11 C11     79.7114   2.0494 -31.8231   C.2       1 RES1   0.0000
    12 C12     80.2954   0.8165 -32.0491   C.2       1 RES1   0.0000
    13 C13     81.6781   0.6115 -31.7979   C.2       1 RES1   0.0000
    14 C14     82.4700   1.6754 -31.3249   C.2       1 RES1   0.0000
    15 C15     84.2556   4.0444 -32.5885   C.3       1 RES1   0.0000
    16 C16     84.8100   4.8309 -33.7529   C.3       1 RES1   0.0000
    17 C17     83.8962   7.6264 -37.6514   C.3       1 RES1   0.0000
    18 O18     84.7090   6.8012 -38.4338   O.3       1 RES1   0.0000
    19 C19     82.9731   8.3262 -38.6386   C.2       1 RES1   0.0000
    20 C20     82.7473   7.8304 -39.9299   C.2       1 RES1   0.0000
    21 C21     81.8889   8.4965 -40.7795   C.2       1 RES1   0.0000
    22 C22     81.2195   9.6549 -40.3852   C.2       1 RES1   0.0000
    23 O23     80.3234  10.3353 -41.2739   O.3       1 RES1   0.0000
    24 C24     81.4382  10.1415 -39.1140   C.2       1 RES1   0.0000
    25 C25     82.3138   9.4676 -38.2458   C.2       1 RES1   0.0000
@<TRIPOS>BOND
     1     2     1    1
     2     2     3    1
     3     3     4    1
     4     4     5    1
     5     5     6    1
     6     6     7    1
     7     7     8    1
     8     8     9    1
     9     9    10    2
    10    10    11    1
    11    11    12    2
    12    12    13    1
    13    13    14    2
    14     7    15    1
    15    15    16    1
    16     2    17    1
    17    17    18    1
    18    17    19    1
    19    19    20    2
    20    20    21    1
    21    21    22    2
    22    22    23    1
    23    22    24    1
    24    24    25    2
    25    16     4    1
    26    25    19    1
    27    14     9    1
@<TRIPOS>SUBSTRUCTURE
     1 RES1        1 GROUP             0 ****  ****    0  
@<TRIPOS>MOLECULE
ligand_15
    25    27     1     0     0
SMALL
USER_CHARGES
****
Generated from the CSD

@<TRIPOS>ATOM
     1 C1      82.9332   8.1053 -36.2689   C.3       1 RES1   0.0000
     2 C2      83.2803   8.9523 -35.0251   C.3       1 RES1   0.0000
     3 C3      84.3177   8.2289 -34.2031   C.3       1 RES1   0.0000
     4 N4      83.7832   7.3833 -33.1414   N.3       1 RES1   1.0000
     5 C5      84.8706   6.7212 -32.3691   C.3       1 RES1   0.0000
     6 C6      84.2859   5.9493 -31.2023   C.3       1 RES1   0.0000
     7 C7      83.3522   4.8956 -31.7540   C.3       1 RES1   0.0000
     8 C8      82.7440   4.0560 -30.5850   C.3       1 RES1   0.0000
     9 C9      81.8930   2.9090 -31.1000   C.2       1 RES1   0.0000
    10 C10     80.5040   3.1050 -31.3310   C.2       1 RES1   0.0000
    11 C11     79.7150   2.0390 -31.8150   C.2       1 RES1   0.0000
    12 C12     80.3040   0.8100 -32.0490   C.2       1 RES1   0.0000
    13 C13     81.6890   0.6110 -31.8060   C.2       1 RES1   0.0000
    14 C14     82.4780   1.6770 -31.3330   C.2       1 RES1   0.0000
    15 C15     82.2620   5.5150 -32.5695   C.3       1 RES1   0.0000
    16 C16     82.8373   6.3718 -33.6725   C.3       1 RES1   0.0000
    17 C17     83.7742  10.3170 -35.3718   C.3       1 RES1   0.0000
    18 O18     84.9494  10.2260 -36.1230   O.3       1 RES1   0.0000
    19 C19     82.8330  11.1717 -36.2085   C.2       1 RES1   0.0000
    20 C20     83.0212  11.3618 -37.5842   C.2       1 RES1   0.0000
    21 C21     82.1291  12.1346 -38.2978   C.2       1 RES1   0.0000
    22 C22     81.0242  12.7297 -37.6891   C.2       1 RES1   0.0000
    23 O23     80.0987  13.5249 -38.4419   O.3       1 RES1   0.0000
    24 C24     80.8361  12.5405 -36.3365   C.2       1 RES1   0.0000
    25 C25     81.7438  11.7559 -35.6049   C.2       1 RES1   0.0000
@<TRIPOS>BOND
     1     2     1    1
     2     2     3    1
     3     3     4    1
     4     4     5    1
     5     5     6    1
     6     6     7    1
     7     7     8    1
     8     8     9    1
     9     9    10    2
    10    10    11    1
    11    11    12    2
    12    12    13    1
    13    13    14    2
    14     7    15    1
    15    15    16    1
    16     2    17    1
    17    17    18    1
    18    17    19    1
    19    19    20    2
    20    20    21    1
    21    21    22    2
    22    22    23    1
    23    22    24    1
    24    24    25    2
    25    16     4    1
    26    25    19    1
    27    14     9    1
@<TRIPOS>SUBSTRUCTURE
     1 RES1        1 GROUP             0 ****  ****    0  
@<TRIPOS>MOLECULE
ligand_16
    25    27     1     0     0
SMALL
USER_CHARGES
****
Generated from the CSD

@<TRIPOS>ATOM
     1 C1      86.1672   9.2391 -33.7731   C.3       1 RES1   0.0000
     2 C2      87.0458   7.9691 -33.7722   C.3       1 RES1   0.0000
     3 C3      86.2241   6.7943 -34.2416   C.3       1 RES1   0.0000
     4 N4      85.5871   6.0239 -33.1792   N.3       1 RES1   1.0000
     5 C5      84.8121   4.8756 -33.7251   C.3       1 RES1   0.0000
     6 C6      84.2657   4.0294 -32.5917   C.3       1 RES1   0.0000
     7 C7      83.3522   4.8956 -31.7540   C.3       1 RES1   0.0000
     8 C8      82.7440   4.0560 -30.5850   C.3       1 RES1   0.0000
     9 C9      81.8908   2.9106 -31.1000   C.2       1 RES1   0.0000
    10 C10     80.5038   3.1115 -31.3387   C.2       1 RES1   0.0000
    11 C11     79.7128   2.0470 -31.8227   C.2       1 RES1   0.0000
    12 C12     80.2979   0.8147 -32.0491   C.2       1 RES1   0.0000
    13 C13     81.6808   0.6108 -31.7984   C.2       1 RES1   0.0000
    14 C14     82.4718   1.6753 -31.3254   C.2       1 RES1   0.0000
    15 C15     84.0821   6.0841 -31.2138   C.3       1 RES1   0.0000
    16 C16     84.7190   6.8764 -32.3311   C.3       1 RES1   0.0000
    17 C17     88.2631   8.1049 -34.6245   C.3       1 RES1   0.0000
    18 O18     87.8958   8.3252 -35.9550   O.3       1 RES1   0.0000
    19 C19     89.1947   9.2562 -34.2737   C.2       1 RES1   0.0000
    20 C20     89.2245  10.4451 -35.0153   C.2       1 RES1   0.0000
    21 C21     90.0781  11.4630 -34.6446   C.2       1 RES1   0.0000
    22 C22     90.9136  11.3511 -33.5334   C.2       1 RES1   0.0000
    23 O23     91.7917  12.4185 -33.1523   O.3       1 RES1   0.0000
    24 C24     90.8826  10.1834 -32.8011   C.2       1 RES1   0.0000
    25 C25     90.0164   9.1426 -33.1765   C.2       1 RES1   0.0000
@<TRIPOS>BOND
     1     2     1    1
     2     2     3    1
     3     3     4    1
     4     4     5    1
     5     5     6    1
     6     6     7    1
     7     7     8    1
     8     8     9    1
     9     9    10    2
    10    10    11    1
    11    11    12    2
    12    12    13    1
    13    13    14    2
    14     7    15    1
    15    15    16    1
    16     2    17    1
    17    17    18    1
    18    17    19    1
    19    19    20    2
    20    20    21    1
    21    21    22    2
    22    22    23    1
    23    22    24    1
    24    24    25    2
    25    16     4    1
    26    25    19    1
    27    14     9    1
@<TRIPOS>SUBSTRUCTURE
     1 RES1        1 GROUP             0 ****  ****    0  
@<TRIPOS>MOLECULE
ligand_17
    25    27     1     0     0
SMALL
USER_CHARGES
****
Generated from the CSD

@<TRIPOS>ATOM
     1 C1      82.2897   5.7315 -37.1427   C.3       1 RES1   0.0000
     2 C2      83.2246   6.8271 -36.5855   C.3       1 RES1   0.0000
     3 C3      84.2630   6.1909 -35.6953   C.3       1 RES1   0.0000
     4 N4      83.7293   5.4542 -34.5549   N.3       1 RES1   1.0000
     5 C5      82.8781   6.3206 -33.6934   C.3       1 RES1   0.0000
     6 C6      82.2445   5.4966 -32.5896   C.3       1 RES1   0.0000
     7 C7      83.3522   4.8956 -31.7540   C.3       1 RES1   0.0000
     8 C8      82.7440   4.0560 -30.5850   C.3       1 RES1   0.0000
     9 C9      81.8895   2.9116 -31.1000   C.2       1 RES1   0.0000
    10 C10     80.5033   3.1147 -31.3413   C.2       1 RES1   0.0000
    11 C11     79.7112   2.0511 -31.8253   C.2       1 RES1   0.0000
    12 C12     80.2943   0.8174 -32.0491   C.2       1 RES1   0.0000
    13 C13     81.6764   0.6113 -31.7958   C.2       1 RES1   0.0000
    14 C14     82.4686   1.6749 -31.3228   C.2       1 RES1   0.0000
    15 C15     84.2556   4.0444 -32.5885   C.3       1 RES1   0.0000
    16 C16     84.8100   4.8309 -33.7529   C.3       1 RES1   0.0000
    17 C17     83.8967   7.6171 -37.6584   C.3       1 RES1   0.0000
    18 O18     84.4710   8.7707 -37.1171   O.3       1 RES1   0.0000
    19 C19     85.0313   6.9140 -38.3896   C.2       1 RES1   0.0000
    20 C20     86.3785   7.1889 -38.1178   C.2       1 RES1   0.0000
    21 C21     87.3675   6.5116 -38.7999   C.2       1 RES1   0.0000
    22 C22     87.0663   5.5398 -39.7540   C.2       1 RES1   0.0000
    23 O23     88.1024   4.8361 -40.4518   O.3       1 RES1   0.0000
    24 C24     85.7415   5.2660 -40.0197   C.2       1 RES1   0.0000
    25 C25     84.7304   5.9553 -39.3290   C.2       1 RES1   0.0000
@<TRIPOS>BOND
     1     2     1    1
     2     2     3    1
     3     3     4    1
     4     4     5    1
     5     5     6    1
     6     6     7    1
     7     7     8    1
     8     8     9    1
     9     9    10    2
    10    10    11    1
    11    11    12    2
    12    12    13    1
    13    13    14    2
    14     7    15    1
    15    15    16    1
    16     2    17    1
    17    17    18    1
    18    17    19    1
    19    19    20    2
    20    20    21    1
    21    21    22    2
    22    22    23    1
    23    22    24    1
    24    24    25    2
    25    16     4    1
    26    25    19    1
    27    14     9    1
@<TRIPOS>SUBSTRUCTURE
     1 RES1        1 GROUP             0 ****  ****    0  
@<TRIPOS>MOLECULE
ligand_18
    25    27     1     0     0
SMALL
USER_CHARGES
****
Generated from the CSD

@<TRIPOS>ATOM
     1 C1      88.6533   6.2886 -34.4486   C.3       1 RES1   0.0000
     2 C2      87.2519   6.0399 -35.0477   C.3       1 RES1   0.0000
     3 C3      86.2241   6.7943 -34.2416   C.3       1 RES1   0.0000
     4 N4      85.5871   6.0239 -33.1792   N.3       1 RES1   1.0000
     5 C5      84.8121   4.8756 -33.7251   C.3       1 RES1   0.0000
     6 C6      84.2657   4.0294 -32.5917   C.3       1 RES1   0.0000
     7 C7      83.3522   4.8956 -31.7540   C.3       1 RES1   0.0000
     8 C8      82.7440   4.0560 -30.5850   C.3       1 RES1   0.0000
     9 C9      81.8907   2.9107 -31.1000   C.2       1 RES1   0.0000
    10 C10     80.5038   3.1117 -31.3390   C.2       1 RES1   0.0000
    11 C11     79.7128   2.0472 -31.8230   C.2       1 RES1   0.0000
    12 C12     80.2977   0.8148 -32.0491   C.2       1 RES1   0.0000
    13 C13     81.6805   0.6108 -31.7981   C.2       1 RES1   0.0000
    14 C14     82.4716   1.6753 -31.3251   C.2       1 RES1   0.0000
    15 C15     84.0821   6.0841 -31.2138   C.3       1 RES1   0.0000
    16 C16     84.7190   6.8764 -32.3311   C.3       1 RES1   0.0000
    17 C17     87.1558   6.4358 -36.4832   C.3       1 RES1   0.0000
    18 O18     86.0036   5.8899 -37.0560   O.3       1 RES1   0.0000
    19 C19     87.0650   7.9305 -36.7557   C.2       1 RES1   0.0000
    20 C20     85.8534   8.5593 -37.0734   C.2       1 RES1   0.0000
    21 C21     85.8252   9.9200 -37.2965   C.2       1 RES1   0.0000
    22 C22     86.9759  10.7025 -37.2018   C.2       1 RES1   0.0000
    23 O23     86.9339  12.1176 -37.4282   O.3       1 RES1   0.0000
    24 C24     88.1677  10.0856 -36.8858   C.2       1 RES1   0.0000
    25 C25     88.2017   8.6991 -36.6601   C.2       1 RES1   0.0000
@<TRIPOS>BOND
     1     2     1    1
     2     2     3    1
     3     3     4    1
     4     4     5    1
     5     5     6    1
     6     6     7    1
     7     7     8    1
     8     8     9    1
     9     9    10    2
    10    10    11    1
    11    11    12    2
    12    12    13    1
    13    13    14    2
    14     7    15    1
    15    15    16    1
    16     2    17    1
    17    17    18    1
    18    17    19    1
    19    19    20    2
    20    20    21    1
    21    21    22    2
    22    22    23    1
    23    22    24    1
    24    24    25    2
    25    16     4    1
    26    25    19    1
    27    14     9    1
@<TRIPOS>SUBSTRUCTURE
     1 RES1        1 GROUP             0 ****  ****    0  
@<TRIPOS>MOLECULE
ligand_19
    25    27     1     0     0
SMALL
USER_CHARGES
****
Generated from the CSD

@<TRIPOS>ATOM
     1 C1      82.9464   8.1120 -36.2780   C.3       1 RES1   0.0000
     2 C2      83.2802   8.9516 -35.0257   C.3       1 RES1   0.0000
     3 C3      84.3177   8.2289 -34.2031   C.3       1 RES1   0.0000
     4 N4      83.7832   7.3833 -33.1414   N.3       1 RES1   1.0000
     5 C5      84.8706   6.7212 -32.3691   C.3       1 RES1   0.0000
     6 C6      84.2859   5.9493 -31.2023   C.3       1 RES1   0.0000
     7 C7      83.3522   4.8956 -31.7540   C.3       1 RES1   0.0000
     8 C8      82.7440   4.0560 -30.5850   C.3       1 RES1   0.0000
     9 C9      81.8930   2.9090 -31.1000   C.2       1 RES1   0.0000
    10 C10     80.5040   3.1050 -31.3310   C.2       1 RES1   0.0000
    11 C11     79.7150   2.0390 -31.8150   C.2       1 RES1   0.0000
    12 C12     80.3040   0.8100 -32.0490   C.2       1 RES1   0.0000
    13 C13     81.6890   0.6110 -31.8060   C.2       1 RES1   0.0000
    14 C14     82.4780   1.6770 -31.3330   C.2       1 RES1   0.0000
    15 C15     82.2620   5.5150 -32.5695   C.3       1 RES1   0.0000
    16 C16     82.8373   6.3718 -33.6725   C.3       1 RES1   0.0000
    17 C17     83.7668  10.3223 -35.3588   C.3       1 RES1   0.0000
    18 O18     83.7300  11.1346 -34.2219   O.3       1 RES1   0.0000
    19 C19     85.1987  10.4141 -35.8664   C.2       1 RES1   0.0000
    20 C20     86.2551  10.8376 -35.0485   C.2       1 RES1   0.0000
    21 C21     87.5368  10.8881 -35.5554   C.2       1 RES1   0.0000
    22 C22     87.8211  10.5138 -36.8686   C.2       1 RES1   0.0000
    23 O23     89.1584  10.5628 -37.3832   O.3       1 RES1   0.0000
    24 C24     86.7832  10.0937 -37.6730   C.2       1 RES1   0.0000
    25 C25     85.4754  10.0429 -37.1616   C.2       1 RES1   0.0000
@<TRIPOS>BOND
     1     2     1    1
     2     2     3    1
     3     3     4    1
     4     4     5    1
     5     5     6    1
     6     6     7    1
     7     7     8    1
     8     8     9    1
     9     9    10    2
    10    10    11    1
    11    11    12    2
    12    12    13    1
    13    13    14    2
    14     7    15    1
    15    15    16    1
    16     2    17    1
    17    17    18    1
    18    17    19    1
    19    19    20    2
    20    20    21    1
    21    21    22    2
    22    22    23    1
    23    22    24    1
    24    24    25    2
    25    16     4    1
    26    25    19    1
    27    14     9    1
@<TRIPOS>SUBSTRUCTURE
     1 RES1        1 GROUP             0 ****  ****    0  
@<TRIPOS>MOLECULE
ligand_20
    25    27     1     0     0
SMALL
USER_CHARGES
****
Generated from the CSD

@<TRIPOS>ATOM
     1 C1      86.1697   9.2423 -33.7898   C.3       1 RES1   0.0000
     2 C2      87.0446   7.9699 -33.7723   C.3       1 RES1   0.0000
     3 C3      86.2241   6.7943 -34.2416   C.3       1 RES1   0.0000
     4 N4      85.5871   6.0239 -33.1792   N.3       1 RES1   1.0000
     5 C5      84.8121   4.8756 -33.7251   C.3       1 RES1   0.0000
     6 C6      84.2657   4.0294 -32.5917   C.3       1 RES1   0.0000
     7 C7      83.3522   4.8956 -31.7540   C.3       1 RES1   0.0000
     8 C8      82.7440   4.0560 -30.5850   C.3       1 RES1   0.0000
     9 C9      81.8909   2.9106 -31.1000   C.2       1 RES1   0.0000
    10 C10     80.5038   3.1114 -31.3386   C.2       1 RES1   0.0000
    11 C11     79.7129   2.0469 -31.8226   C.2       1 RES1   0.0000
    12 C12     80.2979   0.8146 -32.0491   C.2       1 RES1   0.0000
    13 C13     81.6809   0.6108 -31.7985   C.2       1 RES1   0.0000
    14 C14     82.4719   1.6753 -31.3255   C.2       1 RES1   0.0000
    15 C15     84.0821   6.0841 -31.2138   C.3       1 RES1   0.0000
    16 C16     84.7190   6.8764 -32.3311   C.3       1 RES1   0.0000
    17 C17     88.2703   8.0968 -34.6140   C.3       1 RES1   0.0000
    18 O18     89.1743   7.0772 -34.3028   O.3       1 RES1   0.0000
    19 C19     88.0575   7.9939 -36.1175   C.2       1 RES1   0.0000
    20 C20     88.3560   6.8280 -36.8357   C.2       1 RES1   0.0000
    21 C21     88.1299   6.7838 -38.1955   C.2       1 RES1   0.0000
    22 C22     87.5943   7.8713 -38.8854   C.2       1 RES1   0.0000
    23 O23     87.3560   7.8120 -40.2980   O.3       1 RES1   0.0000
    24 C24     87.2969   9.0175 -38.1793   C.2       1 RES1   0.0000
    25 C25     87.5279   9.0679 -36.7942   C.2       1 RES1   0.0000
@<TRIPOS>BOND
     1     2     1    1
     2     2     3    1
     3     3     4    1
     4     4     5    1
     5     5     6    1
     6     6     7    1
     7     7     8    1
     8     8     9    1
     9     9    10    2
    10    10    11    1
    11    11    12    2
    12    12    13    1
    13    13    14    2
    14     7    15    1
    15    15    16    1
    16     2    17    1
    17    17    18    1
    18    17    19    1
    19    19    20    2
    20    20    21    1
    21    21    22    2
    22    22    23    1
    23    22    24    1
    24    24    25    2
    25    16     4    1
    26    25    19    1
    27    14     9    1
@<TRIPOS>SUBSTRUCTURE
     1 RES1        1 GROUP             0 ****  ****    0  
@<TRIPOS>MOLECULE
ligand_21
    25    27     1     0     0
SMALL
USER_CHARGES
****
Generated from the CSD

@<TRIPOS>ATOM
     1 C1      85.7380   6.3106 -37.6977   C.3       1 RES1   0.0000
     2 C2      85.1114   5.3763 -36.6398   C.3       1 RES1   0.0000
     3 C3      84.2630   6.1909 -35.6953   C.3       1 RES1   0.0000
     4 N4      83.7293   5.4542 -34.5549   N.3       1 RES1   1.0000
     5 C5      82.8781   6.3206 -33.6934   C.3       1 RES1   0.0000
     6 C6      82.2445   5.4966 -32.5896   C.3       1 RES1   0.0000
     7 C7      83.3522   4.8956 -31.7540   C.3       1 RES1   0.0000
     8 C8      82.7440   4.0560 -30.5850   C.3       1 RES1   0.0000
     9 C9      81.8897   2.9114 -31.1000   C.2       1 RES1   0.0000
    10 C10     80.5033   3.1143 -31.3407   C.2       1 RES1   0.0000
    11 C11     79.7113   2.0505 -31.8247   C.2       1 RES1   0.0000
    12 C12     80.2947   0.8170 -32.0491   C.2       1 RES1   0.0000
    13 C13     81.6770   0.6113 -31.7964   C.2       1 RES1   0.0000
    14 C14     82.4691   1.6750 -31.3234   C.2       1 RES1   0.0000
    15 C15     84.2556   4.0444 -32.5885   C.3       1 RES1   0.0000
    16 C16     84.8100   4.8309 -33.7529   C.3       1 RES1   0.0000
    17 C17     84.2896   4.2861 -37.2422   C.3       1 RES1   0.0000
    18 O18     83.2226   4.8309 -37.9622   O.3       1 RES1   0.0000
    19 C19     85.0108   3.3773 -38.2273   C.2       1 RES1   0.0000
    20 C20     84.8542   3.5058 -39.6141   C.2       1 RES1   0.0000
    21 C21     85.5433   2.6647 -40.4625   C.2       1 RES1   0.0000
    22 C22     86.4124   1.6868 -39.9791   C.2       1 RES1   0.0000
    23 O23     87.1298   0.8227 -40.8703   O.3       1 RES1   0.0000
    24 C24     86.5699   1.5618 -38.6152   C.2       1 RES1   0.0000
    25 C25     85.8679   2.4148 -37.7467   C.2       1 RES1   0.0000
@<TRIPOS>BOND
     1     2     1    1
     2     2     3    1
     3     3     4    1
     4     4     5    1
     5     5     6    1
     6     6     7    1
     7     7     8    1
     8     8     9    1
     9     9    10    2
    10    10    11    1
    11    11    12    2
    12    12    13    1
    13    13    14    2
    14     7    15    1
    15    15    16    1
    16     2    17    1
    17    17    18    1
    18    17    19    1
    19    19    20    2
    20    20    21    1
    21    21    22    2
    22    22    23    1
    23    22    24    1
    24    24    25    2
    25    16     4    1
    26    25    19    1
    27    14     9    1
@<TRIPOS>SUBSTRUCTURE
     1 RES1        1 GROUP             0 ****  ****    0  
@<TRIPOS>MOLECULE
ligand_22
    25    27     1     0     0
SMALL
USER_CHARGES
****
Generated from the CSD

@<TRIPOS>ATOM
     1 C1      82.2723   5.7412 -37.1217   C.3       1 RES1   0.0000
     2 C2      83.2248   6.8309 -36.5830   C.3       1 RES1   0.0000
     3 C3      84.2630   6.1909 -35.6953   C.3       1 RES1   0.0000
     4 N4      83.7293   5.4542 -34.5549   N.3       1 RES1   1.0000
     5 C5      82.8781   6.3206 -33.6934   C.3       1 RES1   0.0000
     6 C6      82.2445   5.4966 -32.5896   C.3       1 RES1   0.0000
     7 C7      83.3522   4.8956 -31.7540   C.3       1 RES1   0.0000
     8 C8      82.7440   4.0560 -30.5850   C.3       1 RES1   0.0000
     9 C9      81.8900   2.9112 -31.1000   C.2       1 RES1   0.0000
    10 C10     80.5033   3.1134 -31.3396   C.2       1 RES1   0.0000
    11 C11     79.7116   2.0494 -31.8236   C.2       1 RES1   0.0000
    12 C12     80.2955   0.8164 -32.0491   C.2       1 RES1   0.0000
    13 C13     81.6781   0.6113 -31.7975   C.2       1 RES1   0.0000
    14 C14     82.4699   1.6753 -31.3245   C.2       1 RES1   0.0000
    15 C15     84.2556   4.0444 -32.5885   C.3       1 RES1   0.0000
    16 C16     84.8100   4.8309 -33.7529   C.3       1 RES1   0.0000
    17 C17     83.8972   7.6024 -37.6690   C.3       1 RES1   0.0000
    18 O18     82.9422   8.1653 -38.5203   O.3       1 RES1   0.0000
    19 C19     84.7633   8.7693 -37.2168   C.2       1 RES1   0.0000
    20 C20     86.0792   8.5925 -36.7681   C.2       1 RES1   0.0000
    21 C21     86.8253   9.6869 -36.3837   C.2       1 RES1   0.0000
    22 C22     86.3104  10.9819 -36.4407   C.2       1 RES1   0.0000
    23 O23     87.0973  12.1135 -36.0459   O.3       1 RES1   0.0000
    24 C24     85.0172  11.1574 -36.8853   C.2       1 RES1   0.0000
    25 C25     84.2524  10.0450 -37.2756   C.2       1 RES1   0.0000
@<TRIPOS>BOND
     1     2     1    1
     2     2     3    1
     3     3     4    1
     4     4     5    1
     5     5     6    1
     6     6     7    1
     7     7     8    1
     8     8     9    1
     9     9    10    2
    10    10    11    1
    11    11    12    2
    12    12    13    1
    13    13    14    2
    14     7    15    1
    15    15    16    1
    16     2    17    1
    17    17    18    1
    18    17    19    1
    19    19    20    2
    20    20    21    1
    21    21    22    2
    22    22    23    1
    23    22    24    1
    24    24    25    2
    25    16     4    1
    26    25    19    1
    27    14     9    1
@<TRIPOS>SUBSTRUCTURE
     1 RES1        1 GROUP             0 ****  ****    0  
@<TRIPOS>MOLECULE
ligand_23
    25    27     1     0     0
SMALL
USER_CHARGES
****
Generated from the CSD

@<TRIPOS>ATOM
     1 C1      84.2627  10.6394 -33.5817   C.3       1 RES1   0.0000
     2 C2      85.1576   9.3897 -33.7314   C.3       1 RES1   0.0000
     3 C3      84.3177   8.2289 -34.2031   C.3       1 RES1   0.0000
     4 N4      83.7832   7.3833 -33.1414   N.3       1 RES1   1.0000
     5 C5      84.8706   6.7212 -32.3691   C.3       1 RES1   0.0000
     6 C6      84.2859   5.9493 -31.2023   C.3       1 RES1   0.0000
     7 C7      83.3522   4.8956 -31.7540   C.3       1 RES1   0.0000
     8 C8      82.7440   4.0560 -30.5850   C.3       1 RES1   0.0000
     9 C9      81.8930   2.9090 -31.1000   C.2       1 RES1   0.0000
    10 C10     80.5040   3.1050 -31.3310   C.2       1 RES1   0.0000
    11 C11     79.7150   2.0390 -31.8150   C.2       1 RES1   0.0000
    12 C12     80.3040   0.8100 -32.0490   C.2       1 RES1   0.0000
    13 C13     81.6890   0.6110 -31.8060   C.2       1 RES1   0.0000
    14 C14     82.4780   1.6770 -31.3330   C.2       1 RES1   0.0000
    15 C15     82.2620   5.5150 -32.5695   C.3       1 RES1   0.0000
    16 C16     82.8373   6.3718 -33.6725   C.3       1 RES1   0.0000
    17 C17     86.2974   9.6014 -34.6709   C.3       1 RES1   0.0000
    18 O18     87.0028  10.7553 -34.3180   O.3       1 RES1   0.0000
    19 C19     87.3409   8.4941 -34.7098   C.2       1 RES1   0.0000
    20 C20     87.1991   7.3629 -35.5250   C.2       1 RES1   0.0000
    21 C21     88.1826   6.3960 -35.5328   C.2       1 RES1   0.0000
    22 C22     89.3347   6.5158 -34.7558   C.2       1 RES1   0.0000
    23 O23     90.3546   5.5083 -34.7773   O.3       1 RES1   0.0000
    24 C24     89.4769   7.6299 -33.9563   C.2       1 RES1   0.0000
    25 C25     88.4763   8.6164 -33.9431   C.2       1 RES1   0.0000
@<TRIPOS>BOND
     1     2     1    1
     2     2     3    1
     3     3     4    1
     4     4     5    1
     5     5     6    1
     6     6     7    1
     7     7     8    1
     8     8     9    1
     9     9    10    2
    10    10    11    1
    11    11    12    2
    12    12    13    1
    13    13    14    2
    14     7    15    1
    15    15    16    1
    16     2    17    1
    17    17    18    1
    18    17    19    1
    19    19    20    2
    20    20    21    1
    21    21    22    2
    22    22    23    1
    23    22    24    1
    24    24    25    2
    25    16     4    1
    26    25    19    1
    27    14     9    1
@<TRIPOS>SUBSTRUCTURE
     1 RES1        1 GROUP             0 ****  ****    0  
@<TRIPOS>MOLECULE
ligand_24
    25    27     1     0     0
SMALL
USER_CHARGES
****
Generated from the CSD

@<TRIPOS>ATOM
     1 C1      88.6510   6.2723 -34.4351   C.3       1 RES1   0.0000
     2 C2      87.2523   6.0401 -35.0473   C.3       1 RES1   0.0000
     3 C3      86.2241   6.7943 -34.2416   C.3       1 RES1   0.0000
     4 N4      85.5871   6.0239 -33.1792   N.3       1 RES1   1.0000
     5 C5      84.8121   4.8756 -33.7251   C.3       1 RES1   0.0000
     6 C6      84.2657   4.0294 -32.5917   C.3       1 RES1   0.0000
     7 C7      83.3522   4.8956 -31.7540   C.3       1 RES1   0.0000
     8 C8      82.7440   4.0560 -30.5850   C.3       1 RES1   0.0000
     9 C9      81.8908   2.9106 -31.1000   C.2       1 RES1   0.0000
    10 C10     80.5038   3.1116 -31.3389   C.2       1 RES1   0.0000
    11 C11     79.7128   2.0471 -31.8228   C.2       1 RES1   0.0000
    12 C12     80.2978   0.8148 -32.0491   C.2       1 RES1   0.0000
    13 C13     81.6806   0.6108 -31.7982   C.2       1 RES1   0.0000
    14 C14     82.4717   1.6753 -31.3252   C.2       1 RES1   0.0000
    15 C15     84.0821   6.0841 -31.2138   C.3       1 RES1   0.0000
    16 C16     84.7190   6.8764 -32.3311   C.3       1 RES1   0.0000
    17 C17     87.1703   6.4508 -36.4795   C.3       1 RES1   0.0000
    18 O18     88.2052   5.8589 -37.2090   O.3       1 RES1   0.0000
    19 C19     85.8943   6.0595 -37.2110   C.2       1 RES1   0.0000
    20 C20     84.7386   6.8514 -37.1724   C.2       1 RES1   0.0000
    21 C21     83.6138   6.4569 -37.8660   C.2       1 RES1   0.0000
    22 C22     83.5933   5.2871 -38.6253   C.2       1 RES1   0.0000
    23 O23     82.4209   4.8902 -39.3489   O.3       1 RES1   0.0000
    24 C24     84.7307   4.5091 -38.6670   C.2       1 RES1   0.0000
    25 C25     85.8784   4.9057 -37.9598   C.2       1 RES1   0.0000
@<TRIPOS>BOND
     1     2     1    1
     2     2     3    1
     3     3     4    1
     4     4     5    1
     5     5     6    1
     6     6     7    1
     7     7     8    1
     8     8     9    1
     9     9    10    2
    10    10    11    1
    11    11    12    2
    12    12    13    1
    13    13    14    2
    14     7    15    1
    15    15    16    1
    16     2    17    1
    17    17    18    1
    18    17    19    1
    19    19    20    2
    20    20    21    1
    21    21    22    2
    22    22    23    1
    23    22    24    1
    24    24    25    2
    25    16     4    1
    26    25    19    1
    27    14     9    1
@<TRIPOS>SUBSTRUCTURE
     1 RES1        1 GROUP             0 ****  ****    0  
@<TRIPOS>MOLECULE
ligand_25
    25    27     1     0     0
SMALL
USER_CHARGES
****
Generated from the CSD

@<TRIPOS>ATOM
     1 C1      82.9951   8.1371 -36.3106   C.3       1 RES1   0.0000
     2 C2      83.2801   8.9487 -35.0281   C.3       1 RES1   0.0000
     3 C3      84.3177   8.2289 -34.2031   C.3       1 RES1   0.0000
     4 N4      83.7832   7.3833 -33.1414   N.3       1 RES1   1.0000
     5 C5      84.8706   6.7212 -32.3691   C.3       1 RES1   0.0000
     6 C6      84.2859   5.9493 -31.2023   C.3       1 RES1   0.0000
     7 C7      83.3522   4.8956 -31.7540   C.3       1 RES1   0.0000
     8 C8      82.7440   4.0560 -30.5850   C.3       1 RES1   0.0000
     9 C9      81.8930   2.9090 -31.1000   C.2       1 RES1   0.0000
    10 C10     80.5040   3.1050 -31.3310   C.2       1 RES1   0.0000
    11 C11     79.7150   2.0390 -31.8150   C.2       1 RES1   0.0000
    12 C12     80.3040   0.8100 -32.0490   C.2       1 RES1   0.0000
    13 C13     81.6890   0.6110 -31.8060   C.2       1 RES1   0.0000
    14 C14     82.4780   1.6770 -31.3330   C.2       1 RES1   0.0000
    15 C15     82.2620   5.5150 -32.5695   C.3       1 RES1   0.0000
    16 C16     82.8373   6.3718 -33.6725   C.3       1 RES1   0.0000
    17 C17     83.7386  10.3401 -35.3117   C.3       1 RES1   0.0000
    18 O18     82.8488  10.9701 -36.1864   O.3       1 RES1   0.0000
    19 C19     83.8350  11.2663 -34.1079   C.2       1 RES1   0.0000
    20 C20     84.9765  11.3198 -33.2965   C.2       1 RES1   0.0000
    21 C21     85.0166  12.1885 -32.2261   C.2       1 RES1   0.0000
    22 C22     83.9494  13.0361 -31.9293   C.2       1 RES1   0.0000
    23 O23     84.0046  13.9409 -30.8186   O.3       1 RES1   0.0000
    24 C24     82.8274  12.9869 -32.7289   C.2       1 RES1   0.0000
    25 C25     82.7810  12.1016 -33.8191   C.2       1 RES1   0.0000
@<TRIPOS>BOND
     1     2     1    1
     2     2     3    1
     3     3     4    1
     4     4     5    1
     5     5     6    1
     6     6     7    1
     7     7     8    1
     8     8     9    1
     9     9    10    2
    10    10    11    1
    11    11    12    2
    12    12    13    1
    13    13    14    2
    14     7    15    1
    15    15    16    1
    16     2    17    1
    17    17    18    1
    18    17    19    1
    19    19    20    2
    20    20    21    1
    21    21    22    2
    22    22    23    1
    23    22    24    1
    24    24    25    2
    25    16     4    1
    26    25    19    1
    27    14     9    1
@<TRIPOS>SUBSTRUCTURE
     1 RES1        1 GROUP             0 ****  ****    0  
@<TRIPOS>MOLECULE
ligand_26
    25    27     1     0     0
SMALL
USER_CHARGES
****
Generated from the CSD

@<TRIPOS>ATOM
     1 C1      86.1834   9.2530 -33.8504   C.3       1 RES1   0.0000
     2 C2      87.0420   7.9718 -33.7725   C.3       1 RES1   0.0000
     3 C3      86.2241   6.7943 -34.2416   C.3       1 RES1   0.0000
     4 N4      85.5871   6.0239 -33.1792   N.3       1 RES1   1.0000
     5 C5      84.8121   4.8756 -33.7251   C.3       1 RES1   0.0000
     6 C6      84.2657   4.0294 -32.5917   C.3       1 RES1   0.0000
     7 C7      83.3522   4.8956 -31.7540   C.3       1 RES1   0.0000
     8 C8      82.7440   4.0560 -30.5850   C.3       1 RES1   0.0000
     9 C9      81.8907   2.9107 -31.1000   C.2       1 RES1   0.0000
    10 C10     80.5038   3.1118 -31.3391   C.2       1 RES1   0.0000
    11 C11     79.7127   2.0473 -31.8230   C.2       1 RES1   0.0000
    12 C12     80.2976   0.8149 -32.0491   C.2       1 RES1   0.0000
    13 C13     81.6804   0.6108 -31.7980   C.2       1 RES1   0.0000
    14 C14     82.4716   1.6752 -31.3250   C.2       1 RES1   0.0000
    15 C15     84.0821   6.0841 -31.2138   C.3       1 RES1   0.0000
    16 C16     84.7190   6.8764 -32.3311   C.3       1 RES1   0.0000
    17 C17     88.2971   8.0646 -34.5743   C.3       1 RES1   0.0000
    18 O18     88.9960   9.2279 -34.2395   O.3       1 RES1   0.0000
    19 C19     89.2949   6.9319 -34.3803   C.2       1 RES1   0.0000
    20 C20     89.2145   5.7340 -35.1034   C.2       1 RES1   0.0000
    21 C21     90.1542   4.7455 -34.8988   C.2       1 RES1   0.0000
    22 C22     91.2032   4.9069 -33.9938   C.2       1 RES1   0.0000
    23 O23     92.1792   3.8758 -33.7945   O.3       1 RES1   0.0000
    24 C24     91.2853   6.0863 -33.2845   C.2       1 RES1   0.0000
    25 C25     90.3287   7.0953 -33.4878   C.2       1 RES1   0.0000
@<TRIPOS>BOND
     1     2     1    1
     2     2     3    1
     3     3     4    1
     4     4     5    1
     5     5     6    1
     6     6     7    1
     7     7     8    1
     8     8     9    1
     9     9    10    2
    10    10    11    1
    11    11    12    2
    12    12    13    1
    13    13    14    2
    14     7    15    1
    15    15    16    1
    16     2    17    1
    17    17    18    1
    18    17    19    1
    19    19    20    2
    20    20    21    1
    21    21    22    2
    22    22    23    1
    23    22    24    1
    24    24    25    2
    25    16     4    1
    26    25    19    1
    27    14     9    1
@<TRIPOS>SUBSTRUCTURE
     1 RES1        1 GROUP             0 ****  ****    0  
@<TRIPOS>MOLECULE
ligand_27
    25    27     1     0     0
SMALL
USER_CHARGES
****
Generated from the CSD

@<TRIPOS>ATOM
     1 C1      85.8810   6.3475 -37.5813   C.3       1 RES1   0.0000
     2 C2      85.1573   5.3905 -36.6091   C.3       1 RES1   0.0000
     3 C3      84.2630   6.1909 -35.6953   C.3       1 RES1   0.0000
     4 N4      83.7293   5.4542 -34.5549   N.3       1 RES1   1.0000
     5 C5      82.8781   6.3206 -33.6934   C.3       1 RES1   0.0000
     6 C6      82.2445   5.4966 -32.5896   C.3       1 RES1   0.0000
     7 C7      83.3522   4.8956 -31.7540   C.3       1 RES1   0.0000
     8 C8      82.7440   4.0560 -30.5850   C.3       1 RES1   0.0000
     9 C9      81.8897   2.9114 -31.1000   C.2       1 RES1   0.0000
    10 C10     80.5034   3.1143 -31.3408   C.2       1 RES1   0.0000
    11 C11     79.7113   2.0505 -31.8247   C.2       1 RES1   0.0000
    12 C12     80.2947   0.8170 -32.0491   C.2       1 RES1   0.0000
    13 C13     81.6770   0.6113 -31.7963   C.2       1 RES1   0.0000
    14 C14     82.4691   1.6750 -31.3233   C.2       1 RES1   0.0000
    15 C15     84.2556   4.0444 -32.5885   C.3       1 RES1   0.0000
    16 C16     84.8100   4.8309 -33.7529   C.3       1 RES1   0.0000
    17 C17     84.3548   4.3469 -37.3119   C.3       1 RES1   0.0000
    18 O18     84.2687   3.1957 -36.5239   O.3       1 RES1   0.0000
    19 C19     82.9139   4.7192 -37.6303   C.2       1 RES1   0.0000
    20 C20     81.8318   4.2063 -36.9020   C.2       1 RES1   0.0000
    21 C21     80.5463   4.5886 -37.2236   C.2       1 RES1   0.0000
    22 C22     80.2860   5.4910 -38.2548   C.2       1 RES1   0.0000
    23 O23     78.9461   5.8876 -38.5758   O.3       1 RES1   0.0000
    24 C24     81.3499   5.9988 -38.9696   C.2       1 RES1   0.0000
    25 C25     82.6612   5.6103 -38.6472   C.2       1 RES1   0.0000
@<TRIPOS>BOND
     1     2     1    1
     2     2     3    1
     3     3     4    1
     4     4     5    1
     5     5     6    1
     6     6     7    1
     7     7     8    1
     8     8     9    1
     9     9    10    2
    10    10    11    1
    11    11    12    2
    12    12    13    1
    13    13    14    2
    14     7    15    1
    15    15    16    1
    16     2    17    1
    17    17    18    1
    18    17    19    1
    19    19    20    2
    20    20    21    1
    21    21    22    2
    22    22    23    1
    23    22    24    1
    24    24    25    2
    25    16     4    1
    26    25    19    1
    27    14     9    1
@<TRIPOS>SUBSTRUCTURE
     1 RES1        1 GROUP             0 ****  ****    0  
@<TRIPOS>MOLECULE
ligand_28
    25    27     1     0     0
SMALL
USER_CHARGES
****
Generated from the CSD

@<TRIPOS>ATOM
     1 C1      82.8256  10.1711 -33.7546   C.3       1 RES1   0.0000
     2 C2      84.2906   9.7090 -33.9136   C.3       1 RES1   0.0000
     3 C3      84.3177   8.2289 -34.2031   C.3       1 RES1   0.0000
     4 N4      83.7832   7.3833 -33.1414   N.3       1 RES1   1.0000
     5 C5      84.8706   6.7212 -32.3691   C.3       1 RES1   0.0000
     6 C6      84.2859   5.9493 -31.2023   C.3       1 RES1   0.0000
     7 C7      83.3522   4.8956 -31.7540   C.3       1 RES1   0.0000
     8 C8      82.7440   4.0560 -30.5850   C.3       1 RES1   0.0000
     9 C9      81.8930   2.9090 -31.1000   C.2       1 RES1   0.0000
    10 C10     80.5040   3.1050 -31.3310   C.2       1 RES1   0.0000
    11 C11     79.7150   2.0390 -31.8150   C.2       1 RES1   0.0000
    12 C12     80.3040   0.8100 -32.0490   C.2       1 RES1   0.0000
    13 C13     81.6890   0.6110 -31.8060   C.2       1 RES1   0.0000
    14 C14     82.4780   1.6770 -31.3330   C.2       1 RES1   0.0000
    15 C15     82.2620   5.5150 -32.5695   C.3       1 RES1   0.0000
    16 C16     82.8373   6.3718 -33.6725   C.3       1 RES1   0.0000
    17 C17     85.0180  10.4459 -34.9882   C.3       1 RES1   0.0000
    18 O18     84.4024  10.2248 -36.2234   O.3       1 RES1   0.0000
    19 C19     85.0724  11.9593 -34.8365   C.2       1 RES1   0.0000
    20 C20     84.2466  12.8142 -35.5790   C.2       1 RES1   0.0000
    21 C21     84.3266  14.1782 -35.3913   C.2       1 RES1   0.0000
    22 C22     85.2046  14.7406 -34.4649   C.2       1 RES1   0.0000
    23 O23     85.2743  16.1596 -34.2722   O.3       1 RES1   0.0000
    24 C24     86.0149  13.9003 -33.7314   C.2       1 RES1   0.0000
    25 C25     85.9386  12.5101 -33.9210   C.2       1 RES1   0.0000
@<TRIPOS>BOND
     1     2     1    1
     2     2     3    1
     3     3     4    1
     4     4     5    1
     5     5     6    1
     6     6     7    1
     7     7     8    1
     8     8     9    1
     9     9    10    2
    10    10    11    1
    11    11    12    2
    12    12    13    1
    13    13    14    2
    14     7    15    1
    15    15    16    1
    16     2    17    1
    17    17    18    1
    18    17    19    1
    19    19    20    2
    20    20    21    1
    21    21    22    2
    22    22    23    1
    23    22    24    1
    24    24    25    2
    25    16     4    1
    26    25    19    1
    27    14     9    1
@<TRIPOS>SUBSTRUCTURE
     1 RES1        1 GROUP             0 ****  ****    0  
@<TRIPOS>MOLECULE
ligand_29
    25    27     1     0     0
SMALL
USER_CHARGES
****
Generated from the CSD

@<TRIPOS>ATOM
     1 C1      88.4354   6.9972 -33.1153   C.3       1 RES1   0.0000
     2 C2      87.7049   6.5556 -34.4021   C.3       1 RES1   0.0000
     3 C3      86.2241   6.7943 -34.2416   C.3       1 RES1   0.0000
     4 N4      85.5871   6.0239 -33.1792   N.3       1 RES1   1.0000
     5 C5      84.8121   4.8756 -33.7251   C.3       1 RES1   0.0000
     6 C6      84.2657   4.0294 -32.5917   C.3       1 RES1   0.0000
     7 C7      83.3522   4.8956 -31.7540   C.3       1 RES1   0.0000
     8 C8      82.7440   4.0560 -30.5850   C.3       1 RES1   0.0000
     9 C9      81.8906   2.9108 -31.1000   C.2       1 RES1   0.0000
    10 C10     80.5038   3.1122 -31.3396   C.2       1 RES1   0.0000
    11 C11     79.7126   2.0478 -31.8235   C.2       1 RES1   0.0000
    12 C12     80.2972   0.8152 -32.0491   C.2       1 RES1   0.0000
    13 C13     81.6799   0.6108 -31.7975   C.2       1 RES1   0.0000
    14 C14     82.4712   1.6751 -31.3245   C.2       1 RES1   0.0000
    15 C15     84.0821   6.0841 -31.2138   C.3       1 RES1   0.0000
    16 C16     84.7190   6.8764 -32.3311   C.3       1 RES1   0.0000
    17 C17     88.1994   7.2601 -35.6211   C.3       1 RES1   0.0000
    18 O18     87.9828   8.6358 -35.5018   O.3       1 RES1   0.0000
    19 C19     89.6857   7.1159 -35.9149   C.2       1 RES1   0.0000
    20 C20     90.6052   8.1350 -35.6315   C.2       1 RES1   0.0000
    21 C21     91.9438   7.9459 -35.9045   C.2       1 RES1   0.0000
    22 C22     92.4198   6.7529 -36.4481   C.2       1 RES1   0.0000
    23 O23     93.8146   6.5639 -36.7209   O.3       1 RES1   0.0000
    24 C24     91.5167   5.7483 -36.7240   C.2       1 RES1   0.0000
    25 C25     90.1516   5.9374 -36.4498   C.2       1 RES1   0.0000
@<TRIPOS>BOND
     1     2     1    1
     2     2     3    1
     3     3     4    1
     4     4     5    1
     5     5     6    1
     6     6     7    1
     7     7     8    1
     8     8     9    1
     9     9    10    2
    10    10    11    1
    11    11    12    2
    12    12    13    1
    13    13    14    2
    14     7    15    1
    15    15    16    1
    16     2    17    1
    17    17    18    1
    18    17    19    1
    19    19    20    2
    20    20    21    1
    21    21    22    2
    22    22    23    1
    23    22    24    1
    24    24    25    2
    25    16     4    1
    26    25    19    1
    27    14     9    1
@<TRIPOS>SUBSTRUCTURE
     1 RES1        1 GROUP             0 ****  ****    0  
@<TRIPOS>MOLECULE
ligand_30
    25    27     1     0     0
SMALL
USER_CHARGES
****
Generated from the CSD

@<TRIPOS>ATOM
     1 C1      83.5487   8.9513 -36.4584   C.3       1 RES1   0.0000
     2 C2      83.2911   9.0533 -34.9391   C.3       1 RES1   0.0000
     3 C3      84.3177   8.2289 -34.2031   C.3       1 RES1   0.0000
     4 N4      83.7832   7.3833 -33.1414   N.3       1 RES1   1.0000
     5 C5      84.8706   6.7212 -32.3691   C.3       1 RES1   0.0000
     6 C6      84.2859   5.9493 -31.2023   C.3       1 RES1   0.0000
     7 C7      83.3522   4.8956 -31.7540   C.3       1 RES1   0.0000
     8 C8      82.7440   4.0560 -30.5850   C.3       1 RES1   0.0000
     9 C9      81.8930   2.9090 -31.1000   C.2       1 RES1   0.0000
    10 C10     80.5040   3.1050 -31.3310   C.2       1 RES1   0.0000
    11 C11     79.7150   2.0390 -31.8150   C.2       1 RES1   0.0000
    12 C12     80.3040   0.8100 -32.0490   C.2       1 RES1   0.0000
    13 C13     81.6890   0.6110 -31.8060   C.2       1 RES1   0.0000
    14 C14     82.4780   1.6770 -31.3330   C.2       1 RES1   0.0000
    15 C15     82.2620   5.5150 -32.5695   C.3       1 RES1   0.0000
    16 C16     82.8373   6.3718 -33.6725   C.3       1 RES1   0.0000
    17 C17     83.3208  10.4588 -34.4386   C.3       1 RES1   0.0000
    18 O18     82.9263  10.4997 -33.0983   O.3       1 RES1   0.0000
    19 C19     84.6770  11.1486 -34.4747   C.2       1 RES1   0.0000
    20 C20     85.4451  11.3463 -33.3192   C.2       1 RES1   0.0000
    21 C21     86.6747  11.9644 -33.4109   C.2       1 RES1   0.0000
    22 C22     87.1908  12.3923 -34.6340   C.2       1 RES1   0.0000
    23 O23     88.4736  13.0268 -34.7190   O.3       1 RES1   0.0000
    24 C24     86.4376  12.1950 -35.7718   C.2       1 RES1   0.0000
    25 C25     85.1832  11.5681 -35.6829   C.2       1 RES1   0.0000
@<TRIPOS>BOND
     1     2     1    1
     2     2     3    1
     3     3     4    1
     4     4     5    1
     5     5     6    1
     6     6     7    1
     7     7     8    1
     8     8     9    1
     9     9    10    2
    10    10    11    1
    11    11    12    2
    12    12    13    1
    13    13    14    2
    14     7    15    1
    15    15    16    1
    16     2    17    1
    17    17    18    1
    18    17    19    1
    19    19    20    2
    20    20    21    1
    21    21    22    2
    22    22    23    1
    23    22    24    1
    24    24    25    2
    25    16     4    1
    26    25    19    1
    27    14     9    1
@<TRIPOS>SUBSTRUCTURE
     1 RES1        1 GROUP             0 ****  ****    0  
@<TRIPOS>MOLECULE
ligand_31
    25    27     1     0     0
SMALL
USER_CHARGES
****
Generated from the CSD

@<TRIPOS>ATOM
     1 C1      84.9544  10.6209 -34.4723   C.3       1 RES1   0.0000
     2 C2      85.2776   9.2981 -33.7439   C.3       1 RES1   0.0000
     3 C3      84.3177   8.2289 -34.2031   C.3       1 RES1   0.0000
     4 N4      83.7832   7.3833 -33.1414   N.3       1 RES1   1.0000
     5 C5      84.8706   6.7212 -32.3691   C.3       1 RES1   0.0000
     6 C6      84.2859   5.9493 -31.2023   C.3       1 RES1   0.0000
     7 C7      83.3522   4.8956 -31.7540   C.3       1 RES1   0.0000
     8 C8      82.7440   4.0560 -30.5850   C.3       1 RES1   0.0000
     9 C9      81.8930   2.9090 -31.1000   C.2       1 RES1   0.0000
    10 C10     80.5040   3.1050 -31.3310   C.2       1 RES1   0.0000
    11 C11     79.7150   2.0390 -31.8150   C.2       1 RES1   0.0000
    12 C12     80.3040   0.8100 -32.0490   C.2       1 RES1   0.0000
    13 C13     81.6890   0.6110 -31.8060   C.2       1 RES1   0.0000
    14 C14     82.4780   1.6770 -31.3330   C.2       1 RES1   0.0000
    15 C15     82.2620   5.5150 -32.5695   C.3       1 RES1   0.0000
    16 C16     82.8373   6.3718 -33.6725   C.3       1 RES1   0.0000
    17 C17     86.6816   8.8427 -33.9636   C.3       1 RES1   0.0000
    18 O18     86.9154   8.6480 -35.3278   O.3       1 RES1   0.0000
    19 C19     87.7707   9.8026 -33.5069   C.2       1 RES1   0.0000
    20 C20     88.0668  10.9820 -34.2037   C.2       1 RES1   0.0000
    21 C21     89.0544  11.8242 -33.7373   C.2       1 RES1   0.0000
    22 C22     89.7678  11.5432 -32.5722   C.2       1 RES1   0.0000
    23 O23     90.7872  12.4295 -32.0919   O.3       1 RES1   0.0000
    24 C24     89.4749  10.3850 -31.8839   C.2       1 RES1   0.0000
    25 C25     88.4712   9.5227 -32.3567   C.2       1 RES1   0.0000
@<TRIPOS>BOND
     1     2     1    1
     2     2     3    1
     3     3     4    1
     4     4     5    1
     5     5     6    1
     6     6     7    1
     7     7     8    1
     8     8     9    1
     9     9    10    2
    10    10    11    1
    11    11    12    2
    12    12    13    1
    13    13    14    2
    14     7    15    1
    15    15    16    1
    16     2    17    1
    17    17    18    1
    18    17    19    1
    19    19    20    2
    20    20    21    1
    21    21    22    2
    22    22    23    1
    23    22    24    1
    24    24    25    2
    25    16     4    1
    26    25    19    1
    27    14     9    1
@<TRIPOS>SUBSTRUCTURE
     1 RES1        1 GROUP             0 ****  ****    0  
@<TRIPOS>MOLECULE
ligand_32
    25    27     1     0     0
SMALL
USER_CHARGES
****
Generated from the CSD

@<TRIPOS>ATOM
     1 C1      88.4286   6.8139 -35.3990   C.3       1 RES1   0.0000
     2 C2      87.1399   6.0028 -35.1417   C.3       1 RES1   0.0000
     3 C3      86.2241   6.7943 -34.2416   C.3       1 RES1   0.0000
     4 N4      85.5871   6.0239 -33.1792   N.3       1 RES1   1.0000
     5 C5      84.8121   4.8756 -33.7251   C.3       1 RES1   0.0000
     6 C6      84.2657   4.0294 -32.5917   C.3       1 RES1   0.0000
     7 C7      83.3522   4.8956 -31.7540   C.3       1 RES1   0.0000
     8 C8      82.7440   4.0560 -30.5850   C.3       1 RES1   0.0000
     9 C9      81.8907   2.9107 -31.1000   C.2       1 RES1   0.0000
    10 C10     80.5038   3.1120 -31.3393   C.2       1 RES1   0.0000
    11 C11     79.7127   2.0475 -31.8233   C.2       1 RES1   0.0000
    12 C12     80.2974   0.8150 -32.0491   C.2       1 RES1   0.0000
    13 C13     81.6802   0.6108 -31.7978   C.2       1 RES1   0.0000
    14 C14     82.4714   1.6752 -31.3248   C.2       1 RES1   0.0000
    15 C15     84.0821   6.0841 -31.2138   C.3       1 RES1   0.0000
    16 C16     84.7190   6.8764 -32.3311   C.3       1 RES1   0.0000
    17 C17     86.4213   5.6410 -36.3985   C.3       1 RES1   0.0000
    18 O18     86.0662   6.7974 -37.0988   O.3       1 RES1   0.0000
    19 C19     87.2065   4.7991 -37.3940   C.2       1 RES1   0.0000
    20 C20     88.2461   5.3333 -38.1674   C.2       1 RES1   0.0000
    21 C21     88.9352   4.5217 -39.0441   C.2       1 RES1   0.0000
    22 C22     88.6358   3.1660 -39.1777   C.2       1 RES1   0.0000
    23 O23     89.3636   2.3295 -40.0867   O.3       1 RES1   0.0000
    24 C24     87.6157   2.6385 -38.4149   C.2       1 RES1   0.0000
    25 C25     86.9092   3.4622 -37.5222   C.2       1 RES1   0.0000
@<TRIPOS>BOND
     1     2     1    1
     2     2     3    1
     3     3     4    1
     4     4     5    1
     5     5     6    1
     6     6     7    1
     7     7     8    1
     8     8     9    1
     9     9    10    2
    10    10    11    1
    11    11    12    2
    12    12    13    1
    13    13    14    2
    14     7    15    1
    15    15    16    1
    16     2    17    1
    17    17    18    1
    18    17    19    1
    19    19    20    2
    20    20    21    1
    21    21    22    2
    22    22    23    1
    23    22    24    1
    24    24    25    2
    25    16     4    1
    26    25    19    1
    27    14     9    1
@<TRIPOS>SUBSTRUCTURE
     1 RES1        1 GROUP             0 ****  ****    0  
@<TRIPOS>MOLECULE
ligand_33
    25    27     1     0     0
SMALL
USER_CHARGES
****
Generated from the CSD

@<TRIPOS>ATOM
     1 C1      82.8302  10.1664 -33.7204   C.3       1 RES1   0.0000
     2 C2      84.2926   9.7089 -33.9127   C.3       1 RES1   0.0000
     3 C3      84.3177   8.2289 -34.2031   C.3       1 RES1   0.0000
     4 N4      83.7832   7.3833 -33.1414   N.3       1 RES1   1.0000
     5 C5      84.8706   6.7212 -32.3691   C.3       1 RES1   0.0000
     6 C6      84.2859   5.9493 -31.2023   C.3       1 RES1   0.0000
     7 C7      83.3522   4.8956 -31.7540   C.3       1 RES1   0.0000
     8 C8      82.7440   4.0560 -30.5850   C.3       1 RES1   0.0000
     9 C9      81.8930   2.9090 -31.1000   C.2       1 RES1   0.0000
    10 C10     80.5040   3.1050 -31.3310   C.2       1 RES1   0.0000
    11 C11     79.7150   2.0390 -31.8150   C.2       1 RES1   0.0000
    12 C12     80.3040   0.8100 -32.0490   C.2       1 RES1   0.0000
    13 C13     81.6890   0.6110 -31.8060   C.2       1 RES1   0.0000
    14 C14     82.4780   1.6770 -31.3330   C.2       1 RES1   0.0000
    15 C15     82.2620   5.5150 -32.5695   C.3       1 RES1   0.0000
    16 C16     82.8373   6.3718 -33.6725   C.3       1 RES1   0.0000
    17 C17     84.9933  10.4481 -35.0033   C.3       1 RES1   0.0000
    18 O18     86.3720  10.2341 -34.9197   O.3       1 RES1   0.0000
    19 C19     84.6152  10.0527 -36.4235   C.2       1 RES1   0.0000
    20 C20     85.4332   9.2335 -37.2133   C.2       1 RES1   0.0000
    21 C21     85.0353   8.8936 -38.4894   C.2       1 RES1   0.0000
    22 C22     83.8232   9.3336 -39.0210   C.2       1 RES1   0.0000
    23 O23     83.4155   8.9679 -40.3460   O.3       1 RES1   0.0000
    24 C24     83.0159  10.1366 -38.2436   C.2       1 RES1   0.0000
    25 C25     83.4185  10.4875 -36.9439   C.2       1 RES1   0.0000
@<TRIPOS>BOND
     1     2     1    1
     2     2     3    1
     3     3     4    1
     4     4     5    1
     5     5     6    1
     6     6     7    1
     7     7     8    1
     8     8     9    1
     9     9    10    2
    10    10    11    1
    11    11    12    2
    12    12    13    1
    13    13    14    2
    14     7    15    1
    15    15    16    1
    16     2    17    1
    17    17    18    1
    18    17    19    1
    19    19    20    2
    20    20    21    1
    21    21    22    2
    22    22    23    1
    23    22    24    1
    24    24    25    2
    25    16     4    1
    26    25    19    1
    27    14     9    1
@<TRIPOS>SUBSTRUCTURE
     1 RES1        1 GROUP             0 ****  ****    0  
@<TRIPOS>MOLECULE
ligand_34
    25    27     1     0     0
SMALL
USER_CHARGES
****
Generated from the CSD

@<TRIPOS>ATOM
     1 C1      88.4331   6.9641 -33.1052   C.3       1 RES1   0.0000
     2 C2      87.7044   6.5540 -34.4036   C.3       1 RES1   0.0000
     3 C3      86.2241   6.7943 -34.2416   C.3       1 RES1   0.0000
     4 N4      85.5871   6.0239 -33.1792   N.3       1 RES1   1.0000
     5 C5      84.8121   4.8756 -33.7251   C.3       1 RES1   0.0000
     6 C6      84.2657   4.0294 -32.5917   C.3       1 RES1   0.0000
     7 C7      83.3522   4.8956 -31.7540   C.3       1 RES1   0.0000
     8 C8      82.7440   4.0560 -30.5850   C.3       1 RES1   0.0000
     9 C9      81.8907   2.9107 -31.1000   C.2       1 RES1   0.0000
    10 C10     80.5038   3.1119 -31.3391   C.2       1 RES1   0.0000
    11 C11     79.7127   2.0474 -31.8231   C.2       1 RES1   0.0000
    12 C12     80.2975   0.8149 -32.0491   C.2       1 RES1   0.0000
    13 C13     81.6803   0.6108 -31.7979   C.2       1 RES1   0.0000
    14 C14     82.4715   1.6752 -31.3250   C.2       1 RES1   0.0000
    15 C15     84.0821   6.0841 -31.2138   C.3       1 RES1   0.0000
    16 C16     84.7190   6.8764 -32.3311   C.3       1 RES1   0.0000
    17 C17     88.2047   7.2838 -35.6052   C.3       1 RES1   0.0000
    18 O18     87.7543   6.6565 -36.7701   O.3       1 RES1   0.0000
    19 C19     87.7583   8.7329 -35.7361   C.2       1 RES1   0.0000
    20 C20     86.7376   9.1233 -36.6136   C.2       1 RES1   0.0000
    21 C21     86.3621  10.4486 -36.6820   C.2       1 RES1   0.0000
    22 C22     86.9638  11.4232 -35.8861   C.2       1 RES1   0.0000
    23 O23     86.5604  12.7970 -35.9596   O.3       1 RES1   0.0000
    24 C24     87.9656  11.0397 -35.0199   C.2       1 RES1   0.0000
    25 C25     88.3532   9.6909 -34.9487   C.2       1 RES1   0.0000
@<TRIPOS>BOND
     1     2     1    1
     2     2     3    1
     3     3     4    1
     4     4     5    1
     5     5     6    1
     6     6     7    1
     7     7     8    1
     8     8     9    1
     9     9    10    2
    10    10    11    1
    11    11    12    2
    12    12    13    1
    13    13    14    2
    14     7    15    1
    15    15    16    1
    16     2    17    1
    17    17    18    1
    18    17    19    1
    19    19    20    2
    20    20    21    1
    21    21    22    2
    22    22    23    1
    23    22    24    1
    24    24    25    2
    25    16     4    1
    26    25    19    1
    27    14     9    1
@<TRIPOS>SUBSTRUCTURE
     1 RES1        1 GROUP             0 ****  ****    0  
@<TRIPOS>MOLECULE
ligand_35
    25    27     1     0     0
SMALL
USER_CHARGES
****
Generated from the CSD

@<TRIPOS>ATOM
     1 C1      83.6029   9.0318 -36.4490   C.3       1 RES1   0.0000
     2 C2      83.2916   9.0562 -34.9366   C.3       1 RES1   0.0000
     3 C3      84.3177   8.2289 -34.2031   C.3       1 RES1   0.0000
     4 N4      83.7832   7.3833 -33.1414   N.3       1 RES1   1.0000
     5 C5      84.8706   6.7212 -32.3691   C.3       1 RES1   0.0000
     6 C6      84.2859   5.9493 -31.2023   C.3       1 RES1   0.0000
     7 C7      83.3522   4.8956 -31.7540   C.3       1 RES1   0.0000
     8 C8      82.7440   4.0560 -30.5850   C.3       1 RES1   0.0000
     9 C9      81.8930   2.9090 -31.1000   C.2       1 RES1   0.0000
    10 C10     80.5040   3.1050 -31.3310   C.2       1 RES1   0.0000
    11 C11     79.7150   2.0390 -31.8150   C.2       1 RES1   0.0000
    12 C12     80.3040   0.8100 -32.0490   C.2       1 RES1   0.0000
    13 C13     81.6890   0.6110 -31.8060   C.2       1 RES1   0.0000
    14 C14     82.4780   1.6770 -31.3330   C.2       1 RES1   0.0000
    15 C15     82.2620   5.5150 -32.5695   C.3       1 RES1   0.0000
    16 C16     82.8373   6.3718 -33.6725   C.3       1 RES1   0.0000
    17 C17     83.2616  10.4374 -34.3725   C.3       1 RES1   0.0000
    18 O18     84.4967  11.0623 -34.5663   O.3       1 RES1   0.0000
    19 C19     82.2377  11.3829 -34.9841   C.2       1 RES1   0.0000
    20 C20     82.3998  11.9332 -36.2628   C.2       1 RES1   0.0000
    21 C21     81.4333  12.7732 -36.7751   C.2       1 RES1   0.0000
    22 C22     80.2788  13.0861 -36.0579   C.2       1 RES1   0.0000
    23 O23     79.2766  13.9545 -36.6031   O.3       1 RES1   0.0000
    24 C24     80.1165  12.5425 -34.8013   C.2       1 RES1   0.0000
    25 C25     81.0997  11.6880 -34.2742   C.2       1 RES1   0.0000
@<TRIPOS>BOND
     1     2     1    1
     2     2     3    1
     3     3     4    1
     4     4     5    1
     5     5     6    1
     6     6     7    1
     7     7     8    1
     8     8     9    1
     9     9    10    2
    10    10    11    1
    11    11    12    2
    12    12    13    1
    13    13    14    2
    14     7    15    1
    15    15    16    1
    16     2    17    1
    17    17    18    1
    18    17    19    1
    19    19    20    2
    20    20    21    1
    21    21    22    2
    22    22    23    1
    23    22    24    1
    24    24    25    2
    25    16     4    1
    26    25    19    1
    27    14     9    1
@<TRIPOS>SUBSTRUCTURE
     1 RES1        1 GROUP             0 ****  ****    0  
@<TRIPOS>MOLECULE
ligand_36
    25    27     1     0     0
SMALL
USER_CHARGES
****
Generated from the CSD

@<TRIPOS>ATOM
     1 C1      82.7197   8.1853 -25.1890   C.3       1 RES1   0.0000
     2 C2      81.4666   8.6376 -25.9700   C.3       1 RES1   0.0000
     3 C3      80.6888   7.4227 -26.4111   C.3       1 RES1   0.0000
     4 N4      81.4190   6.5048 -27.2784   N.3       1 RES1   1.0000
     5 C5      81.9076   7.1864 -28.5089   C.3       1 RES1   0.0000
     6 C6      82.7623   6.2373 -29.3261   C.3       1 RES1   0.0000
     7 C7      81.9092   5.0516 -29.7171   C.3       1 RES1   0.0000
     8 C8      82.7440   4.0560 -30.5850   C.3       1 RES1   0.0000
     9 C9      81.8992   2.8948 -31.0777   C.2       1 RES1   0.0000
    10 C10     80.5146   3.0857 -31.3378   C.2       1 RES1   0.0000
    11 C11     79.7314   2.0062 -31.8010   C.2       1 RES1   0.0000
    12 C12     80.3215   0.7695 -31.9865   C.2       1 RES1   0.0000
    13 C13     81.7019   0.5760 -31.7145   C.2       1 RES1   0.0000
    14 C14     82.4853   1.6551 -31.2622   C.2       1 RES1   0.0000
    15 C15     81.3658   4.3568 -28.5091   C.3       1 RES1   0.0000
    16 C16     80.5996   5.3210 -27.6345   C.3       1 RES1   0.0000
    17 C17     80.5827   9.5406 -25.1762   C.3       1 RES1   0.0000
    18 O18     80.1150   8.8766 -24.0387   O.3       1 RES1   0.0000
    19 C19     81.2313  10.8146 -24.6540   C.2       1 RES1   0.0000
    20 C20     81.6366  10.9533 -23.3196   C.2       1 RES1   0.0000
    21 C21     82.2331  12.1248 -22.9026   C.2       1 RES1   0.0000
    22 C22     82.4612  13.1843 -23.7805   C.2       1 RES1   0.0000
    23 O23     83.0891  14.3950 -23.3383   O.3       1 RES1   0.0000
    24 C24     82.0661  13.0477 -25.0943   C.2       1 RES1   0.0000
    25 C25     81.4557  11.8569 -25.5231   C.2       1 RES1   0.0000
@<TRIPOS>BOND
     1     2     1    1
     2     2     3    1
     3     3     4    1
     4     4     5    1
     5     5     6    1
     6     6     7    1
     7     7     8    1
     8     8     9    1
     9     9    10    2
    10    10    11    1
    11    11    12    2
    12    12    13    1
    13    13    14    2
    14     7    15    1
    15    15    16    1
    16     2    17    1
    17    17    18    1
    18    17    19    1
    19    19    20    2
    20    20    21    1
    21    21    22    2
    22    22    23    1
    23    22    24    1
    24    24    25    2
    25    16     4    1
    26    25    19    1
    27    14     9    1
@<TRIPOS>SUBSTRUCTURE
     1 RES1        1 GROUP             0 ****  ****    0  
@<TRIPOS>MOLECULE
ligand_37
    25    27     1     0     0
SMALL
USER_CHARGES
****
Generated from the CSD

@<TRIPOS>ATOM
     1 C1      83.4279   9.2836 -34.8725   C.3       1 RES1   0.0000
     2 C2      81.9962   9.4748 -34.3262   C.3       1 RES1   0.0000
     3 C3      82.0052   9.2903 -32.8291   C.3       1 RES1   0.0000
     4 N4      82.4598   7.9817 -32.3721   N.3       1 RES1   1.0000
     5 C5      81.6346   6.8839 -32.9474   C.3       1 RES1   0.0000
     6 C6      82.2076   5.5376 -32.5498   C.3       1 RES1   0.0000
     7 C7      82.1844   5.4418 -31.0409   C.3       1 RES1   0.0000
     8 C8      82.7440   4.0560 -30.5850   C.3       1 RES1   0.0000
     9 C9      81.9128   2.9076 -31.1284   C.2       1 RES1   0.0000
    10 C10     80.5192   3.0832 -31.3483   C.2       1 RES1   0.0000
    11 C11     79.7486   2.0161 -31.8587   C.2       1 RES1   0.0000
    12 C12     80.3599   0.8057 -32.1294   C.2       1 RES1   0.0000
    13 C13     81.7496   0.6267 -31.8976   C.2       1 RES1   0.0000
    14 C14     82.5202   1.6941 -31.3981   C.2       1 RES1   0.0000
    15 C15     82.9730   6.5498 -30.4182   C.3       1 RES1   0.0000
    16 C16     82.4750   7.8950 -30.8915   C.3       1 RES1   0.0000
    17 C17     81.4187  10.8082 -34.6660   C.3       1 RES1   0.0000
    18 O18     82.1893  11.8249 -34.0949   O.3       1 RES1   0.0000
    19 C19     81.3520  11.1452 -36.1486   C.2       1 RES1   0.0000
    20 C20     82.2740  12.0049 -36.7611   C.2       1 RES1   0.0000
    21 C21     82.1763  12.2647 -38.1121   C.2       1 RES1   0.0000
    22 C22     81.1849  11.6815 -38.9010   C.2       1 RES1   0.0000
    23 O23     81.0971  11.9525 -40.3062   O.3       1 RES1   0.0000
    24 C24     80.2796  10.8329 -38.3003   C.2       1 RES1   0.0000
    25 C25     80.3737  10.5672 -36.9237   C.2       1 RES1   0.0000
@<TRIPOS>BOND
     1     2     1    1
     2     2     3    1
     3     3     4    1
     4     4     5    1
     5     5     6    1
     6     6     7    1
     7     7     8    1
     8     8     9    1
     9     9    10    2
    10    10    11    1
    11    11    12    2
    12    12    13    1
    13    13    14    2
    14     7    15    1
    15    15    16    1
    16     2    17    1
    17    17    18    1
    18    17    19    1
    19    19    20    2
    20    20    21    1
    21    21    22    2
    22    22    23    1
    23    22    24    1
    24    24    25    2
    25    16     4    1
    26    25    19    1
    27    14     9    1
@<TRIPOS>SUBSTRUCTURE
     1 RES1        1 GROUP             0 ****  ****    0  
@<TRIPOS>MOLECULE
ligand_38
    25    27     1     0     0
SMALL
USER_CHARGES
****
Generated from the CSD

@<TRIPOS>ATOM
     1 C1      83.5695   8.9916 -36.4521   C.3       1 RES1   0.0000
     2 C2      83.2921   9.0586 -34.9344   C.3       1 RES1   0.0000
     3 C3      84.3177   8.2289 -34.2031   C.3       1 RES1   0.0000
     4 N4      83.7832   7.3833 -33.1414   N.3       1 RES1   1.0000
     5 C5      84.8706   6.7212 -32.3691   C.3       1 RES1   0.0000
     6 C6      84.2859   5.9493 -31.2023   C.3       1 RES1   0.0000
     7 C7      83.3522   4.8956 -31.7540   C.3       1 RES1   0.0000
     8 C8      82.7440   4.0560 -30.5850   C.3       1 RES1   0.0000
     9 C9      81.8930   2.9090 -31.1000   C.2       1 RES1   0.0000
    10 C10     80.5040   3.1050 -31.3310   C.2       1 RES1   0.0000
    11 C11     79.7150   2.0390 -31.8150   C.2       1 RES1   0.0000
    12 C12     80.3040   0.8100 -32.0490   C.2       1 RES1   0.0000
    13 C13     81.6890   0.6110 -31.8060   C.2       1 RES1   0.0000
    14 C14     82.4780   1.6770 -31.3330   C.2       1 RES1   0.0000
    15 C15     82.2620   5.5150 -32.5695   C.3       1 RES1   0.0000
    16 C16     82.8373   6.3718 -33.6725   C.3       1 RES1   0.0000
    17 C17     83.3013  10.4533 -34.4039   C.3       1 RES1   0.0000
    18 O18     82.3639  11.2333 -35.0870   O.3       1 RES1   0.0000
    19 C19     82.9481  10.6065 -32.9314   C.2       1 RES1   0.0000
    20 C20     83.8819  10.3771 -31.9118   C.2       1 RES1   0.0000
    21 C21     83.5127  10.5450 -30.5936   C.2       1 RES1   0.0000
    22 C22     82.2273  10.9539 -30.2386   C.2       1 RES1   0.0000
    23 O23     81.8562  11.1327 -28.8654   O.3       1 RES1   0.0000
    24 C24     81.3089  11.1833 -31.2409   C.2       1 RES1   0.0000
    25 C25     81.6798  11.0111 -32.5853   C.2       1 RES1   0.0000
@<TRIPOS>BOND
     1     2     1    1
     2     2     3    1
     3     3     4    1
     4     4     5    1
     5     5     6    1
     6     6     7    1
     7     7     8    1
     8     8     9    1
     9     9    10    2
    10    10    11    1
    11    11    12    2
    12    12    13    1
    13    13    14    2
    14     7    15    1
    15    15    16    1
    16     2    17    1
    17    17    18    1
    18    17    19    1
    19    19    20    2
    20    20    21    1
    21    21    22    2
    22    22    23    1
    23    22    24    1
    24    24    25    2
    25    16     4    1
    26    25    19    1
    27    14     9    1
@<TRIPOS>SUBSTRUCTURE
     1 RES1        1 GROUP             0 ****  ****    0  
@<TRIPOS>MOLECULE
ligand_39
    25    27     1     0     0
SMALL
USER_CHARGES
****
Generated from the CSD

@<TRIPOS>ATOM
     1 C1      84.4965  10.2914 -32.8198   C.3       1 RES1   0.0000
     2 C2      85.2584   9.3139 -33.7411   C.3       1 RES1   0.0000
     3 C3      84.3177   8.2289 -34.2031   C.3       1 RES1   0.0000
     4 N4      83.7832   7.3833 -33.1414   N.3       1 RES1   1.0000
     5 C5      84.8706   6.7212 -32.3691   C.3       1 RES1   0.0000
     6 C6      84.2859   5.9493 -31.2023   C.3       1 RES1   0.0000
     7 C7      83.3522   4.8956 -31.7540   C.3       1 RES1   0.0000
     8 C8      82.7440   4.0560 -30.5850   C.3       1 RES1   0.0000
     9 C9      81.8930   2.9090 -31.1000   C.2       1 RES1   0.0000
    10 C10     80.5040   3.1050 -31.3310   C.2       1 RES1   0.0000
    11 C11     79.7150   2.0390 -31.8150   C.2       1 RES1   0.0000
    12 C12     80.3040   0.8100 -32.0490   C.2       1 RES1   0.0000
    13 C13     81.6890   0.6110 -31.8060   C.2       1 RES1   0.0000
    14 C14     82.4780   1.6770 -31.3330   C.2       1 RES1   0.0000
    15 C15     82.2620   5.5150 -32.5695   C.3       1 RES1   0.0000
    16 C16     82.8373   6.3718 -33.6725   C.3       1 RES1   0.0000
    17 C17     85.8694   9.9880 -34.9238   C.3       1 RES1   0.0000
    18 O18     84.9126  10.7676 -35.5798   O.3       1 RES1   0.0000
    19 C19     87.0201  10.9386 -34.6259   C.2       1 RES1   0.0000
    20 C20     86.9604  11.8820 -33.5912   C.2       1 RES1   0.0000
    21 C21     88.0382  12.7095 -33.3550   C.2       1 RES1   0.0000
    22 C22     89.2057  12.6274 -34.1137   C.2       1 RES1   0.0000
    23 O23     90.3233  13.4873 -33.8547   O.3       1 RES1   0.0000
    24 C24     89.2669  11.6972 -35.1295   C.2       1 RES1   0.0000
    25 C25     88.1703  10.8537 -35.3754   C.2       1 RES1   0.0000
@<TRIPOS>BOND
     1     2     1    1
     2     2     3    1
     3     3     4    1
     4     4     5    1
     5     5     6    1
     6     6     7    1
     7     7     8    1
     8     8     9    1
     9     9    10    2
    10    10    11    1
    11    11    12    2
    12    12    13    1
    13    13    14    2
    14     7    15    1
    15    15    16    1
    16     2    17    1
    17    17    18    1
    18    17    19    1
    19    19    20    2
    20    20    21    1
    21    21    22    2
    22    22    23    1
    23    22    24    1
    24    24    25    2
    25    16     4    1
    26    25    19    1
    27    14     9    1
@<TRIPOS>SUBSTRUCTURE
     1 RES1        1 GROUP             0 ****  ****    0  
@<TRIPOS>MOLECULE
ligand_40
    25    27     1     0     0
SMALL
USER_CHARGES
****
Generated from the CSD

@<TRIPOS>ATOM
     1 C1      88.3381   5.4793 -34.2773   C.3       1 RES1   0.0000
     2 C2      87.1608   6.0086 -35.1250   C.3       1 RES1   0.0000
     3 C3      86.2241   6.7943 -34.2416   C.3       1 RES1   0.0000
     4 N4      85.5871   6.0239 -33.1792   N.3       1 RES1   1.0000
     5 C5      84.8121   4.8756 -33.7251   C.3       1 RES1   0.0000
     6 C6      84.2657   4.0294 -32.5917   C.3       1 RES1   0.0000
     7 C7      83.3522   4.8956 -31.7540   C.3       1 RES1   0.0000
     8 C8      82.7440   4.0560 -30.5850   C.3       1 RES1   0.0000
     9 C9      81.8907   2.9107 -31.1000   C.2       1 RES1   0.0000
    10 C10     80.5038   3.1120 -31.3393   C.2       1 RES1   0.0000
    11 C11     79.7127   2.0476 -31.8233   C.2       1 RES1   0.0000
    12 C12     80.2974   0.8150 -32.0491   C.2       1 RES1   0.0000
    13 C13     81.6802   0.6108 -31.7978   C.2       1 RES1   0.0000
    14 C14     82.4714   1.6752 -31.3248   C.2       1 RES1   0.0000
    15 C15     84.0821   6.0841 -31.2138   C.3       1 RES1   0.0000
    16 C16     84.7190   6.8764 -32.3311   C.3       1 RES1   0.0000
    17 C17     87.6051   6.8574 -36.2691   C.3       1 RES1   0.0000
    18 O18     88.4833   7.8476 -35.8198   O.3       1 RES1   0.0000
    19 C19     88.3544   6.1361 -37.3801   C.2       1 RES1   0.0000
    20 C20     89.3830   5.2217 -37.1155   C.2       1 RES1   0.0000
    21 C21     90.0194   4.5846 -38.1601   C.2       1 RES1   0.0000
    22 C22     89.6586   4.8138 -39.4877   C.2       1 RES1   0.0000
    23 O23     90.3217   4.1403 -40.5658   O.3       1 RES1   0.0000
    24 C24     88.6445   5.7105 -39.7491   C.2       1 RES1   0.0000
    25 C25     87.9949   6.3638 -38.6881   C.2       1 RES1   0.0000
@<TRIPOS>BOND
     1     2     1    1
     2     2     3    1
     3     3     4    1
     4     4     5    1
     5     5     6    1
     6     6     7    1
     7     7     8    1
     8     8     9    1
     9     9    10    2
    10    10    11    1
    11    11    12    2
    12    12    13    1
    13    13    14    2
    14     7    15    1
    15    15    16    1
    16     2    17    1
    17    17    18    1
    18    17    19    1
    19    19    20    2
    20    20    21    1
    21    21    22    2
    22    22    23    1
    23    22    24    1
    24    24    25    2
    25    16     4    1
    26    25    19    1
    27    14     9    1
@<TRIPOS>SUBSTRUCTURE
     1 RES1        1 GROUP             0 ****  ****    0  
@<TRIPOS>MOLECULE
ligand_41
    25    27     1     0     0
SMALL
USER_CHARGES
****
Generated from the CSD

@<TRIPOS>ATOM
     1 C1      86.9044   9.1635 -34.5935   C.3       1 RES1   0.0000
     2 C2      87.1561   7.8822 -33.7690   C.3       1 RES1   0.0000
     3 C3      86.2241   6.7943 -34.2416   C.3       1 RES1   0.0000
     4 N4      85.5871   6.0239 -33.1792   N.3       1 RES1   1.0000
     5 C5      84.8121   4.8756 -33.7251   C.3       1 RES1   0.0000
     6 C6      84.2657   4.0294 -32.5917   C.3       1 RES1   0.0000
     7 C7      83.3522   4.8956 -31.7540   C.3       1 RES1   0.0000
     8 C8      82.7440   4.0560 -30.5850   C.3       1 RES1   0.0000
     9 C9      81.8907   2.9107 -31.1000   C.2       1 RES1   0.0000
    10 C10     80.5038   3.1119 -31.3391   C.2       1 RES1   0.0000
    11 C11     79.7127   2.0474 -31.8231   C.2       1 RES1   0.0000
    12 C12     80.2975   0.8149 -32.0491   C.2       1 RES1   0.0000
    13 C13     81.6803   0.6108 -31.7979   C.2       1 RES1   0.0000
    14 C14     82.4715   1.6752 -31.3250   C.2       1 RES1   0.0000
    15 C15     84.0821   6.0841 -31.2138   C.3       1 RES1   0.0000
    16 C16     84.7190   6.8764 -32.3311   C.3       1 RES1   0.0000
    17 C17     88.5682   7.4069 -33.8519   C.3       1 RES1   0.0000
    18 O18     88.7527   6.3018 -33.0163   O.3       1 RES1   0.0000
    19 C19     89.0355   6.9486 -35.2259   C.2       1 RES1   0.0000
    20 C20     88.7931   5.6534 -35.7033   C.2       1 RES1   0.0000
    21 C21     89.2261   5.2949 -36.9628   C.2       1 RES1   0.0000
    22 C22     89.8941   6.1954 -37.7923   C.2       1 RES1   0.0000
    23 O23     90.3331   5.8145 -39.1030   O.3       1 RES1   0.0000
    24 C24     90.1300   7.4708 -37.3251   C.2       1 RES1   0.0000
    25 C25     89.6929   7.8398 -36.0416   C.2       1 RES1   0.0000
@<TRIPOS>BOND
     1     2     1    1
     2     2     3    1
     3     3     4    1
     4     4     5    1
     5     5     6    1
     6     6     7    1
     7     7     8    1
     8     8     9    1
     9     9    10    2
    10    10    11    1
    11    11    12    2
    12    12    13    1
    13    13    14    2
    14     7    15    1
    15    15    16    1
    16     2    17    1
    17    17    18    1
    18    17    19    1
    19    19    20    2
    20    20    21    1
    21    21    22    2
    22    22    23    1
    23    22    24    1
    24    24    25    2
    25    16     4    1
    26    25    19    1
    27    14     9    1
@<TRIPOS>SUBSTRUCTURE
     1 RES1        1 GROUP             0 ****  ****    0  
@<TRIPOS>MOLECULE
ligand_42
    25    27     1     0     0
SMALL
USER_CHARGES
****
Generated from the CSD

@<TRIPOS>ATOM
     1 C1      82.7288   8.1886 -25.2063   C.3       1 RES1   0.0000
     2 C2      81.4657   8.6390 -25.9722   C.3       1 RES1   0.0000
     3 C3      80.6888   7.4227 -26.4111   C.3       1 RES1   0.0000
     4 N4      81.4190   6.5048 -27.2784   N.3       1 RES1   1.0000
     5 C5      81.9076   7.1864 -28.5089   C.3       1 RES1   0.0000
     6 C6      82.7623   6.2373 -29.3261   C.3       1 RES1   0.0000
     7 C7      81.9092   5.0516 -29.7171   C.3       1 RES1   0.0000
     8 C8      82.7440   4.0560 -30.5850   C.3       1 RES1   0.0000
     9 C9      81.8991   2.8948 -31.0778   C.2       1 RES1   0.0000
    10 C10     80.5148   3.0860 -31.3389   C.2       1 RES1   0.0000
    11 C11     79.7316   2.0067 -31.8022   C.2       1 RES1   0.0000
    12 C12     80.3215   0.7697 -31.9868   C.2       1 RES1   0.0000
    13 C13     81.7016   0.5759 -31.7137   C.2       1 RES1   0.0000
    14 C14     82.4850   1.6549 -31.2613   C.2       1 RES1   0.0000
    15 C15     81.3658   4.3568 -28.5091   C.3       1 RES1   0.0000
    16 C16     80.5996   5.3210 -27.6345   C.3       1 RES1   0.0000
    17 C17     80.5860   9.5342 -25.1650   C.3       1 RES1   0.0000
    18 O18     79.6423  10.1518 -25.9906   O.3       1 RES1   0.0000
    19 C19     79.7738   8.8570 -24.0705   C.2       1 RES1   0.0000
    20 C20     78.4080   8.5791 -24.2177   C.2       1 RES1   0.0000
    21 C21     77.7228   7.9499 -23.1995   C.2       1 RES1   0.0000
    22 C22     78.3565   7.5643 -22.0183   C.2       1 RES1   0.0000
    23 O23     77.6363   6.9038 -20.9691   O.3       1 RES1   0.0000
    24 C24     79.7008   7.8340 -21.8738   C.2       1 RES1   0.0000
    25 C25     80.4024   8.4771 -22.9075   C.2       1 RES1   0.0000
@<TRIPOS>BOND
     1     2     1    1
     2     2     3    1
     3     3     4    1
     4     4     5    1
     5     5     6    1
     6     6     7    1
     7     7     8    1
     8     8     9    1
     9     9    10    2
    10    10    11    1
    11    11    12    2
    12    12    13    1
    13    13    14    2
    14     7    15    1
    15    15    16    1
    16     2    17    1
    17    17    18    1
    18    17    19    1
    19    19    20    2
    20    20    21    1
    21    21    22    2
    22    22    23    1
    23    22    24    1
    24    24    25    2
    25    16     4    1
    26    25    19    1
    27    14     9    1
@<TRIPOS>SUBSTRUCTURE
     1 RES1        1 GROUP             0 ****  ****    0  
@<TRIPOS>MOLECULE
ligand_43
    25    27     1     0     0
SMALL
USER_CHARGES
****
Generated from the CSD

@<TRIPOS>ATOM
     1 C1      82.8296  10.1618 -33.7041   C.3       1 RES1   0.0000
     2 C2      84.2911   9.7090 -33.9134   C.3       1 RES1   0.0000
     3 C3      84.3177   8.2289 -34.2031   C.3       1 RES1   0.0000
     4 N4      83.7832   7.3833 -33.1414   N.3       1 RES1   1.0000
     5 C5      84.8706   6.7212 -32.3691   C.3       1 RES1   0.0000
     6 C6      84.2859   5.9493 -31.2023   C.3       1 RES1   0.0000
     7 C7      83.3522   4.8956 -31.7540   C.3       1 RES1   0.0000
     8 C8      82.7440   4.0560 -30.5850   C.3       1 RES1   0.0000
     9 C9      81.8930   2.9090 -31.1000   C.2       1 RES1   0.0000
    10 C10     80.5040   3.1050 -31.3310   C.2       1 RES1   0.0000
    11 C11     79.7150   2.0390 -31.8150   C.2       1 RES1   0.0000
    12 C12     80.3040   0.8100 -32.0490   C.2       1 RES1   0.0000
    13 C13     81.6890   0.6110 -31.8060   C.2       1 RES1   0.0000
    14 C14     82.4780   1.6770 -31.3330   C.2       1 RES1   0.0000
    15 C15     82.2620   5.5150 -32.5695   C.3       1 RES1   0.0000
    16 C16     82.8373   6.3718 -33.6725   C.3       1 RES1   0.0000
    17 C17     84.9764  10.4498 -35.0126   C.3       1 RES1   0.0000
    18 O18     84.9194  11.8257 -34.7730   O.3       1 RES1   0.0000
    19 C19     86.4545  10.1404 -35.2018   C.2       1 RES1   0.0000
    20 C20     86.8971   9.0239 -35.9242   C.2       1 RES1   0.0000
    21 C21     88.2491   8.7987 -36.0776   C.2       1 RES1   0.0000
    22 C22     89.2021   9.6646 -35.5415   C.2       1 RES1   0.0000
    23 O23     90.6052   9.4252 -35.7135   O.3       1 RES1   0.0000
    24 C24     88.7678  10.7652 -34.8338   C.2       1 RES1   0.0000
    25 C25     87.3913  10.9974 -34.6728   C.2       1 RES1   0.0000
@<TRIPOS>BOND
     1     2     1    1
     2     2     3    1
     3     3     4    1
     4     4     5    1
     5     5     6    1
     6     6     7    1
     7     7     8    1
     8     8     9    1
     9     9    10    2
    10    10    11    1
    11    11    12    2
    12    12    13    1
    13    13    14    2
    14     7    15    1
    15    15    16    1
    16     2    17    1
    17    17    18    1
    18    17    19    1
    19    19    20    2
    20    20    21    1
    21    21    22    2
    22    22    23    1
    23    22    24    1
    24    24    25    2
    25    16     4    1
    26    25    19    1
    27    14     9    1
@<TRIPOS>SUBSTRUCTURE
     1 RES1        1 GROUP             0 ****  ****    0  
@<TRIPOS>MOLECULE
ligand_44
    25    27     1     0     0
SMALL
USER_CHARGES
****
Generated from the CSD

@<TRIPOS>ATOM
     1 C1      83.4219   9.2652 -34.8766   C.3       1 RES1   0.0000
     2 C2      81.9942   9.4741 -34.3263   C.3       1 RES1   0.0000
     3 C3      82.0052   9.2903 -32.8291   C.3       1 RES1   0.0000
     4 N4      82.4598   7.9817 -32.3721   N.3       1 RES1   1.0000
     5 C5      81.6346   6.8839 -32.9474   C.3       1 RES1   0.0000
     6 C6      82.2076   5.5376 -32.5498   C.3       1 RES1   0.0000
     7 C7      82.1844   5.4418 -31.0409   C.3       1 RES1   0.0000
     8 C8      82.7440   4.0560 -30.5850   C.3       1 RES1   0.0000
     9 C9      81.9119   2.9077 -31.1273   C.2       1 RES1   0.0000
    10 C10     80.5179   3.0830 -31.3443   C.2       1 RES1   0.0000
    11 C11     79.7465   2.0160 -31.8537   C.2       1 RES1   0.0000
    12 C12     80.3576   0.8058 -32.1260   C.2       1 RES1   0.0000
    13 C13     81.7477   0.6270 -31.8971   C.2       1 RES1   0.0000
    14 C14     82.5191   1.6944 -31.3987   C.2       1 RES1   0.0000
    15 C15     82.9730   6.5498 -30.4182   C.3       1 RES1   0.0000
    16 C16     82.4750   7.8950 -30.8915   C.3       1 RES1   0.0000
    17 C17     81.4319  10.8142 -34.6652   C.3       1 RES1   0.0000
    18 O18     80.0554  10.8326 -34.4234   O.3       1 RES1   0.0000
    19 C19     81.9901  11.9884 -33.8739   C.2       1 RES1   0.0000
    20 C20     81.2833  12.5810 -32.8187   C.2       1 RES1   0.0000
    21 C21     81.8425  13.6338 -32.1250   C.2       1 RES1   0.0000
    22 C22     83.1105  14.1250 -32.4350   C.2       1 RES1   0.0000
    23 O23     83.6857  15.2150 -31.7023   O.3       1 RES1   0.0000
    24 C24     83.8082  13.5405 -33.4705   C.2       1 RES1   0.0000
    25 C25     83.2414  12.4693 -34.1818   C.2       1 RES1   0.0000
@<TRIPOS>BOND
     1     2     1    1
     2     2     3    1
     3     3     4    1
     4     4     5    1
     5     5     6    1
     6     6     7    1
     7     7     8    1
     8     8     9    1
     9     9    10    2
    10    10    11    1
    11    11    12    2
    12    12    13    1
    13    13    14    2
    14     7    15    1
    15    15    16    1
    16     2    17    1
    17    17    18    1
    18    17    19    1
    19    19    20    2
    20    20    21    1
    21    21    22    2
    22    22    23    1
    23    22    24    1
    24    24    25    2
    25    16     4    1
    26    25    19    1
    27    14     9    1
@<TRIPOS>SUBSTRUCTURE
     1 RES1        1 GROUP             0 ****  ****    0  
@<TRIPOS>MOLECULE
ligand_45
    25    27     1     0     0
SMALL
USER_CHARGES
****
Generated from the CSD

@<TRIPOS>ATOM
     1 C1      88.4300   6.9496 -33.0973   C.3       1 RES1   0.0000
     2 C2      87.7048   6.5553 -34.4024   C.3       1 RES1   0.0000
     3 C3      86.2241   6.7943 -34.2416   C.3       1 RES1   0.0000
     4 N4      85.5871   6.0239 -33.1792   N.3       1 RES1   1.0000
     5 C5      84.8121   4.8756 -33.7251   C.3       1 RES1   0.0000
     6 C6      84.2657   4.0294 -32.5917   C.3       1 RES1   0.0000
     7 C7      83.3522   4.8956 -31.7540   C.3       1 RES1   0.0000
     8 C8      82.7440   4.0560 -30.5850   C.3       1 RES1   0.0000
     9 C9      81.8913   2.9103 -31.1000   C.2       1 RES1   0.0000
    10 C10     80.5039   3.1101 -31.3370   C.2       1 RES1   0.0000
    11 C11     79.7133   2.0452 -31.8210   C.2       1 RES1   0.0000
    12 C12     80.2992   0.8137 -32.0491   C.2       1 RES1   0.0000
    13 C13     81.6826   0.6109 -31.8000   C.2       1 RES1   0.0000
    14 C14     82.4732   1.6757 -31.3271   C.2       1 RES1   0.0000
    15 C15     84.0821   6.0841 -31.2138   C.3       1 RES1   0.0000
    16 C16     84.7190   6.8764 -32.3311   C.3       1 RES1   0.0000
    17 C17     88.2086   7.2992 -35.5938   C.3       1 RES1   0.0000
    18 O18     89.5880   7.1167 -35.7260   O.3       1 RES1   0.0000
    19 C19     87.6223   6.8815 -36.9348   C.2       1 RES1   0.0000
    20 C20     86.3845   7.3566 -37.3890   C.2       1 RES1   0.0000
    21 C21     85.9066   6.9572 -38.6195   C.2       1 RES1   0.0000
    22 C22     86.6309   6.0953 -39.4428   C.2       1 RES1   0.0000
    23 O23     86.1283   5.6924 -40.7237   O.3       1 RES1   0.0000
    24 C24     87.8504   5.6301 -38.9986   C.2       1 RES1   0.0000
    25 C25     88.3402   6.0323 -37.7445   C.2       1 RES1   0.0000
@<TRIPOS>BOND
     1     2     1    1
     2     2     3    1
     3     3     4    1
     4     4     5    1
     5     5     6    1
     6     6     7    1
     7     7     8    1
     8     8     9    1
     9     9    10    2
    10    10    11    1
    11    11    12    2
    12    12    13    1
    13    13    14    2
    14     7    15    1
    15    15    16    1
    16     2    17    1
    17    17    18    1
    18    17    19    1
    19    19    20    2
    20    20    21    1
    21    21    22    2
    22    22    23    1
    23    22    24    1
    24    24    25    2
    25    16     4    1
    26    25    19    1
    27    14     9    1
@<TRIPOS>SUBSTRUCTURE
     1 RES1        1 GROUP             0 ****  ****    0  
@<TRIPOS>MOLECULE
ligand_46
    25    27     1     0     0
SMALL
USER_CHARGES
****
Generated from the CSD

@<TRIPOS>ATOM
     1 C1      84.2039   6.7602 -38.1185   C.3       1 RES1   0.0000
     2 C2      83.4263   6.1192 -36.9484   C.3       1 RES1   0.0000
     3 C3      84.2630   6.1909 -35.6953   C.3       1 RES1   0.0000
     4 N4      83.7293   5.4542 -34.5549   N.3       1 RES1   1.0000
     5 C5      82.8781   6.3206 -33.6934   C.3       1 RES1   0.0000
     6 C6      82.2445   5.4966 -32.5896   C.3       1 RES1   0.0000
     7 C7      83.3522   4.8956 -31.7540   C.3       1 RES1   0.0000
     8 C8      82.7440   4.0560 -30.5850   C.3       1 RES1   0.0000
     9 C9      81.8896   2.9115 -31.1000   C.2       1 RES1   0.0000
    10 C10     80.5033   3.1144 -31.3409   C.2       1 RES1   0.0000
    11 C11     79.7112   2.0507 -31.8248   C.2       1 RES1   0.0000
    12 C12     80.2945   0.8172 -32.0491   C.2       1 RES1   0.0000
    13 C13     81.6767   0.6113 -31.7962   C.2       1 RES1   0.0000
    14 C14     82.4689   1.6750 -31.3233   C.2       1 RES1   0.0000
    15 C15     84.2556   4.0444 -32.5885   C.3       1 RES1   0.0000
    16 C16     84.8100   4.8309 -33.7529   C.3       1 RES1   0.0000
    17 C17     82.1029   6.7653 -36.7081   C.3       1 RES1   0.0000
    18 O18     82.2828   8.0820 -36.2749   O.3       1 RES1   0.0000
    19 C19     81.1836   6.8668 -37.9168   C.2       1 RES1   0.0000
    20 C20     81.0128   8.0633 -38.6265   C.2       1 RES1   0.0000
    21 C21     80.1785   8.0960 -39.7242   C.2       1 RES1   0.0000
    22 C22     79.5011   6.9590 -40.1644   C.2       1 RES1   0.0000
    23 O23     78.6420   7.0023 -41.3115   O.3       1 RES1   0.0000
    24 C24     79.6711   5.7806 -39.4692   C.2       1 RES1   0.0000
    25 C25     80.5182   5.7432 -38.3487   C.2       1 RES1   0.0000
@<TRIPOS>BOND
     1     2     1    1
     2     2     3    1
     3     3     4    1
     4     4     5    1
     5     5     6    1
     6     6     7    1
     7     7     8    1
     8     8     9    1
     9     9    10    2
    10    10    11    1
    11    11    12    2
    12    12    13    1
    13    13    14    2
    14     7    15    1
    15    15    16    1
    16     2    17    1
    17    17    18    1
    18    17    19    1
    19    19    20    2
    20    20    21    1
    21    21    22    2
    22    22    23    1
    23    22    24    1
    24    24    25    2
    25    16     4    1
    26    25    19    1
    27    14     9    1
@<TRIPOS>SUBSTRUCTURE
     1 RES1        1 GROUP             0 ****  ****    0  
@<TRIPOS>MOLECULE
ligand_47
    25    27     1     0     0
SMALL
USER_CHARGES
****
Generated from the CSD

@<TRIPOS>ATOM
     1 C1      88.3992   7.1238 -33.0568   C.3       1 RES1   0.0000
     2 C2      87.5074   6.8887 -34.2955   C.3       1 RES1   0.0000
     3 C3      86.0868   7.2755 -33.9675   C.3       1 RES1   0.0000
     4 N4      85.4575   6.4794 -32.9195   N.3       1 RES1   1.0000
     5 C5      85.1786   5.0910 -33.3797   C.3       1 RES1   0.0000
     6 C6      84.6382   4.2600 -32.2323   C.3       1 RES1   0.0000
     7 C7      83.3522   4.8956 -31.7540   C.3       1 RES1   0.0000
     8 C8      82.7440   4.0560 -30.5850   C.3       1 RES1   0.0000
     9 C9      81.8930   2.9090 -31.1000   C.2       1 RES1   0.0000
    10 C10     80.5040   3.1050 -31.3310   C.2       1 RES1   0.0000
    11 C11     79.7150   2.0390 -31.8150   C.2       1 RES1   0.0000
    12 C12     80.3040   0.8100 -32.0490   C.2       1 RES1   0.0000
    13 C13     81.6890   0.6110 -31.8060   C.2       1 RES1   0.0000
    14 C14     82.4780   1.6770 -31.3330   C.2       1 RES1   0.0000
    15 C15     83.5793   6.3073 -31.3151   C.3       1 RES1   0.0000
    16 C16     84.2152   7.1174 -32.4201   C.3       1 RES1   0.0000
    17 C17     87.9708   7.6444 -35.4959   C.3       1 RES1   0.0000
    18 O18     87.9324   9.0185 -35.2428   O.3       1 RES1   0.0000
    19 C19     89.3965   7.3634 -35.9485   C.2       1 RES1   0.0000
    20 C20     89.6815   6.5799 -37.0751   C.2       1 RES1   0.0000
    21 C21     90.9919   6.3691 -37.4497   C.2       1 RES1   0.0000
    22 C22     92.0558   6.9287 -36.7423   C.2       1 RES1   0.0000
    23 O23     93.4143   6.7094 -37.1450   O.3       1 RES1   0.0000
    24 C24     91.7765   7.7025 -35.6360   C.2       1 RES1   0.0000
    25 C25     90.4430   7.9180 -35.2491   C.2       1 RES1   0.0000
@<TRIPOS>BOND
     1     2     1    1
     2     2     3    1
     3     3     4    1
     4     4     5    1
     5     5     6    1
     6     6     7    1
     7     7     8    1
     8     8     9    1
     9     9    10    2
    10    10    11    1
    11    11    12    2
    12    12    13    1
    13    13    14    2
    14     7    15    1
    15    15    16    1
    16     2    17    1
    17    17    18    1
    18    17    19    1
    19    19    20    2
    20    20    21    1
    21    21    22    2
    22    22    23    1
    23    22    24    1
    24    24    25    2
    25    16     4    1
    26    25    19    1
    27    14     9    1
@<TRIPOS>SUBSTRUCTURE
     1 RES1        1 GROUP             0 ****  ****    0  
@<TRIPOS>MOLECULE
ligand_48
    25    27     1     0     0
SMALL
USER_CHARGES
****
Generated from the CSD

@<TRIPOS>ATOM
     1 C1      79.3008   7.8487 -24.3883   C.3       1 RES1   0.0000
     2 C2      80.1873   6.8194 -25.1228   C.3       1 RES1   0.0000
     3 C3      80.6888   7.4227 -26.4111   C.3       1 RES1   0.0000
     4 N4      81.4190   6.5048 -27.2784   N.3       1 RES1   1.0000
     5 C5      81.9076   7.1864 -28.5089   C.3       1 RES1   0.0000
     6 C6      82.7623   6.2373 -29.3261   C.3       1 RES1   0.0000
     7 C7      81.9092   5.0516 -29.7171   C.3       1 RES1   0.0000
     8 C8      82.7440   4.0560 -30.5850   C.3       1 RES1   0.0000
     9 C9      81.8994   2.8943 -31.0769   C.2       1 RES1   0.0000
    10 C10     80.5142   3.0840 -31.3345   C.2       1 RES1   0.0000
    11 C11     79.7312   2.0041 -31.7970   C.2       1 RES1   0.0000
    12 C12     80.3222   0.7681 -31.9842   C.2       1 RES1   0.0000
    13 C13     81.7032   0.5757 -31.7147   C.2       1 RES1   0.0000
    14 C14     82.4863   1.6552 -31.2631   C.2       1 RES1   0.0000
    15 C15     81.3658   4.3568 -28.5091   C.3       1 RES1   0.0000
    16 C16     80.5996   5.3210 -27.6345   C.3       1 RES1   0.0000
    17 C17     81.3429   6.3568 -24.2998   C.3       1 RES1   0.0000
    18 O18     82.1752   7.4364 -23.9909   O.3       1 RES1   0.0000
    19 C19     80.9941   5.7276 -22.9586   C.2       1 RES1   0.0000
    20 C20     81.1240   6.4254 -21.7501   C.2       1 RES1   0.0000
    21 C21     80.7795   5.8120 -20.5639   C.2       1 RES1   0.0000
    22 C22     80.2869   4.5076 -20.5291   C.2       1 RES1   0.0000
    23 O23     79.9245   3.8820 -19.2910   O.3       1 RES1   0.0000
    24 C24     80.1553   3.8213 -21.7176   C.2       1 RES1   0.0000
    25 C25     80.5075   4.4414 -22.9284   C.2       1 RES1   0.0000
@<TRIPOS>BOND
     1     2     1    1
     2     2     3    1
     3     3     4    1
     4     4     5    1
     5     5     6    1
     6     6     7    1
     7     7     8    1
     8     8     9    1
     9     9    10    2
    10    10    11    1
    11    11    12    2
    12    12    13    1
    13    13    14    2
    14     7    15    1
    15    15    16    1
    16     2    17    1
    17    17    18    1
    18    17    19    1
    19    19    20    2
    20    20    21    1
    21    21    22    2
    22    22    23    1
    23    22    24    1
    24    24    25    2
    25    16     4    1
    26    25    19    1
    27    14     9    1
@<TRIPOS>SUBSTRUCTURE
     1 RES1        1 GROUP             0 ****  ****    0  
@<TRIPOS>MOLECULE
ligand_49
    25    27     1     0     0
SMALL
USER_CHARGES
****
Generated from the CSD

@<TRIPOS>ATOM
     1 C1      82.1251  11.7759 -32.7437   C.3       1 RES1   0.0000
     2 C2      82.8107  10.4590 -32.3186   C.3       1 RES1   0.0000
     3 C3      82.0052   9.2903 -32.8291   C.3       1 RES1   0.0000
     4 N4      82.4598   7.9817 -32.3721   N.3       1 RES1   1.0000
     5 C5      81.6346   6.8839 -32.9474   C.3       1 RES1   0.0000
     6 C6      82.2076   5.5376 -32.5498   C.3       1 RES1   0.0000
     7 C7      82.1844   5.4418 -31.0409   C.3       1 RES1   0.0000
     8 C8      82.7440   4.0560 -30.5850   C.3       1 RES1   0.0000
     9 C9      81.9106   2.9078 -31.1254   C.2       1 RES1   0.0000
    10 C10     80.5171   3.0849 -31.3441   C.2       1 RES1   0.0000
    11 C11     79.7444   2.0179 -31.8516   C.2       1 RES1   0.0000
    12 C12     80.3537   0.8061 -32.1206   C.2       1 RES1   0.0000
    13 C13     81.7434   0.6256 -31.8900   C.2       1 RES1   0.0000
    14 C14     82.5160   1.6929 -31.3934   C.2       1 RES1   0.0000
    15 C15     82.9730   6.5498 -30.4182   C.3       1 RES1   0.0000
    16 C16     82.4750   7.8950 -30.8915   C.3       1 RES1   0.0000
    17 C17     84.2169  10.3531 -32.8066   C.3       1 RES1   0.0000
    18 O18     84.2432  10.3731 -34.2039   O.3       1 RES1   0.0000
    19 C19     85.1559  11.4706 -32.3755   C.2       1 RES1   0.0000
    20 C20     85.5209  12.5134 -33.2378   C.2       1 RES1   0.0000
    21 C21     86.3639  13.5092 -32.7908   C.2       1 RES1   0.0000
    22 C22     86.8604  13.5193 -31.4875   C.2       1 RES1   0.0000
    23 O23     87.7301  14.5636 -31.0307   O.3       1 RES1   0.0000
    24 C24     86.4992  12.4959 -30.6372   C.2       1 RES1   0.0000
    25 C25     85.6426  11.4778 -31.0890   C.2       1 RES1   0.0000
@<TRIPOS>BOND
     1     2     1    1
     2     2     3    1
     3     3     4    1
     4     4     5    1
     5     5     6    1
     6     6     7    1
     7     7     8    1
     8     8     9    1
     9     9    10    2
    10    10    11    1
    11    11    12    2
    12    12    13    1
    13    13    14    2
    14     7    15    1
    15    15    16    1
    16     2    17    1
    17    17    18    1
    18    17    19    1
    19    19    20    2
    20    20    21    1
    21    21    22    2
    22    22    23    1
    23    22    24    1
    24    24    25    2
    25    16     4    1
    26    25    19    1
    27    14     9    1
@<TRIPOS>SUBSTRUCTURE
     1 RES1        1 GROUP             0 ****  ****    0  
@<TRIPOS>MOLECULE
ligand_50
    25    27     1     0     0
SMALL
USER_CHARGES
****
Generated from the CSD

@<TRIPOS>ATOM
     1 C1      86.6634   9.1474 -34.2275   C.3       1 RES1   0.0000
     2 C2      87.2509   7.8213 -33.6972   C.3       1 RES1   0.0000
     3 C3      86.3922   6.6731 -34.1658   C.3       1 RES1   0.0000
     4 N4      85.3413   6.2704 -33.2376   N.3       1 RES1   1.0000
     5 C5      85.9069   5.7667 -31.9555   C.3       1 RES1   0.0000
     6 C6      84.7902   5.4722 -30.9730   C.3       1 RES1   0.0000
     7 C7      83.8981   4.4109 -31.5766   C.3       1 RES1   0.0000
     8 C8      82.7440   4.0560 -30.5850   C.3       1 RES1   0.0000
     9 C9      81.8930   2.9090 -31.1000   C.2       1 RES1   0.0000
    10 C10     80.5040   3.1050 -31.3310   C.2       1 RES1   0.0000
    11 C11     79.7150   2.0390 -31.8150   C.2       1 RES1   0.0000
    12 C12     80.3040   0.8100 -32.0490   C.2       1 RES1   0.0000
    13 C13     81.6890   0.6110 -31.8060   C.2       1 RES1   0.0000
    14 C14     82.4780   1.6770 -31.3330   C.2       1 RES1   0.0000
    15 C15     83.3356   4.8612 -32.8874   C.3       1 RES1   0.0000
    16 C16     84.4405   5.2568 -33.8383   C.3       1 RES1   0.0000
    17 C17     88.6636   7.6007 -34.1241   C.3       1 RES1   0.0000
    18 O18     88.7420   7.5528 -35.5188   O.3       1 RES1   0.0000
    19 C19     89.6591   8.6736 -33.7069   C.2       1 RES1   0.0000
    20 C20     89.6975   9.9346 -34.3174   C.2       1 RES1   0.0000
    21 C21     90.6108  10.8756 -33.8900   C.2       1 RES1   0.0000
    22 C22     91.4997  10.6140 -32.8475   C.2       1 RES1   0.0000
    23 O23     92.4400  11.6022 -32.4060   O.3       1 RES1   0.0000
    24 C24     91.4605   9.3751 -32.2438   C.2       1 RES1   0.0000
    25 C25     90.5334   8.4124 -32.6776   C.2       1 RES1   0.0000
@<TRIPOS>BOND
     1     2     1    1
     2     2     3    1
     3     3     4    1
     4     4     5    1
     5     5     6    1
     6     6     7    1
     7     7     8    1
     8     8     9    1
     9     9    10    2
    10    10    11    1
    11    11    12    2
    12    12    13    1
    13    13    14    2
    14     7    15    1
    15    15    16    1
    16     2    17    1
    17    17    18    1
    18    17    19    1
    19    19    20    2
    20    20    21    1
    21    21    22    2
    22    22    23    1
    23    22    24    1
    24    24    25    2
    25    16     4    1
    26    25    19    1
    27    14     9    1
@<TRIPOS>SUBSTRUCTURE
     1 RES1        1 GROUP             0 ****  ****    0  
@<TRIPOS>MOLECULE
ligand_51
    25    27     1     0     0
SMALL
USER_CHARGES
****
Generated from the CSD

@<TRIPOS>ATOM
     1 C1      83.3019   5.2455 -23.3169   C.3       1 RES1   0.0000
     2 C2      83.4895   3.8651 -23.9832   C.3       1 RES1   0.0000
     3 C3      84.4826   3.9873 -25.1121   C.3       1 RES1   0.0000
     4 N4      83.8969   4.2445 -26.4232   N.3       1 RES1   1.0000
     5 C5      83.0241   3.1209 -26.8626   C.3       1 RES1   0.0000
     6 C6      82.3389   3.4731 -28.1686   C.3       1 RES1   0.0000
     7 C7      83.4065   3.7139 -29.2119   C.3       1 RES1   0.0000
     8 C8      82.7440   4.0560 -30.5850   C.3       1 RES1   0.0000
     9 C9      81.8930   2.9090 -31.1000   C.2       1 RES1   0.0000
    10 C10     80.5040   3.1050 -31.3310   C.2       1 RES1   0.0000
    11 C11     79.7150   2.0390 -31.8150   C.2       1 RES1   0.0000
    12 C12     80.3040   0.8100 -32.0490   C.2       1 RES1   0.0000
    13 C13     81.6890   0.6110 -31.8060   C.2       1 RES1   0.0000
    14 C14     82.4780   1.6770 -31.3330   C.2       1 RES1   0.0000
    15 C15     84.3307   4.8131 -28.7938   C.3       1 RES1   0.0000
    16 C16     84.9386   4.5187 -27.4427   C.3       1 RES1   0.0000
    17 C17     83.9430   2.8149 -23.0250   C.3       1 RES1   0.0000
    18 O18     85.1755   3.1710 -22.4702   O.3       1 RES1   0.0000
    19 C19     83.0294   2.5626 -21.8342   C.2       1 RES1   0.0000
    20 C20     82.9320   3.4623 -20.7640   C.2       1 RES1   0.0000
    21 C21     82.0766   3.1915 -19.7165   C.2       1 RES1   0.0000
    22 C22     81.2853   2.0431 -19.6942   C.2       1 RES1   0.0000
    23 O23     80.3937   1.7751 -18.6039   O.3       1 RES1   0.0000
    24 C24     81.3777   1.1592 -20.7482   C.2       1 RES1   0.0000
    25 C25     82.2496   1.4296 -21.8164   C.2       1 RES1   0.0000
@<TRIPOS>BOND
     1     2     1    1
     2     2     3    1
     3     3     4    1
     4     4     5    1
     5     5     6    1
     6     6     7    1
     7     7     8    1
     8     8     9    1
     9     9    10    2
    10    10    11    1
    11    11    12    2
    12    12    13    1
    13    13    14    2
    14     7    15    1
    15    15    16    1
    16     2    17    1
    17    17    18    1
    18    17    19    1
    19    19    20    2
    20    20    21    1
    21    21    22    2
    22    22    23    1
    23    22    24    1
    24    24    25    2
    25    16     4    1
    26    25    19    1
    27    14     9    1
@<TRIPOS>SUBSTRUCTURE
     1 RES1        1 GROUP             0 ****  ****    0  
@<TRIPOS>MOLECULE
ligand_52
    25    27     1     0     0
SMALL
USER_CHARGES
****
Generated from the CSD

@<TRIPOS>ATOM
     1 C1      83.9462  10.6157 -33.5993   C.3       1 RES1   0.0000
     2 C2      84.9962   9.4911 -33.7319   C.3       1 RES1   0.0000
     3 C3      84.3177   8.2289 -34.2031   C.3       1 RES1   0.0000
     4 N4      83.7832   7.3833 -33.1414   N.3       1 RES1   1.0000
     5 C5      84.8706   6.7212 -32.3691   C.3       1 RES1   0.0000
     6 C6      84.2859   5.9493 -31.2023   C.3       1 RES1   0.0000
     7 C7      83.3522   4.8956 -31.7540   C.3       1 RES1   0.0000
     8 C8      82.7440   4.0560 -30.5850   C.3       1 RES1   0.0000
     9 C9      81.8930   2.9090 -31.1000   C.2       1 RES1   0.0000
    10 C10     80.5040   3.1050 -31.3310   C.2       1 RES1   0.0000
    11 C11     79.7150   2.0390 -31.8150   C.2       1 RES1   0.0000
    12 C12     80.3040   0.8100 -32.0490   C.2       1 RES1   0.0000
    13 C13     81.6890   0.6110 -31.8060   C.2       1 RES1   0.0000
    14 C14     82.4780   1.6770 -31.3330   C.2       1 RES1   0.0000
    15 C15     82.2620   5.5150 -32.5695   C.3       1 RES1   0.0000
    16 C16     82.8373   6.3718 -33.6725   C.3       1 RES1   0.0000
    17 C17     86.1086   9.8425 -34.6625   C.3       1 RES1   0.0000
    18 O18     87.1517   8.9211 -34.5337   O.3       1 RES1   0.0000
    19 C19     85.7602   9.8438 -36.1440   C.2       1 RES1   0.0000
    20 C20     85.7023   8.6640 -36.8984   C.2       1 RES1   0.0000
    21 C21     85.3669   8.7208 -38.2350   C.2       1 RES1   0.0000
    22 C22     85.0667   9.9285 -38.8649   C.2       1 RES1   0.0000
    23 O23     84.7117   9.9754 -40.2532   O.3       1 RES1   0.0000
    24 C24     85.1199  11.0893 -38.1229   C.2       1 RES1   0.0000
    25 C25     85.4635  11.0365 -36.7614   C.2       1 RES1   0.0000
@<TRIPOS>BOND
     1     2     1    1
     2     2     3    1
     3     3     4    1
     4     4     5    1
     5     5     6    1
     6     6     7    1
     7     7     8    1
     8     8     9    1
     9     9    10    2
    10    10    11    1
    11    11    12    2
    12    12    13    1
    13    13    14    2
    14     7    15    1
    15    15    16    1
    16     2    17    1
    17    17    18    1
    18    17    19    1
    19    19    20    2
    20    20    21    1
    21    21    22    2
    22    22    23    1
    23    22    24    1
    24    24    25    2
    25    16     4    1
    26    25    19    1
    27    14     9    1
@<TRIPOS>SUBSTRUCTURE
     1 RES1        1 GROUP             0 ****  ****    0  
@<TRIPOS>MOLECULE
ligand_53
    25    27     1     0     0
SMALL
USER_CHARGES
****
Generated from the CSD

@<TRIPOS>ATOM
     1 C1      82.7409   8.1940 -25.2306   C.3       1 RES1   0.0000
     2 C2      81.4643   8.6411 -25.9756   C.3       1 RES1   0.0000
     3 C3      80.6888   7.4227 -26.4111   C.3       1 RES1   0.0000
     4 N4      81.4190   6.5048 -27.2784   N.3       1 RES1   1.0000
     5 C5      81.9076   7.1864 -28.5089   C.3       1 RES1   0.0000
     6 C6      82.7623   6.2373 -29.3261   C.3       1 RES1   0.0000
     7 C7      81.9092   5.0516 -29.7171   C.3       1 RES1   0.0000
     8 C8      82.7440   4.0560 -30.5850   C.3       1 RES1   0.0000
     9 C9      81.8993   2.8945 -31.0773   C.2       1 RES1   0.0000
    10 C10     80.5145   3.0849 -31.3365   C.2       1 RES1   0.0000
    11 C11     79.7314   2.0053 -31.7994   C.2       1 RES1   0.0000
    12 C12     80.3219   0.7688 -31.9853   C.2       1 RES1   0.0000
    13 C13     81.7025   0.5757 -31.7141   C.2       1 RES1   0.0000
    14 C14     82.4857   1.6550 -31.2622   C.2       1 RES1   0.0000
    15 C15     81.3658   4.3568 -28.5091   C.3       1 RES1   0.0000
    16 C16     80.5996   5.3210 -27.6345   C.3       1 RES1   0.0000
    17 C17     80.5906   9.5258 -25.1505   C.3       1 RES1   0.0000
    18 O18     81.3134  10.6376 -24.7088   O.3       1 RES1   0.0000
    19 C19     79.3704  10.0999 -25.8561   C.2       1 RES1   0.0000
    20 C20     78.1850   9.3686 -26.0115   C.2       1 RES1   0.0000
    21 C21     77.1036   9.9428 -26.6465   C.2       1 RES1   0.0000
    22 C22     77.1480  11.2491 -27.1333   C.2       1 RES1   0.0000
    23 O23     76.0153  11.8389 -27.7851   O.3       1 RES1   0.0000
    24 C24     78.3124  11.9706 -26.9779   C.2       1 RES1   0.0000
    25 C25     79.4175  11.3889 -26.3338   C.2       1 RES1   0.0000
@<TRIPOS>BOND
     1     2     1    1
     2     2     3    1
     3     3     4    1
     4     4     5    1
     5     5     6    1
     6     6     7    1
     7     7     8    1
     8     8     9    1
     9     9    10    2
    10    10    11    1
    11    11    12    2
    12    12    13    1
    13    13    14    2
    14     7    15    1
    15    15    16    1
    16     2    17    1
    17    17    18    1
    18    17    19    1
    19    19    20    2
    20    20    21    1
    21    21    22    2
    22    22    23    1
    23    22    24    1
    24    24    25    2
    25    16     4    1
    26    25    19    1
    27    14     9    1
@<TRIPOS>SUBSTRUCTURE
     1 RES1        1 GROUP             0 ****  ****    0  
@<TRIPOS>MOLECULE
ligand_54
    25    27     1     0     0
SMALL
USER_CHARGES
****
Generated from the CSD

@<TRIPOS>ATOM
     1 C1      83.4111   9.2400 -34.8835   C.3       1 RES1   0.0000
     2 C2      81.9897   9.4725 -34.3265   C.3       1 RES1   0.0000
     3 C3      82.0052   9.2903 -32.8291   C.3       1 RES1   0.0000
     4 N4      82.4598   7.9817 -32.3721   N.3       1 RES1   1.0000
     5 C5      81.6346   6.8839 -32.9474   C.3       1 RES1   0.0000
     6 C6      82.2076   5.5376 -32.5498   C.3       1 RES1   0.0000
     7 C7      82.1844   5.4418 -31.0409   C.3       1 RES1   0.0000
     8 C8      82.7440   4.0560 -30.5850   C.3       1 RES1   0.0000
     9 C9      81.9107   2.9077 -31.1255   C.2       1 RES1   0.0000
    10 C10     80.5168   3.0842 -31.3424   C.2       1 RES1   0.0000
    11 C11     79.7442   2.0172 -31.8502   C.2       1 RES1   0.0000
    12 C12     80.3541   0.8061 -32.1211   C.2       1 RES1   0.0000
    13 C13     81.7441   0.6262 -31.8922   C.2       1 RES1   0.0000
    14 C14     82.5166   1.6935 -31.3955   C.2       1 RES1   0.0000
    15 C15     82.9730   6.5498 -30.4182   C.3       1 RES1   0.0000
    16 C16     82.4750   7.8950 -30.8915   C.3       1 RES1   0.0000
    17 C17     81.4474  10.8210 -34.6642   C.3       1 RES1   0.0000
    18 O18     81.4685  11.0143 -36.0483   O.3       1 RES1   0.0000
    19 C19     80.0065  11.0810 -34.2487   C.2       1 RES1   0.0000
    20 C20     79.6628  11.4622 -32.9445   C.2       1 RES1   0.0000
    21 C21     78.3422  11.6997 -32.6254   C.2       1 RES1   0.0000
    22 C22     77.3264  11.5845 -33.5743   C.2       1 RES1   0.0000
    23 O23     75.9576  11.8412 -33.2337   O.3       1 RES1   0.0000
    24 C24     77.6639  11.2130 -34.8584   C.2       1 RES1   0.0000
    25 C25     79.0077  10.9675 -35.1875   C.2       1 RES1   0.0000
@<TRIPOS>BOND
     1     2     1    1
     2     2     3    1
     3     3     4    1
     4     4     5    1
     5     5     6    1
     6     6     7    1
     7     7     8    1
     8     8     9    1
     9     9    10    2
    10    10    11    1
    11    11    12    2
    12    12    13    1
    13    13    14    2
    14     7    15    1
    15    15    16    1
    16     2    17    1
    17    17    18    1
    18    17    19    1
    19    19    20    2
    20    20    21    1
    21    21    22    2
    22    22    23    1
    23    22    24    1
    24    24    25    2
    25    16     4    1
    26    25    19    1
    27    14     9    1
@<TRIPOS>SUBSTRUCTURE
     1 RES1        1 GROUP             0 ****  ****    0  
@<TRIPOS>MOLECULE
ligand_55
    25    27     1     0     0
SMALL
USER_CHARGES
****
Generated from the CSD

@<TRIPOS>ATOM
     1 C1      88.3947   7.1393 -33.0430   C.3       1 RES1   0.0000
     2 C2      87.5117   6.8971 -34.2866   C.3       1 RES1   0.0000
     3 C3      86.0868   7.2755 -33.9675   C.3       1 RES1   0.0000
     4 N4      85.4575   6.4794 -32.9195   N.3       1 RES1   1.0000
     5 C5      85.1786   5.0910 -33.3797   C.3       1 RES1   0.0000
     6 C6      84.6382   4.2600 -32.2323   C.3       1 RES1   0.0000
     7 C7      83.3522   4.8956 -31.7540   C.3       1 RES1   0.0000
     8 C8      82.7440   4.0560 -30.5850   C.3       1 RES1   0.0000
     9 C9      81.8930   2.9090 -31.1000   C.2       1 RES1   0.0000
    10 C10     80.5040   3.1050 -31.3310   C.2       1 RES1   0.0000
    11 C11     79.7150   2.0390 -31.8150   C.2       1 RES1   0.0000
    12 C12     80.3040   0.8100 -32.0490   C.2       1 RES1   0.0000
    13 C13     81.6890   0.6110 -31.8060   C.2       1 RES1   0.0000
    14 C14     82.4780   1.6770 -31.3330   C.2       1 RES1   0.0000
    15 C15     83.5793   6.3073 -31.3151   C.3       1 RES1   0.0000
    16 C16     84.2152   7.1174 -32.4201   C.3       1 RES1   0.0000
    17 C17     87.9774   7.6539 -35.4853   C.3       1 RES1   0.0000
    18 O18     87.3727   7.1463 -36.6387   O.3       1 RES1   0.0000
    19 C19     87.6631   9.1431 -35.4945   C.2       1 RES1   0.0000
    20 C20     88.6361  10.1132 -35.2179   C.2       1 RES1   0.0000
    21 C21     88.3004  11.4504 -35.2544   C.2       1 RES1   0.0000
    22 C22     87.0108  11.8742 -35.5749   C.2       1 RES1   0.0000
    23 O23     86.6746  13.2673 -35.6175   O.3       1 RES1   0.0000
    24 C24     86.0538  10.9209 -35.8506   C.2       1 RES1   0.0000
    25 C25     86.3905   9.5572 -35.8122   C.2       1 RES1   0.0000
@<TRIPOS>BOND
     1     2     1    1
     2     2     3    1
     3     3     4    1
     4     4     5    1
     5     5     6    1
     6     6     7    1
     7     7     8    1
     8     8     9    1
     9     9    10    2
    10    10    11    1
    11    11    12    2
    12    12    13    1
    13    13    14    2
    14     7    15    1
    15    15    16    1
    16     2    17    1
    17    17    18    1
    18    17    19    1
    19    19    20    2
    20    20    21    1
    21    21    22    2
    22    22    23    1
    23    22    24    1
    24    24    25    2
    25    16     4    1
    26    25    19    1
    27    14     9    1
@<TRIPOS>SUBSTRUCTURE
     1 RES1        1 GROUP             0 ****  ****    0  
@<TRIPOS>MOLECULE
ligand_56
    25    27     1     0     0
SMALL
USER_CHARGES
****
Generated from the CSD

@<TRIPOS>ATOM
     1 C1      87.5036   8.7927 -34.9960   C.3       1 RES1   0.0000
     2 C2      87.0438   7.9705 -33.7723   C.3       1 RES1   0.0000
     3 C3      86.2241   6.7943 -34.2416   C.3       1 RES1   0.0000
     4 N4      85.5871   6.0239 -33.1792   N.3       1 RES1   1.0000
     5 C5      84.8121   4.8756 -33.7251   C.3       1 RES1   0.0000
     6 C6      84.2657   4.0294 -32.5917   C.3       1 RES1   0.0000
     7 C7      83.3522   4.8956 -31.7540   C.3       1 RES1   0.0000
     8 C8      82.7440   4.0560 -30.5850   C.3       1 RES1   0.0000
     9 C9      81.8907   2.9107 -31.1000   C.2       1 RES1   0.0000
    10 C10     80.5038   3.1118 -31.3390   C.2       1 RES1   0.0000
    11 C11     79.7127   2.0473 -31.8230   C.2       1 RES1   0.0000
    12 C12     80.2976   0.8148 -32.0491   C.2       1 RES1   0.0000
    13 C13     81.6805   0.6108 -31.7980   C.2       1 RES1   0.0000
    14 C14     82.4716   1.6752 -31.3251   C.2       1 RES1   0.0000
    15 C15     84.0821   6.0841 -31.2138   C.3       1 RES1   0.0000
    16 C16     84.7190   6.8764 -32.3311   C.3       1 RES1   0.0000
    17 C17     88.1819   7.4895 -32.9356   C.3       1 RES1   0.0000
    18 O18     89.0991   6.7927 -33.7272   O.3       1 RES1   0.0000
    19 C19     88.9977   8.5694 -32.2393   C.2       1 RES1   0.0000
    20 C20     89.4677   9.7030 -32.9162   C.2       1 RES1   0.0000
    21 C21     90.1903  10.6587 -32.2331   C.2       1 RES1   0.0000
    22 C22     90.4602  10.5384 -30.8700   C.2       1 RES1   0.0000
    23 O23     91.2057  11.5418 -30.1678   O.3       1 RES1   0.0000
    24 C24     89.9952   9.4254 -30.2023   C.2       1 RES1   0.0000
    25 C25     89.2607   8.4478 -30.8947   C.2       1 RES1   0.0000
@<TRIPOS>BOND
     1     2     1    1
     2     2     3    1
     3     3     4    1
     4     4     5    1
     5     5     6    1
     6     6     7    1
     7     7     8    1
     8     8     9    1
     9     9    10    2
    10    10    11    1
    11    11    12    2
    12    12    13    1
    13    13    14    2
    14     7    15    1
    15    15    16    1
    16     2    17    1
    17    17    18    1
    18    17    19    1
    19    19    20    2
    20    20    21    1
    21    21    22    2
    22    22    23    1
    23    22    24    1
    24    24    25    2
    25    16     4    1
    26    25    19    1
    27    14     9    1
@<TRIPOS>SUBSTRUCTURE
     1 RES1        1 GROUP             0 ****  ****    0  
@<TRIPOS>MOLECULE
ligand_57
    25    27     1     0     0
SMALL
USER_CHARGES
****
Generated from the CSD

@<TRIPOS>ATOM
     1 C1      84.5264  10.2438 -32.7553   C.3       1 RES1   0.0000
     2 C2      85.2622   9.3108 -33.7416   C.3       1 RES1   0.0000
     3 C3      84.3177   8.2289 -34.2031   C.3       1 RES1   0.0000
     4 N4      83.7832   7.3833 -33.1414   N.3       1 RES1   1.0000
     5 C5      84.8706   6.7212 -32.3691   C.3       1 RES1   0.0000
     6 C6      84.2859   5.9493 -31.2023   C.3       1 RES1   0.0000
     7 C7      83.3522   4.8956 -31.7540   C.3       1 RES1   0.0000
     8 C8      82.7440   4.0560 -30.5850   C.3       1 RES1   0.0000
     9 C9      81.8930   2.9090 -31.1000   C.2       1 RES1   0.0000
    10 C10     80.5040   3.1050 -31.3310   C.2       1 RES1   0.0000
    11 C11     79.7150   2.0390 -31.8150   C.2       1 RES1   0.0000
    12 C12     80.3040   0.8100 -32.0490   C.2       1 RES1   0.0000
    13 C13     81.6890   0.6110 -31.8060   C.2       1 RES1   0.0000
    14 C14     82.4780   1.6770 -31.3330   C.2       1 RES1   0.0000
    15 C15     82.2620   5.5150 -32.5695   C.3       1 RES1   0.0000
    16 C16     82.8373   6.3718 -33.6725   C.3       1 RES1   0.0000
    17 C17     85.8144  10.0352 -34.9236   C.3       1 RES1   0.0000
    18 O18     86.6745  11.0538 -34.5038   O.3       1 RES1   0.0000
    19 C19     86.6349   9.1967 -35.8931   C.2       1 RES1   0.0000
    20 C20     87.5751   8.2544 -35.4546   C.2       1 RES1   0.0000
    21 C21     88.2812   7.5104 -36.3765   C.2       1 RES1   0.0000
    22 C22     88.0776   7.6579 -37.7484   C.2       1 RES1   0.0000
    23 O23     88.8117   6.8738 -38.6981   O.3       1 RES1   0.0000
    24 C24     87.1504   8.5821 -38.1809   C.2       1 RES1   0.0000
    25 C25     86.4304   9.3442 -37.2453   C.2       1 RES1   0.0000
@<TRIPOS>BOND
     1     2     1    1
     2     2     3    1
     3     3     4    1
     4     4     5    1
     5     5     6    1
     6     6     7    1
     7     7     8    1
     8     8     9    1
     9     9    10    2
    10    10    11    1
    11    11    12    2
    12    12    13    1
    13    13    14    2
    14     7    15    1
    15    15    16    1
    16     2    17    1
    17    17    18    1
    18    17    19    1
    19    19    20    2
    20    20    21    1
    21    21    22    2
    22    22    23    1
    23    22    24    1
    24    24    25    2
    25    16     4    1
    26    25    19    1
    27    14     9    1
@<TRIPOS>SUBSTRUCTURE
     1 RES1        1 GROUP             0 ****  ****    0  
@<TRIPOS>MOLECULE
ligand_58
    25    27     1     0     0
SMALL
USER_CHARGES
****
Generated from the CSD

@<TRIPOS>ATOM
     1 C1      88.2901   5.4049 -34.2726   C.3       1 RES1   0.0000
     2 C2      87.1552   6.0070 -35.1295   C.3       1 RES1   0.0000
     3 C3      86.2241   6.7943 -34.2416   C.3       1 RES1   0.0000
     4 N4      85.5871   6.0239 -33.1792   N.3       1 RES1   1.0000
     5 C5      84.8121   4.8756 -33.7251   C.3       1 RES1   0.0000
     6 C6      84.2657   4.0294 -32.5917   C.3       1 RES1   0.0000
     7 C7      83.3522   4.8956 -31.7540   C.3       1 RES1   0.0000
     8 C8      82.7440   4.0560 -30.5850   C.3       1 RES1   0.0000
     9 C9      81.8911   2.9104 -31.1000   C.2       1 RES1   0.0000
    10 C10     80.5039   3.1108 -31.3379   C.2       1 RES1   0.0000
    11 C11     79.7131   2.0461 -31.8219   C.2       1 RES1   0.0000
    12 C12     80.2985   0.8142 -32.0491   C.2       1 RES1   0.0000
    13 C13     81.6817   0.6108 -31.7991   C.2       1 RES1   0.0000
    14 C14     82.4725   1.6755 -31.3262   C.2       1 RES1   0.0000
    15 C15     84.0821   6.0841 -31.2138   C.3       1 RES1   0.0000
    16 C16     84.7190   6.8764 -32.3311   C.3       1 RES1   0.0000
    17 C17     87.6595   6.8795 -36.2301   C.3       1 RES1   0.0000
    18 O18     88.5400   6.1632 -37.0457   O.3       1 RES1   0.0000
    19 C19     86.6035   7.4335 -37.1758   C.2       1 RES1   0.0000
    20 C20     85.5505   6.6469 -37.6623   C.2       1 RES1   0.0000
    21 C21     84.6119   7.2037 -38.5056   C.2       1 RES1   0.0000
    22 C22     84.6701   8.5449 -38.8840   C.2       1 RES1   0.0000
    23 O23     83.6848   9.1156 -39.7552   O.3       1 RES1   0.0000
    24 C24     85.7036   9.3205 -38.4032   C.2       1 RES1   0.0000
    25 C25     86.6636   8.7569 -37.5457   C.2       1 RES1   0.0000
@<TRIPOS>BOND
     1     2     1    1
     2     2     3    1
     3     3     4    1
     4     4     5    1
     5     5     6    1
     6     6     7    1
     7     7     8    1
     8     8     9    1
     9     9    10    2
    10    10    11    1
    11    11    12    2
    12    12    13    1
    13    13    14    2
    14     7    15    1
    15    15    16    1
    16     2    17    1
    17    17    18    1
    18    17    19    1
    19    19    20    2
    20    20    21    1
    21    21    22    2
    22    22    23    1
    23    22    24    1
    24    24    25    2
    25    16     4    1
    26    25    19    1
    27    14     9    1
@<TRIPOS>SUBSTRUCTURE
     1 RES1        1 GROUP             0 ****  ****    0  
@<TRIPOS>MOLECULE
ligand_59
    25    27     1     0     0
SMALL
USER_CHARGES
****
Generated from the CSD

@<TRIPOS>ATOM
     1 C1      79.1510   7.7918 -24.4879   C.3       1 RES1   0.0000
     2 C2      80.1382   6.8057 -25.1496   C.3       1 RES1   0.0000
     3 C3      80.6888   7.4227 -26.4111   C.3       1 RES1   0.0000
     4 N4      81.4190   6.5048 -27.2784   N.3       1 RES1   1.0000
     5 C5      81.9076   7.1864 -28.5089   C.3       1 RES1   0.0000
     6 C6      82.7623   6.2373 -29.3261   C.3       1 RES1   0.0000
     7 C7      81.9092   5.0516 -29.7171   C.3       1 RES1   0.0000
     8 C8      82.7440   4.0560 -30.5850   C.3       1 RES1   0.0000
     9 C9      81.8991   2.8948 -31.0779   C.2       1 RES1   0.0000
    10 C10     80.5144   3.0857 -31.3374   C.2       1 RES1   0.0000
    11 C11     79.7312   2.0064 -31.8008   C.2       1 RES1   0.0000
    12 C12     80.3214   0.7698 -31.9869   C.2       1 RES1   0.0000
    13 C13     81.7019   0.5763 -31.7154   C.2       1 RES1   0.0000
    14 C14     82.4853   1.6553 -31.2630   C.2       1 RES1   0.0000
    15 C15     81.3658   4.3568 -28.5091   C.3       1 RES1   0.0000
    16 C16     80.5996   5.3210 -27.6345   C.3       1 RES1   0.0000
    17 C17     81.2614   6.4162 -24.2476   C.3       1 RES1   0.0000
    18 O18     81.7189   5.1367 -24.5752   O.3       1 RES1   0.0000
    19 C19     82.4956   7.3052 -24.3012   C.2       1 RES1   0.0000
    20 C20     83.6732   6.9096 -24.9500   C.2       1 RES1   0.0000
    21 C21     84.7579   7.7609 -24.9812   C.2       1 RES1   0.0000
    22 C22     84.7155   9.0243 -24.3918   C.2       1 RES1   0.0000
    23 O23     85.8463   9.9045 -24.4367   O.3       1 RES1   0.0000
    24 C24     83.5564   9.4160 -23.7563   C.2       1 RES1   0.0000
    25 C25     82.4496   8.5510 -23.7199   C.2       1 RES1   0.0000
@<TRIPOS>BOND
     1     2     1    1
     2     2     3    1
     3     3     4    1
     4     4     5    1
     5     5     6    1
     6     6     7    1
     7     7     8    1
     8     8     9    1
     9     9    10    2
    10    10    11    1
    11    11    12    2
    12    12    13    1
    13    13    14    2
    14     7    15    1
    15    15    16    1
    16     2    17    1
    17    17    18    1
    18    17    19    1
    19    19    20    2
    20    20    21    1
    21    21    22    2
    22    22    23    1
    23    22    24    1
    24    24    25    2
    25    16     4    1
    26    25    19    1
    27    14     9    1
@<TRIPOS>SUBSTRUCTURE
     1 RES1        1 GROUP             0 ****  ****    0  
@<TRIPOS>MOLECULE
ligand_60
    25    27     1     0     0
SMALL
USER_CHARGES
****
Generated from the CSD

@<TRIPOS>ATOM
     1 C1      82.0150  11.7688 -32.5905   C.3       1 RES1   0.0000
     2 C2      82.7752  10.4624 -32.2736   C.3       1 RES1   0.0000
     3 C3      82.0052   9.2903 -32.8291   C.3       1 RES1   0.0000
     4 N4      82.4598   7.9817 -32.3721   N.3       1 RES1   1.0000
     5 C5      81.6346   6.8839 -32.9474   C.3       1 RES1   0.0000
     6 C6      82.2076   5.5376 -32.5498   C.3       1 RES1   0.0000
     7 C7      82.1844   5.4418 -31.0409   C.3       1 RES1   0.0000
     8 C8      82.7440   4.0560 -30.5850   C.3       1 RES1   0.0000
     9 C9      81.9113   2.9077 -31.1263   C.2       1 RES1   0.0000
    10 C10     80.5174   3.0838 -31.3437   C.2       1 RES1   0.0000
    11 C11     79.7453   2.0168 -31.8522   C.2       1 RES1   0.0000
    12 C12     80.3556   0.8060 -32.1233   C.2       1 RES1   0.0000
    13 C13     81.7456   0.6264 -31.8939   C.2       1 RES1   0.0000
    14 C14     82.5176   1.6938 -31.3964   C.2       1 RES1   0.0000
    15 C15     82.9730   6.5498 -30.4182   C.3       1 RES1   0.0000
    16 C16     82.4750   7.8950 -30.8915   C.3       1 RES1   0.0000
    17 C17     84.1656  10.4540 -32.8154   C.3       1 RES1   0.0000
    18 O18     84.9852   9.6459 -32.0224   O.3       1 RES1   0.0000
    19 C19     84.3245   9.9146 -34.2296   C.2       1 RES1   0.0000
    20 C20     84.8570   8.6443 -34.4887   C.2       1 RES1   0.0000
    21 C21     84.9650   8.1986 -35.7895   C.2       1 RES1   0.0000
    22 C22     84.5436   8.9759 -36.8682   C.2       1 RES1   0.0000
    23 O23     84.6534   8.4997 -38.2161   O.3       1 RES1   0.0000
    24 C24     84.0163  10.2242 -36.6143   C.2       1 RES1   0.0000
    25 C25     83.9066  10.6835 -35.2908   C.2       1 RES1   0.0000
@<TRIPOS>BOND
     1     2     1    1
     2     2     3    1
     3     3     4    1
     4     4     5    1
     5     5     6    1
     6     6     7    1
     7     7     8    1
     8     8     9    1
     9     9    10    2
    10    10    11    1
    11    11    12    2
    12    12    13    1
    13    13    14    2
    14     7    15    1
    15    15    16    1
    16     2    17    1
    17    17    18    1
    18    17    19    1
    19    19    20    2
    20    20    21    1
    21    21    22    2
    22    22    23    1
    23    22    24    1
    24    24    25    2
    25    16     4    1
    26    25    19    1
    27    14     9    1
@<TRIPOS>SUBSTRUCTURE
     1 RES1        1 GROUP             0 ****  ****    0  
@<TRIPOS>MOLECULE
ligand_61
    25    27     1     0     0
SMALL
USER_CHARGES
****
Generated from the CSD

@<TRIPOS>ATOM
     1 C1      83.9707   9.6508 -36.2174   C.3       1 RES1   0.0000
     2 C2      83.2801   8.9495 -35.0274   C.3       1 RES1   0.0000
     3 C3      84.3177   8.2289 -34.2031   C.3       1 RES1   0.0000
     4 N4      83.7832   7.3833 -33.1414   N.3       1 RES1   1.0000
     5 C5      84.8706   6.7212 -32.3691   C.3       1 RES1   0.0000
     6 C6      84.2859   5.9493 -31.2023   C.3       1 RES1   0.0000
     7 C7      83.3522   4.8956 -31.7540   C.3       1 RES1   0.0000
     8 C8      82.7440   4.0560 -30.5850   C.3       1 RES1   0.0000
     9 C9      81.8930   2.9090 -31.1000   C.2       1 RES1   0.0000
    10 C10     80.5040   3.1050 -31.3310   C.2       1 RES1   0.0000
    11 C11     79.7150   2.0390 -31.8150   C.2       1 RES1   0.0000
    12 C12     80.3040   0.8100 -32.0490   C.2       1 RES1   0.0000
    13 C13     81.6890   0.6110 -31.8060   C.2       1 RES1   0.0000
    14 C14     82.4780   1.6770 -31.3330   C.2       1 RES1   0.0000
    15 C15     82.2620   5.5150 -32.5695   C.3       1 RES1   0.0000
    16 C16     82.8373   6.3718 -33.6725   C.3       1 RES1   0.0000
    17 C17     82.5159   9.8941 -34.1612   C.3       1 RES1   0.0000
    18 O18     83.3380  10.9514 -33.7614   O.3       1 RES1   0.0000
    19 C19     81.3047  10.5540 -34.8046   C.2       1 RES1   0.0000
    20 C20     81.0232  10.4265 -36.1717   C.2       1 RES1   0.0000
    21 C21     79.9034  11.0335 -36.7005   C.2       1 RES1   0.0000
    22 C22     79.0236  11.7684 -35.9060   C.2       1 RES1   0.0000
    23 O23     77.8581  12.3889 -36.4647   O.3       1 RES1   0.0000
    24 C24     79.2975  11.8916 -34.5605   C.2       1 RES1   0.0000
    25 C25     80.4387  11.2769 -34.0177   C.2       1 RES1   0.0000
@<TRIPOS>BOND
     1     2     1    1
     2     2     3    1
     3     3     4    1
     4     4     5    1
     5     5     6    1
     6     6     7    1
     7     7     8    1
     8     8     9    1
     9     9    10    2
    10    10    11    1
    11    11    12    2
    12    12    13    1
    13    13    14    2
    14     7    15    1
    15    15    16    1
    16     2    17    1
    17    17    18    1
    18    17    19    1
    19    19    20    2
    20    20    21    1
    21    21    22    2
    22    22    23    1
    23    22    24    1
    24    24    25    2
    25    16     4    1
    26    25    19    1
    27    14     9    1
@<TRIPOS>SUBSTRUCTURE
     1 RES1        1 GROUP             0 ****  ****    0  
@<TRIPOS>MOLECULE
ligand_62
    25    27     1     0     0
SMALL
USER_CHARGES
****
Generated from the CSD

@<TRIPOS>ATOM
     1 C1      84.4909  10.2864 -32.8115   C.3       1 RES1   0.0000
     2 C2      85.2542   9.3172 -33.7405   C.3       1 RES1   0.0000
     3 C3      84.3177   8.2289 -34.2031   C.3       1 RES1   0.0000
     4 N4      83.7832   7.3833 -33.1414   N.3       1 RES1   1.0000
     5 C5      84.8706   6.7212 -32.3691   C.3       1 RES1   0.0000
     6 C6      84.2859   5.9493 -31.2023   C.3       1 RES1   0.0000
     7 C7      83.3522   4.8956 -31.7540   C.3       1 RES1   0.0000
     8 C8      82.7440   4.0560 -30.5850   C.3       1 RES1   0.0000
     9 C9      81.8930   2.9090 -31.1000   C.2       1 RES1   0.0000
    10 C10     80.5040   3.1050 -31.3310   C.2       1 RES1   0.0000
    11 C11     79.7150   2.0390 -31.8150   C.2       1 RES1   0.0000
    12 C12     80.3040   0.8100 -32.0490   C.2       1 RES1   0.0000
    13 C13     81.6890   0.6110 -31.8060   C.2       1 RES1   0.0000
    14 C14     82.4780   1.6770 -31.3330   C.2       1 RES1   0.0000
    15 C15     82.2620   5.5150 -32.5695   C.3       1 RES1   0.0000
    16 C16     82.8373   6.3718 -33.6725   C.3       1 RES1   0.0000
    17 C17     85.8561  10.0000 -34.9230   C.3       1 RES1   0.0000
    18 O18     85.1481   9.6678 -36.0814   O.3       1 RES1   0.0000
    19 C19     85.8590  11.5214 -34.8816   C.2       1 RES1   0.0000
    20 C20     84.9452  12.2900 -35.6155   C.2       1 RES1   0.0000
    21 C21     84.9825  13.6660 -35.5300   C.2       1 RES1   0.0000
    22 C22     85.9034  14.3253 -34.7159   C.2       1 RES1   0.0000
    23 O23     85.9285  15.7561 -34.6285   O.3       1 RES1   0.0000
    24 C24     86.8005  13.5701 -33.9908   C.2       1 RES1   0.0000
    25 C25     86.7679  12.1680 -34.0767   C.2       1 RES1   0.0000
@<TRIPOS>BOND
     1     2     1    1
     2     2     3    1
     3     3     4    1
     4     4     5    1
     5     5     6    1
     6     6     7    1
     7     7     8    1
     8     8     9    1
     9     9    10    2
    10    10    11    1
    11    11    12    2
    12    12    13    1
    13    13    14    2
    14     7    15    1
    15    15    16    1
    16     2    17    1
    17    17    18    1
    18    17    19    1
    19    19    20    2
    20    20    21    1
    21    21    22    2
    22    22    23    1
    23    22    24    1
    24    24    25    2
    25    16     4    1
    26    25    19    1
    27    14     9    1
@<TRIPOS>SUBSTRUCTURE
     1 RES1        1 GROUP             0 ****  ****    0  
@<TRIPOS>MOLECULE
ligand_63
    25    27     1     0     0
SMALL
USER_CHARGES
****
Generated from the CSD

@<TRIPOS>ATOM
     1 C1      88.3331   5.4712 -34.2710   C.3       1 RES1   0.0000
     2 C2      87.1631   6.0092 -35.1232   C.3       1 RES1   0.0000
     3 C3      86.2241   6.7943 -34.2416   C.3       1 RES1   0.0000
     4 N4      85.5871   6.0239 -33.1792   N.3       1 RES1   1.0000
     5 C5      84.8121   4.8756 -33.7251   C.3       1 RES1   0.0000
     6 C6      84.2657   4.0294 -32.5917   C.3       1 RES1   0.0000
     7 C7      83.3522   4.8956 -31.7540   C.3       1 RES1   0.0000
     8 C8      82.7440   4.0560 -30.5850   C.3       1 RES1   0.0000
     9 C9      81.8907   2.9107 -31.1000   C.2       1 RES1   0.0000
    10 C10     80.5038   3.1120 -31.3393   C.2       1 RES1   0.0000
    11 C11     79.7127   2.0475 -31.8232   C.2       1 RES1   0.0000
    12 C12     80.2974   0.8150 -32.0491   C.2       1 RES1   0.0000
    13 C13     81.6802   0.6108 -31.7978   C.2       1 RES1   0.0000
    14 C14     82.4714   1.6752 -31.3249   C.2       1 RES1   0.0000
    15 C15     84.0821   6.0841 -31.2138   C.3       1 RES1   0.0000
    16 C16     84.7190   6.8764 -32.3311   C.3       1 RES1   0.0000
    17 C17     87.6176   6.8619 -36.2603   C.3       1 RES1   0.0000
    18 O18     87.3158   8.2027 -36.0058   O.3       1 RES1   0.0000
    19 C19     89.1111   6.8394 -36.5524   C.2       1 RES1   0.0000
    20 C20     89.9627   7.8845 -36.1691   C.2       1 RES1   0.0000
    21 C21     91.3115   7.8061 -36.4459   C.2       1 RES1   0.0000
    22 C22     91.8645   6.7001 -37.0911   C.2       1 RES1   0.0000
    23 O23     93.2695   6.6254 -37.3671   O.3       1 RES1   0.0000
    24 C24     91.0284   5.6698 -37.4654   C.2       1 RES1   0.0000
    25 C25     89.6530   5.7464 -37.1877   C.2       1 RES1   0.0000
@<TRIPOS>BOND
     1     2     1    1
     2     2     3    1
     3     3     4    1
     4     4     5    1
     5     5     6    1
     6     6     7    1
     7     7     8    1
     8     8     9    1
     9     9    10    2
    10    10    11    1
    11    11    12    2
    12    12    13    1
    13    13    14    2
    14     7    15    1
    15    15    16    1
    16     2    17    1
    17    17    18    1
    18    17    19    1
    19    19    20    2
    20    20    21    1
    21    21    22    2
    22    22    23    1
    23    22    24    1
    24    24    25    2
    25    16     4    1
    26    25    19    1
    27    14     9    1
@<TRIPOS>SUBSTRUCTURE
     1 RES1        1 GROUP             0 ****  ****    0  
@<TRIPOS>MOLECULE
ligand_64
    25    27     1     0     0
SMALL
USER_CHARGES
****
Generated from the CSD

@<TRIPOS>ATOM
     1 C1      87.9751   5.0256 -34.1694   C.3       1 RES1   0.0000
     2 C2      87.2246   6.0293 -35.0717   C.3       1 RES1   0.0000
     3 C3      86.2241   6.7943 -34.2416   C.3       1 RES1   0.0000
     4 N4      85.5871   6.0239 -33.1792   N.3       1 RES1   1.0000
     5 C5      84.8121   4.8756 -33.7251   C.3       1 RES1   0.0000
     6 C6      84.2657   4.0294 -32.5917   C.3       1 RES1   0.0000
     7 C7      83.3522   4.8956 -31.7540   C.3       1 RES1   0.0000
     8 C8      82.7440   4.0560 -30.5850   C.3       1 RES1   0.0000
     9 C9      81.8907   2.9107 -31.1000   C.2       1 RES1   0.0000
    10 C10     80.5038   3.1117 -31.3390   C.2       1 RES1   0.0000
    11 C11     79.7128   2.0473 -31.8230   C.2       1 RES1   0.0000
    12 C12     80.2976   0.8148 -32.0491   C.2       1 RES1   0.0000
    13 C13     81.6805   0.6108 -31.7981   C.2       1 RES1   0.0000
    14 C14     82.4716   1.6753 -31.3251   C.2       1 RES1   0.0000
    15 C15     84.0821   6.0841 -31.2138   C.3       1 RES1   0.0000
    16 C16     84.7190   6.8764 -32.3311   C.3       1 RES1   0.0000
    17 C17     88.1393   6.9837 -35.7640   C.3       1 RES1   0.0000
    18 O18     87.4299   7.7278 -36.7108   O.3       1 RES1   0.0000
    19 C19     88.8189   8.0158 -34.8756   C.2       1 RES1   0.0000
    20 C20     88.3847   9.3468 -34.8106   C.2       1 RES1   0.0000
    21 C21     89.0279  10.2377 -33.9771   C.2       1 RES1   0.0000
    22 C22     90.1017   9.8486 -33.1765   C.2       1 RES1   0.0000
    23 O23     90.7583  10.7811 -32.3077   O.3       1 RES1   0.0000
    24 C24     90.5274   8.5387 -33.2369   C.2       1 RES1   0.0000
    25 C25     89.8768   7.6280 -34.0866   C.2       1 RES1   0.0000
@<TRIPOS>BOND
     1     2     1    1
     2     2     3    1
     3     3     4    1
     4     4     5    1
     5     5     6    1
     6     6     7    1
     7     7     8    1
     8     8     9    1
     9     9    10    2
    10    10    11    1
    11    11    12    2
    12    12    13    1
    13    13    14    2
    14     7    15    1
    15    15    16    1
    16     2    17    1
    17    17    18    1
    18    17    19    1
    19    19    20    2
    20    20    21    1
    21    21    22    2
    22    22    23    1
    23    22    24    1
    24    24    25    2
    25    16     4    1
    26    25    19    1
    27    14     9    1
@<TRIPOS>SUBSTRUCTURE
     1 RES1        1 GROUP             0 ****  ****    0  
@<TRIPOS>MOLECULE
ligand_65
    25    27     1     0     0
SMALL
USER_CHARGES
****
Generated from the CSD

@<TRIPOS>ATOM
     1 C1      86.6046   5.5219 -36.2137   C.3       1 RES1   0.0000
     2 C2      85.1246   5.3801 -36.6311   C.3       1 RES1   0.0000
     3 C3      84.2630   6.1909 -35.6953   C.3       1 RES1   0.0000
     4 N4      83.7293   5.4542 -34.5549   N.3       1 RES1   1.0000
     5 C5      82.8781   6.3206 -33.6934   C.3       1 RES1   0.0000
     6 C6      82.2445   5.4966 -32.5896   C.3       1 RES1   0.0000
     7 C7      83.3522   4.8956 -31.7540   C.3       1 RES1   0.0000
     8 C8      82.7440   4.0560 -30.5850   C.3       1 RES1   0.0000
     9 C9      81.8902   2.9111 -31.1000   C.2       1 RES1   0.0000
    10 C10     80.5034   3.1128 -31.3391   C.2       1 RES1   0.0000
    11 C11     79.7119   2.0487 -31.8231   C.2       1 RES1   0.0000
    12 C12     80.2962   0.8159 -32.0491   C.2       1 RES1   0.0000
    13 C13     81.6789   0.6113 -31.7980   C.2       1 RES1   0.0000
    14 C14     82.4705   1.6753 -31.3250   C.2       1 RES1   0.0000
    15 C15     84.2556   4.0444 -32.5885   C.3       1 RES1   0.0000
    16 C16     84.8100   4.8309 -33.7529   C.3       1 RES1   0.0000
    17 C17     84.8757   5.8046 -38.0399   C.3       1 RES1   0.0000
    18 O18     85.1990   7.1551 -38.1989   O.3       1 RES1   0.0000
    19 C19     85.6808   5.0751 -39.1058   C.2       1 RES1   0.0000
    20 C20     86.8026   5.6504 -39.7182   C.2       1 RES1   0.0000
    21 C21     87.5051   4.9390 -40.6682   C.2       1 RES1   0.0000
    22 C22     87.1385   3.6439 -41.0340   C.2       1 RES1   0.0000
    23 O23     87.8805   2.9103 -42.0173   O.3       1 RES1   0.0000
    24 C24     86.0373   3.0757 -40.4296   C.2       1 RES1   0.0000
    25 C25     85.3169   3.7977 -39.4629   C.2       1 RES1   0.0000
@<TRIPOS>BOND
     1     2     1    1
     2     2     3    1
     3     3     4    1
     4     4     5    1
     5     5     6    1
     6     6     7    1
     7     7     8    1
     8     8     9    1
     9     9    10    2
    10    10    11    1
    11    11    12    2
    12    12    13    1
    13    13    14    2
    14     7    15    1
    15    15    16    1
    16     2    17    1
    17    17    18    1
    18    17    19    1
    19    19    20    2
    20    20    21    1
    21    21    22    2
    22    22    23    1
    23    22    24    1
    24    24    25    2
    25    16     4    1
    26    25    19    1
    27    14     9    1
@<TRIPOS>SUBSTRUCTURE
     1 RES1        1 GROUP             0 ****  ****    0  
@<TRIPOS>MOLECULE
ligand_66
    25    27     1     0     0
SMALL
USER_CHARGES
****
Generated from the CSD

@<TRIPOS>ATOM
     1 C1      84.6469   9.9039 -32.3905   C.3       1 RES1   0.0000
     2 C2      85.1886   9.3675 -33.7335   C.3       1 RES1   0.0000
     3 C3      84.3177   8.2289 -34.2031   C.3       1 RES1   0.0000
     4 N4      83.7832   7.3833 -33.1414   N.3       1 RES1   1.0000
     5 C5      84.8706   6.7212 -32.3691   C.3       1 RES1   0.0000
     6 C6      84.2859   5.9493 -31.2023   C.3       1 RES1   0.0000
     7 C7      83.3522   4.8956 -31.7540   C.3       1 RES1   0.0000
     8 C8      82.7440   4.0560 -30.5850   C.3       1 RES1   0.0000
     9 C9      81.8930   2.9090 -31.1000   C.2       1 RES1   0.0000
    10 C10     80.5040   3.1050 -31.3310   C.2       1 RES1   0.0000
    11 C11     79.7150   2.0390 -31.8150   C.2       1 RES1   0.0000
    12 C12     80.3040   0.8100 -32.0490   C.2       1 RES1   0.0000
    13 C13     81.6890   0.6110 -31.8060   C.2       1 RES1   0.0000
    14 C14     82.4780   1.6770 -31.3330   C.2       1 RES1   0.0000
    15 C15     82.2620   5.5150 -32.5695   C.3       1 RES1   0.0000
    16 C16     82.8373   6.3718 -33.6725   C.3       1 RES1   0.0000
    17 C17     85.2592  10.4173 -34.7916   C.3       1 RES1   0.0000
    18 O18     83.9885  10.9513 -35.0238   O.3       1 RES1   0.0000
    19 C19     86.1433  11.6163 -34.4803   C.2       1 RES1   0.0000
    20 C20     85.7557  12.6152 -33.5768   C.2       1 RES1   0.0000
    21 C21     86.6023  13.6733 -33.3200   C.2       1 RES1   0.0000
    22 C22     87.8534  13.7754 -33.9281   C.2       1 RES1   0.0000
    23 O23     88.7290  14.8757 -33.6481   O.3       1 RES1   0.0000
    24 C24     88.2372  12.7916 -34.8143   C.2       1 RES1   0.0000
    25 C25     87.3769  11.7130 -35.0809   C.2       1 RES1   0.0000
@<TRIPOS>BOND
     1     2     1    1
     2     2     3    1
     3     3     4    1
     4     4     5    1
     5     5     6    1
     6     6     7    1
     7     7     8    1
     8     8     9    1
     9     9    10    2
    10    10    11    1
    11    11    12    2
    12    12    13    1
    13    13    14    2
    14     7    15    1
    15    15    16    1
    16     2    17    1
    17    17    18    1
    18    17    19    1
    19    19    20    2
    20    20    21    1
    21    21    22    2
    22    22    23    1
    23    22    24    1
    24    24    25    2
    25    16     4    1
    26    25    19    1
    27    14     9    1
@<TRIPOS>SUBSTRUCTURE
     1 RES1        1 GROUP             0 ****  ****    0  
@<TRIPOS>MOLECULE
ligand_67
    25    27     1     0     0
SMALL
USER_CHARGES
****
Generated from the CSD

@<TRIPOS>ATOM
     1 C1      87.9681   5.0186 -34.1712   C.3       1 RES1   0.0000
     2 C2      87.2248   6.0294 -35.0716   C.3       1 RES1   0.0000
     3 C3      86.2241   6.7943 -34.2416   C.3       1 RES1   0.0000
     4 N4      85.5871   6.0239 -33.1792   N.3       1 RES1   1.0000
     5 C5      84.8121   4.8756 -33.7251   C.3       1 RES1   0.0000
     6 C6      84.2657   4.0294 -32.5917   C.3       1 RES1   0.0000
     7 C7      83.3522   4.8956 -31.7540   C.3       1 RES1   0.0000
     8 C8      82.7440   4.0560 -30.5850   C.3       1 RES1   0.0000
     9 C9      81.8907   2.9107 -31.1000   C.2       1 RES1   0.0000
    10 C10     80.5038   3.1118 -31.3391   C.2       1 RES1   0.0000
    11 C11     79.7127   2.0473 -31.8231   C.2       1 RES1   0.0000
    12 C12     80.2976   0.8149 -32.0491   C.2       1 RES1   0.0000
    13 C13     81.6804   0.6108 -31.7980   C.2       1 RES1   0.0000
    14 C14     82.4715   1.6752 -31.3250   C.2       1 RES1   0.0000
    15 C15     84.0821   6.0841 -31.2138   C.3       1 RES1   0.0000
    16 C16     84.7190   6.8764 -32.3311   C.3       1 RES1   0.0000
    17 C17     88.1456   6.9835 -35.7561   C.3       1 RES1   0.0000
    18 O18     88.8767   7.7077 -34.8103   O.3       1 RES1   0.0000
    19 C19     89.1889   6.3591 -36.6715   C.2       1 RES1   0.0000
    20 C20     90.3181   5.6952 -36.1731   C.2       1 RES1   0.0000
    21 C21     91.2251   5.1343 -37.0477   C.2       1 RES1   0.0000
    22 C22     91.0455   5.1955 -38.4295   C.2       1 RES1   0.0000
    23 O23     91.9908   4.6023 -39.3296   O.3       1 RES1   0.0000
    24 C24     89.9332   5.8452 -38.9208   C.2       1 RES1   0.0000
    25 C25     89.0077   6.4204 -38.0337   C.2       1 RES1   0.0000
@<TRIPOS>BOND
     1     2     1    1
     2     2     3    1
     3     3     4    1
     4     4     5    1
     5     5     6    1
     6     6     7    1
     7     7     8    1
     8     8     9    1
     9     9    10    2
    10    10    11    1
    11    11    12    2
    12    12    13    1
    13    13    14    2
    14     7    15    1
    15    15    16    1
    16     2    17    1
    17    17    18    1
    18    17    19    1
    19    19    20    2
    20    20    21    1
    21    21    22    2
    22    22    23    1
    23    22    24    1
    24    24    25    2
    25    16     4    1
    26    25    19    1
    27    14     9    1
@<TRIPOS>SUBSTRUCTURE
     1 RES1        1 GROUP             0 ****  ****    0  
@<TRIPOS>MOLECULE
ligand_68
    25    27     1     0     0
SMALL
USER_CHARGES
****
Generated from the CSD

@<TRIPOS>ATOM
     1 C1      83.0275   5.6975 -37.8001   C.3       1 RES1   0.0000
     2 C2      83.2259   6.7162 -36.6565   C.3       1 RES1   0.0000
     3 C3      84.2630   6.1909 -35.6953   C.3       1 RES1   0.0000
     4 N4      83.7293   5.4542 -34.5549   N.3       1 RES1   1.0000
     5 C5      82.8781   6.3206 -33.6934   C.3       1 RES1   0.0000
     6 C6      82.2445   5.4966 -32.5896   C.3       1 RES1   0.0000
     7 C7      83.3522   4.8956 -31.7540   C.3       1 RES1   0.0000
     8 C8      82.7440   4.0560 -30.5850   C.3       1 RES1   0.0000
     9 C9      81.8897   2.9115 -31.1000   C.2       1 RES1   0.0000
    10 C10     80.5033   3.1143 -31.3407   C.2       1 RES1   0.0000
    11 C11     79.7113   2.0506 -31.8247   C.2       1 RES1   0.0000
    12 C12     80.2946   0.8171 -32.0491   C.2       1 RES1   0.0000
    13 C13     81.6769   0.6113 -31.7963   C.2       1 RES1   0.0000
    14 C14     82.4690   1.6750 -31.3234   C.2       1 RES1   0.0000
    15 C15     84.2556   4.0444 -32.5885   C.3       1 RES1   0.0000
    16 C16     84.8100   4.8309 -33.7529   C.3       1 RES1   0.0000
    17 C17     83.6310   8.0665 -37.1460   C.3       1 RES1   0.0000
    18 O18     83.4694   9.0137 -36.1309   O.3       1 RES1   0.0000
    19 C19     85.0796   8.2048 -37.5916   C.2       1 RES1   0.0000
    20 C20     86.0534   8.8125 -36.7874   C.2       1 RES1   0.0000
    21 C21     87.3554   8.8983 -37.2341   C.2       1 RES1   0.0000
    22 C22     87.7419   8.3811 -38.4704   C.2       1 RES1   0.0000
    23 O23     89.0999   8.4689 -38.9218   O.3       1 RES1   0.0000
    24 C24     86.7856   7.7799 -39.2608   C.2       1 RES1   0.0000
    25 C25     85.4573   7.6924 -38.8109   C.2       1 RES1   0.0000
@<TRIPOS>BOND
     1     2     1    1
     2     2     3    1
     3     3     4    1
     4     4     5    1
     5     5     6    1
     6     6     7    1
     7     7     8    1
     8     8     9    1
     9     9    10    2
    10    10    11    1
    11    11    12    2
    12    12    13    1
    13    13    14    2
    14     7    15    1
    15    15    16    1
    16     2    17    1
    17    17    18    1
    18    17    19    1
    19    19    20    2
    20    20    21    1
    21    21    22    2
    22    22    23    1
    23    22    24    1
    24    24    25    2
    25    16     4    1
    26    25    19    1
    27    14     9    1
@<TRIPOS>SUBSTRUCTURE
     1 RES1        1 GROUP             0 ****  ****    0  
@<TRIPOS>MOLECULE
ligand_69
    25    27     1     0     0
SMALL
USER_CHARGES
****
Generated from the CSD

@<TRIPOS>ATOM
     1 C1      87.1751   9.0765 -34.5366   C.3       1 RES1   0.0000
     2 C2      87.3103   7.7353 -33.7831   C.3       1 RES1   0.0000
     3 C3      86.2241   6.7943 -34.2416   C.3       1 RES1   0.0000
     4 N4      85.5871   6.0239 -33.1792   N.3       1 RES1   1.0000
     5 C5      84.8121   4.8756 -33.7251   C.3       1 RES1   0.0000
     6 C6      84.2657   4.0294 -32.5917   C.3       1 RES1   0.0000
     7 C7      83.3522   4.8956 -31.7540   C.3       1 RES1   0.0000
     8 C8      82.7440   4.0560 -30.5850   C.3       1 RES1   0.0000
     9 C9      81.8907   2.9107 -31.1000   C.2       1 RES1   0.0000
    10 C10     80.5038   3.1118 -31.3391   C.2       1 RES1   0.0000
    11 C11     79.7127   2.0474 -31.8231   C.2       1 RES1   0.0000
    12 C12     80.2976   0.8149 -32.0491   C.2       1 RES1   0.0000
    13 C13     81.6804   0.6108 -31.7980   C.2       1 RES1   0.0000
    14 C14     82.4715   1.6752 -31.3250   C.2       1 RES1   0.0000
    15 C15     84.0821   6.0841 -31.2138   C.3       1 RES1   0.0000
    16 C16     84.7190   6.8764 -32.3311   C.3       1 RES1   0.0000
    17 C17     88.6447   7.0950 -33.9730   C.3       1 RES1   0.0000
    18 O18     89.6583   7.9674 -33.5665   O.3       1 RES1   0.0000
    19 C19     88.8847   5.8136 -33.1876   C.2       1 RES1   0.0000
    20 C20     88.3964   4.5721 -33.6171   C.2       1 RES1   0.0000
    21 C21     88.6557   3.4393 -32.8743   C.2       1 RES1   0.0000
    22 C22     89.4092   3.4882 -31.7016   C.2       1 RES1   0.0000
    23 O23     89.6794   2.3032 -30.9410   O.3       1 RES1   0.0000
    24 C24     89.8930   4.7084 -31.2800   C.2       1 RES1   0.0000
    25 C25     89.6292   5.8656 -32.0322   C.2       1 RES1   0.0000
@<TRIPOS>BOND
     1     2     1    1
     2     2     3    1
     3     3     4    1
     4     4     5    1
     5     5     6    1
     6     6     7    1
     7     7     8    1
     8     8     9    1
     9     9    10    2
    10    10    11    1
    11    11    12    2
    12    12    13    1
    13    13    14    2
    14     7    15    1
    15    15    16    1
    16     2    17    1
    17    17    18    1
    18    17    19    1
    19    19    20    2
    20    20    21    1
    21    21    22    2
    22    22    23    1
    23    22    24    1
    24    24    25    2
    25    16     4    1
    26    25    19    1
    27    14     9    1
@<TRIPOS>SUBSTRUCTURE
     1 RES1        1 GROUP             0 ****  ****    0  
@<TRIPOS>MOLECULE
ligand_70
    25    27     1     0     0
SMALL
USER_CHARGES
****
Generated from the CSD

@<TRIPOS>ATOM
     1 C1      86.6069   5.5368 -36.2222   C.3       1 RES1   0.0000
     2 C2      85.1258   5.3805 -36.6303   C.3       1 RES1   0.0000
     3 C3      84.2630   6.1909 -35.6953   C.3       1 RES1   0.0000
     4 N4      83.7293   5.4542 -34.5549   N.3       1 RES1   1.0000
     5 C5      82.8781   6.3206 -33.6934   C.3       1 RES1   0.0000
     6 C6      82.2445   5.4966 -32.5896   C.3       1 RES1   0.0000
     7 C7      83.3522   4.8956 -31.7540   C.3       1 RES1   0.0000
     8 C8      82.7440   4.0560 -30.5850   C.3       1 RES1   0.0000
     9 C9      81.8899   2.9113 -31.1000   C.2       1 RES1   0.0000
    10 C10     80.5034   3.1139 -31.3405   C.2       1 RES1   0.0000
    11 C11     79.7116   2.0500 -31.8245   C.2       1 RES1   0.0000
    12 C12     80.2952   0.8167 -32.0491   C.2       1 RES1   0.0000
    13 C13     81.6776   0.6112 -31.7966   C.2       1 RES1   0.0000
    14 C14     82.4695   1.6750 -31.3236   C.2       1 RES1   0.0000
    15 C15     84.2556   4.0444 -32.5885   C.3       1 RES1   0.0000
    16 C16     84.8100   4.8309 -33.7529   C.3       1 RES1   0.0000
    17 C17     84.8658   5.7932 -38.0406   C.3       1 RES1   0.0000
    18 O18     83.6161   5.3247 -38.4555   O.3       1 RES1   0.0000
    19 C19     84.8337   7.2928 -38.2989   C.2       1 RES1   0.0000
    20 C20     83.6326   7.9981 -38.4545   C.2       1 RES1   0.0000
    21 C21     83.6606   9.3597 -38.6722   C.2       1 RES1   0.0000
    22 C22     84.8604  10.0685 -38.7299   C.2       1 RES1   0.0000
    23 O23     84.8777  11.4853 -38.9491   O.3       1 RES1   0.0000
    24 C24     86.0424   9.3763 -38.5735   C.2       1 RES1   0.0000
    25 C25     86.0190   7.9886 -38.3539   C.2       1 RES1   0.0000
@<TRIPOS>BOND
     1     2     1    1
     2     2     3    1
     3     3     4    1
     4     4     5    1
     5     5     6    1
     6     6     7    1
     7     7     8    1
     8     8     9    1
     9     9    10    2
    10    10    11    1
    11    11    12    2
    12    12    13    1
    13    13    14    2
    14     7    15    1
    15    15    16    1
    16     2    17    1
    17    17    18    1
    18    17    19    1
    19    19    20    2
    20    20    21    1
    21    21    22    2
    22    22    23    1
    23    22    24    1
    24    24    25    2
    25    16     4    1
    26    25    19    1
    27    14     9    1
@<TRIPOS>SUBSTRUCTURE
     1 RES1        1 GROUP             0 ****  ****    0  
@<TRIPOS>MOLECULE
ligand_71
    25    27     1     0     0
SMALL
USER_CHARGES
****
Generated from the CSD

@<TRIPOS>ATOM
     1 C1      82.4537   6.6497 -22.9518   C.3       1 RES1   0.0000
     2 C2      82.2577   6.7294 -24.4815   C.3       1 RES1   0.0000
     3 C3      82.0507   5.3397 -25.0306   C.3       1 RES1   0.0000
     4 N4      82.0566   5.2449 -26.4863   N.3       1 RES1   1.0000
     5 C5      81.4760   3.9556 -26.9531   C.3       1 RES1   0.0000
     6 C6      81.3866   3.9417 -28.4666   C.3       1 RES1   0.0000
     7 C7      82.7845   4.0907 -29.0234   C.3       1 RES1   0.0000
     8 C8      82.7440   4.0560 -30.5850   C.3       1 RES1   0.0000
     9 C9      81.9193   2.8900 -31.1003   C.2       1 RES1   0.0000
    10 C10     80.5304   3.0602 -31.3510   C.2       1 RES1   0.0000
    11 C11     79.7659   1.9766 -31.8352   C.2       1 RES1   0.0000
    12 C12     80.3786   0.7557 -32.0501   C.2       1 RES1   0.0000
    13 C13     81.7635   0.5826 -31.7874   C.2       1 RES1   0.0000
    14 C14     82.5281   1.6661 -31.3142   C.2       1 RES1   0.0000
    15 C15     83.4213   5.3583 -28.5492   C.3       1 RES1   0.0000
    16 C16     83.4201   5.4280 -27.0403   C.3       1 RES1   0.0000
    17 C17     81.1132   7.6021 -24.8753   C.3       1 RES1   0.0000
    18 O18     81.0870   7.7628 -26.2635   O.3       1 RES1   0.0000
    19 C19     79.7285   7.0878 -24.5087   C.2       1 RES1   0.0000
    20 C20     79.0275   7.5619 -23.3915   C.2       1 RES1   0.0000
    21 C21     77.7686   7.0718 -23.1135   C.2       1 RES1   0.0000
    22 C22     77.1575   6.1172 -23.9262   C.2       1 RES1   0.0000
    23 O23     75.8452   5.6201 -23.6323   O.3       1 RES1   0.0000
    24 C24     77.8447   5.6526 -25.0274   C.2       1 RES1   0.0000
    25 C25     79.1285   6.1472 -25.3133   C.2       1 RES1   0.0000
@<TRIPOS>BOND
     1     2     1    1
     2     2     3    1
     3     3     4    1
     4     4     5    1
     5     5     6    1
     6     6     7    1
     7     7     8    1
     8     8     9    1
     9     9    10    2
    10    10    11    1
    11    11    12    2
    12    12    13    1
    13    13    14    2
    14     7    15    1
    15    15    16    1
    16     2    17    1
    17    17    18    1
    18    17    19    1
    19    19    20    2
    20    20    21    1
    21    21    22    2
    22    22    23    1
    23    22    24    1
    24    24    25    2
    25    16     4    1
    26    25    19    1
    27    14     9    1
@<TRIPOS>SUBSTRUCTURE
     1 RES1        1 GROUP             0 ****  ****    0  
@<TRIPOS>MOLECULE
ligand_72
    25    27     1     0     0
SMALL
USER_CHARGES
****
Generated from the CSD

@<TRIPOS>ATOM
     1 C1      87.9722   5.0232 -34.1595   C.3       1 RES1   0.0000
     2 C2      87.2327   6.0323 -35.0647   C.3       1 RES1   0.0000
     3 C3      86.2241   6.7943 -34.2416   C.3       1 RES1   0.0000
     4 N4      85.5871   6.0239 -33.1792   N.3       1 RES1   1.0000
     5 C5      84.8121   4.8756 -33.7251   C.3       1 RES1   0.0000
     6 C6      84.2657   4.0294 -32.5917   C.3       1 RES1   0.0000
     7 C7      83.3522   4.8956 -31.7540   C.3       1 RES1   0.0000
     8 C8      82.7440   4.0560 -30.5850   C.3       1 RES1   0.0000
     9 C9      81.8908   2.9106 -31.1000   C.2       1 RES1   0.0000
    10 C10     80.5038   3.1116 -31.3388   C.2       1 RES1   0.0000
    11 C11     79.7128   2.0471 -31.8228   C.2       1 RES1   0.0000
    12 C12     80.2978   0.8147 -32.0491   C.2       1 RES1   0.0000
    13 C13     81.6807   0.6108 -31.7983   C.2       1 RES1   0.0000
    14 C14     82.4718   1.6753 -31.3253   C.2       1 RES1   0.0000
    15 C15     84.0821   6.0841 -31.2138   C.3       1 RES1   0.0000
    16 C16     84.7190   6.8764 -32.3311   C.3       1 RES1   0.0000
    17 C17     88.1559   6.9891 -35.7423   C.3       1 RES1   0.0000
    18 O18     89.1113   6.2900 -36.4852   O.3       1 RES1   0.0000
    19 C19     87.5094   7.9497 -36.7300   C.2       1 RES1   0.0000
    20 C20     86.8354   9.1062 -36.3146   C.2       1 RES1   0.0000
    21 C21     86.2803   9.9505 -37.2533   C.2       1 RES1   0.0000
    22 C22     86.3810   9.6943 -38.6206   C.2       1 RES1   0.0000
    23 O23     85.8068  10.5828 -39.5883   O.3       1 RES1   0.0000
    24 C24     87.0469   8.5588 -39.0306   C.2       1 RES1   0.0000
    25 C25     87.6119   7.6943 -38.0777   C.2       1 RES1   0.0000
@<TRIPOS>BOND
     1     2     1    1
     2     2     3    1
     3     3     4    1
     4     4     5    1
     5     5     6    1
     6     6     7    1
     7     7     8    1
     8     8     9    1
     9     9    10    2
    10    10    11    1
    11    11    12    2
    12    12    13    1
    13    13    14    2
    14     7    15    1
    15    15    16    1
    16     2    17    1
    17    17    18    1
    18    17    19    1
    19    19    20    2
    20    20    21    1
    21    21    22    2
    22    22    23    1
    23    22    24    1
    24    24    25    2
    25    16     4    1
    26    25    19    1
    27    14     9    1
@<TRIPOS>SUBSTRUCTURE
     1 RES1        1 GROUP             0 ****  ****    0  
@<TRIPOS>MOLECULE
ligand_73
    25    27     1     0     0
SMALL
USER_CHARGES
****
Generated from the CSD

@<TRIPOS>ATOM
     1 C1      86.5506   4.6038 -23.8699   C.3       1 RES1   0.0000
     2 C2      85.2580   5.1395 -24.5233   C.3       1 RES1   0.0000
     3 C3      84.4826   3.9873 -25.1121   C.3       1 RES1   0.0000
     4 N4      83.8969   4.2445 -26.4232   N.3       1 RES1   1.0000
     5 C5      83.0241   3.1209 -26.8626   C.3       1 RES1   0.0000
     6 C6      82.3389   3.4731 -28.1686   C.3       1 RES1   0.0000
     7 C7      83.4065   3.7139 -29.2119   C.3       1 RES1   0.0000
     8 C8      82.7440   4.0560 -30.5850   C.3       1 RES1   0.0000
     9 C9      81.8930   2.9090 -31.1000   C.2       1 RES1   0.0000
    10 C10     80.5040   3.1050 -31.3310   C.2       1 RES1   0.0000
    11 C11     79.7150   2.0390 -31.8150   C.2       1 RES1   0.0000
    12 C12     80.3040   0.8100 -32.0490   C.2       1 RES1   0.0000
    13 C13     81.6890   0.6110 -31.8060   C.2       1 RES1   0.0000
    14 C14     82.4780   1.6770 -31.3330   C.2       1 RES1   0.0000
    15 C15     84.3307   4.8131 -28.7938   C.3       1 RES1   0.0000
    16 C16     84.9386   4.5187 -27.4427   C.3       1 RES1   0.0000
    17 C17     84.3937   5.8923 -23.5677   C.3       1 RES1   0.0000
    18 O18     84.0251   5.0674 -22.5012   O.3       1 RES1   0.0000
    19 C19     85.0263   7.1170 -22.9226   C.2       1 RES1   0.0000
    20 C20     86.0028   7.0136 -21.9225   C.2       1 RES1   0.0000
    21 C21     86.5540   8.1565 -21.3820   C.2       1 RES1   0.0000
    22 C22     86.1759   9.4278 -21.8136   C.2       1 RES1   0.0000
    23 O23     86.7610  10.6093 -21.2502   O.3       1 RES1   0.0000
    24 C24     85.2180   9.5306 -22.7998   C.2       1 RES1   0.0000
    25 C25     84.6518   8.3690 -23.3517   C.2       1 RES1   0.0000
@<TRIPOS>BOND
     1     2     1    1
     2     2     3    1
     3     3     4    1
     4     4     5    1
     5     5     6    1
     6     6     7    1
     7     7     8    1
     8     8     9    1
     9     9    10    2
    10    10    11    1
    11    11    12    2
    12    12    13    1
    13    13    14    2
    14     7    15    1
    15    15    16    1
    16     2    17    1
    17    17    18    1
    18    17    19    1
    19    19    20    2
    20    20    21    1
    21    21    22    2
    22    22    23    1
    23    22    24    1
    24    24    25    2
    25    16     4    1
    26    25    19    1
    27    14     9    1
@<TRIPOS>SUBSTRUCTURE
     1 RES1        1 GROUP             0 ****  ****    0  
@<TRIPOS>MOLECULE
ligand_74
    25    27     1     0     0
SMALL
USER_CHARGES
****
Generated from the CSD

@<TRIPOS>ATOM
     1 C1      83.9789   9.7222 -36.1664   C.3       1 RES1   0.0000
     2 C2      83.2805   8.9567 -35.0214   C.3       1 RES1   0.0000
     3 C3      84.3177   8.2289 -34.2031   C.3       1 RES1   0.0000
     4 N4      83.7832   7.3833 -33.1414   N.3       1 RES1   1.0000
     5 C5      84.8706   6.7212 -32.3691   C.3       1 RES1   0.0000
     6 C6      84.2859   5.9493 -31.2023   C.3       1 RES1   0.0000
     7 C7      83.3522   4.8956 -31.7540   C.3       1 RES1   0.0000
     8 C8      82.7440   4.0560 -30.5850   C.3       1 RES1   0.0000
     9 C9      81.8930   2.9090 -31.1000   C.2       1 RES1   0.0000
    10 C10     80.5040   3.1050 -31.3310   C.2       1 RES1   0.0000
    11 C11     79.7150   2.0390 -31.8150   C.2       1 RES1   0.0000
    12 C12     80.3040   0.8100 -32.0490   C.2       1 RES1   0.0000
    13 C13     81.6890   0.6110 -31.8060   C.2       1 RES1   0.0000
    14 C14     82.4780   1.6770 -31.3330   C.2       1 RES1   0.0000
    15 C15     82.2620   5.5150 -32.5695   C.3       1 RES1   0.0000
    16 C16     82.8373   6.3718 -33.6725   C.3       1 RES1   0.0000
    17 C17     82.4738   9.8466 -34.1359   C.3       1 RES1   0.0000
    18 O18     83.1291  10.0314 -32.9152   O.3       1 RES1   0.0000
    19 C19     82.2136  11.2502 -34.6636   C.2       1 RES1   0.0000
    20 C20     82.9112  12.3684 -34.1868   C.2       1 RES1   0.0000
    21 C21     82.6462  13.6163 -34.7108   C.2       1 RES1   0.0000
    22 C22     81.7038  13.8019 -35.7222   C.2       1 RES1   0.0000
    23 O23     81.4416  15.1026 -36.2652   O.3       1 RES1   0.0000
    24 C24     81.0195  12.7021 -36.1945   C.2       1 RES1   0.0000
    25 C25     81.2844  11.4290 -35.6619   C.2       1 RES1   0.0000
@<TRIPOS>BOND
     1     2     1    1
     2     2     3    1
     3     3     4    1
     4     4     5    1
     5     5     6    1
     6     6     7    1
     7     7     8    1
     8     8     9    1
     9     9    10    2
    10    10    11    1
    11    11    12    2
    12    12    13    1
    13    13    14    2
    14     7    15    1
    15    15    16    1
    16     2    17    1
    17    17    18    1
    18    17    19    1
    19    19    20    2
    20    20    21    1
    21    21    22    2
    22    22    23    1
    23    22    24    1
    24    24    25    2
    25    16     4    1
    26    25    19    1
    27    14     9    1
@<TRIPOS>SUBSTRUCTURE
     1 RES1        1 GROUP             0 ****  ****    0  
@<TRIPOS>MOLECULE
ligand_75
    25    27     1     0     0
SMALL
USER_CHARGES
****
Generated from the CSD

@<TRIPOS>ATOM
     1 C1      87.5721   8.7465 -34.9979   C.3       1 RES1   0.0000
     2 C2      87.0505   7.9656 -33.7719   C.3       1 RES1   0.0000
     3 C3      86.2241   6.7943 -34.2416   C.3       1 RES1   0.0000
     4 N4      85.5871   6.0239 -33.1792   N.3       1 RES1   1.0000
     5 C5      84.8121   4.8756 -33.7251   C.3       1 RES1   0.0000
     6 C6      84.2657   4.0294 -32.5917   C.3       1 RES1   0.0000
     7 C7      83.3522   4.8956 -31.7540   C.3       1 RES1   0.0000
     8 C8      82.7440   4.0560 -30.5850   C.3       1 RES1   0.0000
     9 C9      81.8907   2.9107 -31.1000   C.2       1 RES1   0.0000
    10 C10     80.5038   3.1118 -31.3391   C.2       1 RES1   0.0000
    11 C11     79.7127   2.0474 -31.8231   C.2       1 RES1   0.0000
    12 C12     80.2976   0.8149 -32.0491   C.2       1 RES1   0.0000
    13 C13     81.6804   0.6108 -31.7980   C.2       1 RES1   0.0000
    14 C14     82.4715   1.6752 -31.3250   C.2       1 RES1   0.0000
    15 C15     84.0821   6.0841 -31.2138   C.3       1 RES1   0.0000
    16 C16     84.7190   6.8764 -32.3311   C.3       1 RES1   0.0000
    17 C17     88.1467   7.4837 -32.8815   C.3       1 RES1   0.0000
    18 O18     88.3191   6.1052 -33.0347   O.3       1 RES1   0.0000
    19 C19     89.5213   8.0864 -33.1339   C.2       1 RES1   0.0000
    20 C20     90.5337   7.3835 -33.8011   C.2       1 RES1   0.0000
    21 C21     91.7570   7.9830 -34.0164   C.2       1 RES1   0.0000
    22 C22     92.0178   9.2878 -33.5982   C.2       1 RES1   0.0000
    23 O23     93.2906   9.9043 -33.8340   O.3       1 RES1   0.0000
    24 C24     91.0214   9.9815 -32.9449   C.2       1 RES1   0.0000
    25 C25     89.7743   9.3739 -32.7210   C.2       1 RES1   0.0000
@<TRIPOS>BOND
     1     2     1    1
     2     2     3    1
     3     3     4    1
     4     4     5    1
     5     5     6    1
     6     6     7    1
     7     7     8    1
     8     8     9    1
     9     9    10    2
    10    10    11    1
    11    11    12    2
    12    12    13    1
    13    13    14    2
    14     7    15    1
    15    15    16    1
    16     2    17    1
    17    17    18    1
    18    17    19    1
    19    19    20    2
    20    20    21    1
    21    21    22    2
    22    22    23    1
    23    22    24    1
    24    24    25    2
    25    16     4    1
    26    25    19    1
    27    14     9    1
@<TRIPOS>SUBSTRUCTURE
     1 RES1        1 GROUP             0 ****  ****    0  
@<TRIPOS>MOLECULE
ligand_76
    25    27     1     0     0
SMALL
USER_CHARGES
****
Generated from the CSD

@<TRIPOS>ATOM
     1 C1      83.0127   5.6870 -37.7888   C.3       1 RES1   0.0000
     2 C2      83.2260   6.7157 -36.6569   C.3       1 RES1   0.0000
     3 C3      84.2630   6.1909 -35.6953   C.3       1 RES1   0.0000
     4 N4      83.7293   5.4542 -34.5549   N.3       1 RES1   1.0000
     5 C5      82.8781   6.3206 -33.6934   C.3       1 RES1   0.0000
     6 C6      82.2445   5.4966 -32.5896   C.3       1 RES1   0.0000
     7 C7      83.3522   4.8956 -31.7540   C.3       1 RES1   0.0000
     8 C8      82.7440   4.0560 -30.5850   C.3       1 RES1   0.0000
     9 C9      81.8897   2.9114 -31.1000   C.2       1 RES1   0.0000
    10 C10     80.5033   3.1143 -31.3407   C.2       1 RES1   0.0000
    11 C11     79.7113   2.0505 -31.8247   C.2       1 RES1   0.0000
    12 C12     80.2947   0.8171 -32.0491   C.2       1 RES1   0.0000
    13 C13     81.6770   0.6113 -31.7964   C.2       1 RES1   0.0000
    14 C14     82.4691   1.6750 -31.3234   C.2       1 RES1   0.0000
    15 C15     84.2556   4.0444 -32.5885   C.3       1 RES1   0.0000
    16 C16     84.8100   4.8309 -33.7529   C.3       1 RES1   0.0000
    17 C17     83.6407   8.0570 -37.1623   C.3       1 RES1   0.0000
    18 O18     82.7560   8.4915 -38.1533   O.3       1 RES1   0.0000
    19 C19     83.6645   9.1771 -36.1321   C.2       1 RES1   0.0000
    20 C20     84.7764   9.4141 -35.3124   C.2       1 RES1   0.0000
    21 C21     84.7503  10.4526 -34.4052   C.2       1 RES1   0.0000
    22 C22     83.6441  11.2936 -34.2852   C.2       1 RES1   0.0000
    23 O23     83.6304  12.3752 -33.3441   O.3       1 RES1   0.0000
    24 C24     82.5511  11.0636 -35.0935   C.2       1 RES1   0.0000
    25 C25     82.5722  10.0051 -36.0175   C.2       1 RES1   0.0000
@<TRIPOS>BOND
     1     2     1    1
     2     2     3    1
     3     3     4    1
     4     4     5    1
     5     5     6    1
     6     6     7    1
     7     7     8    1
     8     8     9    1
     9     9    10    2
    10    10    11    1
    11    11    12    2
    12    12    13    1
    13    13    14    2
    14     7    15    1
    15    15    16    1
    16     2    17    1
    17    17    18    1
    18    17    19    1
    19    19    20    2
    20    20    21    1
    21    21    22    2
    22    22    23    1
    23    22    24    1
    24    24    25    2
    25    16     4    1
    26    25    19    1
    27    14     9    1
@<TRIPOS>SUBSTRUCTURE
     1 RES1        1 GROUP             0 ****  ****    0  
@<TRIPOS>MOLECULE
ligand_77
    25    27     1     0     0
SMALL
USER_CHARGES
****
Generated from the CSD

@<TRIPOS>ATOM
     1 C1      83.5940   6.6139 -38.0561   C.3       1 RES1   0.0000
     2 C2      83.2255   6.8440 -36.5742   C.3       1 RES1   0.0000
     3 C3      84.2630   6.1909 -35.6953   C.3       1 RES1   0.0000
     4 N4      83.7293   5.4542 -34.5549   N.3       1 RES1   1.0000
     5 C5      82.8781   6.3206 -33.6934   C.3       1 RES1   0.0000
     6 C6      82.2445   5.4966 -32.5896   C.3       1 RES1   0.0000
     7 C7      83.3522   4.8956 -31.7540   C.3       1 RES1   0.0000
     8 C8      82.7440   4.0560 -30.5850   C.3       1 RES1   0.0000
     9 C9      81.8897   2.9115 -31.1000   C.2       1 RES1   0.0000
    10 C10     80.5033   3.1144 -31.3409   C.2       1 RES1   0.0000
    11 C11     79.7113   2.0506 -31.8248   C.2       1 RES1   0.0000
    12 C12     80.2946   0.8171 -32.0491   C.2       1 RES1   0.0000
    13 C13     81.6769   0.6113 -31.7962   C.2       1 RES1   0.0000
    14 C14     82.4690   1.6750 -31.3233   C.2       1 RES1   0.0000
    15 C15     84.2556   4.0444 -32.5885   C.3       1 RES1   0.0000
    16 C16     84.8100   4.8309 -33.7529   C.3       1 RES1   0.0000
    17 C17     83.1062   8.2896 -36.2236   C.3       1 RES1   0.0000
    18 O18     84.3220   8.9407 -36.4505   O.3       1 RES1   0.0000
    19 C19     82.0768   9.0828 -37.0158   C.2       1 RES1   0.0000
    20 C20     82.4396   9.9385 -38.0648   C.2       1 RES1   0.0000
    21 C21     81.4643  10.6227 -38.7597   C.2       1 RES1   0.0000
    22 C22     80.1105  10.4782 -38.4571   C.2       1 RES1   0.0000
    23 O23     79.1042  11.1884 -39.1910   O.3       1 RES1   0.0000
    24 C24     79.7522   9.6340 -37.4277   C.2       1 RES1   0.0000
    25 C25     80.7426   8.9368 -36.7152   C.2       1 RES1   0.0000
@<TRIPOS>BOND
     1     2     1    1
     2     2     3    1
     3     3     4    1
     4     4     5    1
     5     5     6    1
     6     6     7    1
     7     7     8    1
     8     8     9    1
     9     9    10    2
    10    10    11    1
    11    11    12    2
    12    12    13    1
    13    13    14    2
    14     7    15    1
    15    15    16    1
    16     2    17    1
    17    17    18    1
    18    17    19    1
    19    19    20    2
    20    20    21    1
    21    21    22    2
    22    22    23    1
    23    22    24    1
    24    24    25    2
    25    16     4    1
    26    25    19    1
    27    14     9    1
@<TRIPOS>SUBSTRUCTURE
     1 RES1        1 GROUP             0 ****  ****    0  
@<TRIPOS>MOLECULE
ligand_78
    25    27     1     0     0
SMALL
USER_CHARGES
****
Generated from the CSD

@<TRIPOS>ATOM
     1 C1      80.5977   8.8732 -24.3893   C.3       1 RES1   0.0000
     2 C2      81.5241   8.1018 -25.3544   C.3       1 RES1   0.0000
     3 C3      80.6888   7.4227 -26.4111   C.3       1 RES1   0.0000
     4 N4      81.4190   6.5048 -27.2784   N.3       1 RES1   1.0000
     5 C5      81.9076   7.1864 -28.5089   C.3       1 RES1   0.0000
     6 C6      82.7623   6.2373 -29.3261   C.3       1 RES1   0.0000
     7 C7      81.9092   5.0516 -29.7171   C.3       1 RES1   0.0000
     8 C8      82.7440   4.0560 -30.5850   C.3       1 RES1   0.0000
     9 C9      81.8995   2.8939 -31.0764   C.2       1 RES1   0.0000
    10 C10     80.5151   3.0842 -31.3373   C.2       1 RES1   0.0000
    11 C11     79.7322   2.0040 -31.7993   C.2       1 RES1   0.0000
    12 C12     80.3226   0.7671 -31.9827   C.2       1 RES1   0.0000
    13 C13     81.7029   0.5742 -31.7098   C.2       1 RES1   0.0000
    14 C14     82.4859   1.6541 -31.2588   C.2       1 RES1   0.0000
    15 C15     81.3658   4.3568 -28.5091   C.3       1 RES1   0.0000
    16 C16     80.5996   5.3210 -27.6345   C.3       1 RES1   0.0000
    17 C17     82.5437   8.9768 -26.0037   C.3       1 RES1   0.0000
    18 O18     81.9179   9.8990 -26.8472   O.3       1 RES1   0.0000
    19 C19     83.3968   9.8147 -25.0621   C.2       1 RES1   0.0000
    20 C20     83.1640  11.1821 -24.8612   C.2       1 RES1   0.0000
    21 C21     83.9585  11.8911 -23.9847   C.2       1 RES1   0.0000
    22 C22     84.9908  11.2805 -23.2728   C.2       1 RES1   0.0000
    23 O23     85.8060  12.0254 -22.3583   O.3       1 RES1   0.0000
    24 C24     85.2185   9.9346 -23.4670   C.2       1 RES1   0.0000
    25 C25     84.4131   9.2087 -24.3608   C.2       1 RES1   0.0000
@<TRIPOS>BOND
     1     2     1    1
     2     2     3    1
     3     3     4    1
     4     4     5    1
     5     5     6    1
     6     6     7    1
     7     7     8    1
     8     8     9    1
     9     9    10    2
    10    10    11    1
    11    11    12    2
    12    12    13    1
    13    13    14    2
    14     7    15    1
    15    15    16    1
    16     2    17    1
    17    17    18    1
    18    17    19    1
    19    19    20    2
    20    20    21    1
    21    21    22    2
    22    22    23    1
    23    22    24    1
    24    24    25    2
    25    16     4    1
    26    25    19    1
    27    14     9    1
@<TRIPOS>SUBSTRUCTURE
     1 RES1        1 GROUP             0 ****  ****    0  
@<TRIPOS>MOLECULE
ligand_79
    25    27     1     0     0
SMALL
USER_CHARGES
****
Generated from the CSD

@<TRIPOS>ATOM
     1 C1      86.6129   5.5901 -36.2577   C.3       1 RES1   0.0000
     2 C2      85.1285   5.3813 -36.6285   C.3       1 RES1   0.0000
     3 C3      84.2630   6.1909 -35.6953   C.3       1 RES1   0.0000
     4 N4      83.7293   5.4542 -34.5549   N.3       1 RES1   1.0000
     5 C5      82.8781   6.3206 -33.6934   C.3       1 RES1   0.0000
     6 C6      82.2445   5.4966 -32.5896   C.3       1 RES1   0.0000
     7 C7      83.3522   4.8956 -31.7540   C.3       1 RES1   0.0000
     8 C8      82.7440   4.0560 -30.5850   C.3       1 RES1   0.0000
     9 C9      81.8896   2.9115 -31.1000   C.2       1 RES1   0.0000
    10 C10     80.5033   3.1144 -31.3407   C.2       1 RES1   0.0000
    11 C11     79.7112   2.0506 -31.8246   C.2       1 RES1   0.0000
    12 C12     80.2946   0.8172 -32.0491   C.2       1 RES1   0.0000
    13 C13     81.6768   0.6114 -31.7964   C.2       1 RES1   0.0000
    14 C14     82.4690   1.6750 -31.3234   C.2       1 RES1   0.0000
    15 C15     84.2556   4.0444 -32.5885   C.3       1 RES1   0.0000
    16 C16     84.8100   4.8309 -33.7529   C.3       1 RES1   0.0000
    17 C17     84.8262   5.7498 -38.0426   C.3       1 RES1   0.0000
    18 O18     85.7151   5.1051 -38.9074   O.3       1 RES1   0.0000
    19 C19     83.4398   5.3740 -38.5455   C.2       1 RES1   0.0000
    20 C20     82.3255   6.2017 -38.3516   C.2       1 RES1   0.0000
    21 C21     81.0941   5.8194 -38.8412   C.2       1 RES1   0.0000
    22 C22     80.9226   4.6268 -39.5437   C.2       1 RES1   0.0000
    23 O23     79.6394   4.2426 -40.0551   O.3       1 RES1   0.0000
    24 C24     82.0187   3.8135 -39.7381   C.2       1 RES1   0.0000
    25 C25     83.2747   4.1976 -39.2389   C.2       1 RES1   0.0000
@<TRIPOS>BOND
     1     2     1    1
     2     2     3    1
     3     3     4    1
     4     4     5    1
     5     5     6    1
     6     6     7    1
     7     7     8    1
     8     8     9    1
     9     9    10    2
    10    10    11    1
    11    11    12    2
    12    12    13    1
    13    13    14    2
    14     7    15    1
    15    15    16    1
    16     2    17    1
    17    17    18    1
    18    17    19    1
    19    19    20    2
    20    20    21    1
    21    21    22    2
    22    22    23    1
    23    22    24    1
    24    24    25    2
    25    16     4    1
    26    25    19    1
    27    14     9    1
@<TRIPOS>SUBSTRUCTURE
     1 RES1        1 GROUP             0 ****  ****    0  
@<TRIPOS>MOLECULE
ligand_80
    25    27     1     0     0
SMALL
USER_CHARGES
****
Generated from the CSD

@<TRIPOS>ATOM
     1 C1      82.2712  11.2733 -34.3112   C.3       1 RES1   0.0000
     2 C2      82.6967   9.8094 -34.0652   C.3       1 RES1   0.0000
     3 C3      82.0052   9.2903 -32.8291   C.3       1 RES1   0.0000
     4 N4      82.4598   7.9817 -32.3721   N.3       1 RES1   1.0000
     5 C5      81.6346   6.8839 -32.9474   C.3       1 RES1   0.0000
     6 C6      82.2076   5.5376 -32.5498   C.3       1 RES1   0.0000
     7 C7      82.1844   5.4418 -31.0409   C.3       1 RES1   0.0000
     8 C8      82.7440   4.0560 -30.5850   C.3       1 RES1   0.0000
     9 C9      81.9126   2.9076 -31.1282   C.2       1 RES1   0.0000
    10 C10     80.5185   3.0825 -31.3454   C.2       1 RES1   0.0000
    11 C11     79.7477   2.0155 -31.8556   C.2       1 RES1   0.0000
    12 C12     80.3594   0.8057 -32.1285   C.2       1 RES1   0.0000
    13 C13     81.7495   0.6274 -31.8993   C.2       1 RES1   0.0000
    14 C14     82.5203   1.6948 -31.4001   C.2       1 RES1   0.0000
    15 C15     82.9730   6.5498 -30.4182   C.3       1 RES1   0.0000
    16 C16     82.4750   7.8950 -30.8915   C.3       1 RES1   0.0000
    17 C17     82.3977   8.9159 -35.2223   C.3       1 RES1   0.0000
    18 O18     81.0158   8.8097 -35.4027   O.3       1 RES1   0.0000
    19 C19     82.9406   9.3696 -36.5699   C.2       1 RES1   0.0000
    20 C20     82.1257   9.9701 -37.5392   C.2       1 RES1   0.0000
    21 C21     82.6726  10.3761 -38.7385   C.2       1 RES1   0.0000
    22 C22     84.0304  10.2184 -39.0159   C.2       1 RES1   0.0000
    23 O23     84.5901  10.6510 -40.2630   O.3       1 RES1   0.0000
    24 C24     84.8336   9.6310 -38.0617   C.2       1 RES1   0.0000
    25 C25     84.2803   9.2135 -36.8393   C.2       1 RES1   0.0000
@<TRIPOS>BOND
     1     2     1    1
     2     2     3    1
     3     3     4    1
     4     4     5    1
     5     5     6    1
     6     6     7    1
     7     7     8    1
     8     8     9    1
     9     9    10    2
    10    10    11    1
    11    11    12    2
    12    12    13    1
    13    13    14    2
    14     7    15    1
    15    15    16    1
    16     2    17    1
    17    17    18    1
    18    17    19    1
    19    19    20    2
    20    20    21    1
    21    21    22    2
    22    22    23    1
    23    22    24    1
    24    24    25    2
    25    16     4    1
    26    25    19    1
    27    14     9    1
@<TRIPOS>SUBSTRUCTURE
     1 RES1        1 GROUP             0 ****  ****    0  
@<TRIPOS>MOLECULE
ligand_81
    25    27     1     0     0
SMALL
USER_CHARGES
****
Generated from the CSD

@<TRIPOS>ATOM
     1 C1      79.0938   7.7400 -24.5257   C.3       1 RES1   0.0000
     2 C2      80.1721   6.8149 -25.1309   C.3       1 RES1   0.0000
     3 C3      80.6888   7.4227 -26.4111   C.3       1 RES1   0.0000
     4 N4      81.4190   6.5048 -27.2784   N.3       1 RES1   1.0000
     5 C5      81.9076   7.1864 -28.5089   C.3       1 RES1   0.0000
     6 C6      82.7623   6.2373 -29.3261   C.3       1 RES1   0.0000
     7 C7      81.9092   5.0516 -29.7171   C.3       1 RES1   0.0000
     8 C8      82.7440   4.0560 -30.5850   C.3       1 RES1   0.0000
     9 C9      81.8989   2.8953 -31.0787   C.2       1 RES1   0.0000
    10 C10     80.5148   3.0873 -31.3405   C.2       1 RES1   0.0000
    11 C11     79.7314   2.0084 -31.8046   C.2       1 RES1   0.0000
    12 C12     80.3208   0.7712 -31.9892   C.2       1 RES1   0.0000
    13 C13     81.7007   0.5767 -31.7154   C.2       1 RES1   0.0000
    14 C14     82.4843   1.6552 -31.2622   C.2       1 RES1   0.0000
    15 C15     81.3658   4.3568 -28.5091   C.3       1 RES1   0.0000
    16 C16     80.5996   5.3210 -27.6345   C.3       1 RES1   0.0000
    17 C17     81.3093   6.5618 -24.1985   C.3       1 RES1   0.0000
    18 O18     80.8260   6.1784 -22.9444   O.3       1 RES1   0.0000
    19 C19     82.2713   5.4560 -24.6086   C.2       1 RES1   0.0000
    20 C20     83.6020   5.7173 -24.9626   C.2       1 RES1   0.0000
    21 C21     84.4355   4.6756 -25.3121   C.2       1 RES1   0.0000
    22 C22     83.9950   3.3523 -25.3117   C.2       1 RES1   0.0000
    23 O23     84.8721   2.2760 -25.6694   O.3       1 RES1   0.0000
    24 C24     82.6872   3.0937 -24.9602   C.2       1 RES1   0.0000
    25 C25     81.8336   4.1521 -24.6058   C.2       1 RES1   0.0000
@<TRIPOS>BOND
     1     2     1    1
     2     2     3    1
     3     3     4    1
     4     4     5    1
     5     5     6    1
     6     6     7    1
     7     7     8    1
     8     8     9    1
     9     9    10    2
    10    10    11    1
    11    11    12    2
    12    12    13    1
    13    13    14    2
    14     7    15    1
    15    15    16    1
    16     2    17    1
    17    17    18    1
    18    17    19    1
    19    19    20    2
    20    20    21    1
    21    21    22    2
    22    22    23    1
    23    22    24    1
    24    24    25    2
    25    16     4    1
    26    25    19    1
    27    14     9    1
@<TRIPOS>SUBSTRUCTURE
     1 RES1        1 GROUP             0 ****  ****    0  
@<TRIPOS>MOLECULE
ligand_82
    25    27     1     0     0
SMALL
USER_CHARGES
****
Generated from the CSD

@<TRIPOS>ATOM
     1 C1      81.9920  11.7596 -32.5098   C.3       1 RES1   0.0000
     2 C2      82.8010  10.4601 -32.3059   C.3       1 RES1   0.0000
     3 C3      82.0052   9.2903 -32.8291   C.3       1 RES1   0.0000
     4 N4      82.4598   7.9817 -32.3721   N.3       1 RES1   1.0000
     5 C5      81.6346   6.8839 -32.9474   C.3       1 RES1   0.0000
     6 C6      82.2076   5.5376 -32.5498   C.3       1 RES1   0.0000
     7 C7      82.1844   5.4418 -31.0409   C.3       1 RES1   0.0000
     8 C8      82.7440   4.0560 -30.5850   C.3       1 RES1   0.0000
     9 C9      81.9120   2.9077 -31.1274   C.2       1 RES1   0.0000
    10 C10     80.5180   3.0830 -31.3445   C.2       1 RES1   0.0000
    11 C11     79.7466   2.0160 -31.8539   C.2       1 RES1   0.0000
    12 C12     80.3578   0.8058 -32.1263   C.2       1 RES1   0.0000
    13 C13     81.7479   0.6271 -31.8973   C.2       1 RES1   0.0000
    14 C14     82.5192   1.6944 -31.3988   C.2       1 RES1   0.0000
    15 C15     82.9730   6.5498 -30.4182   C.3       1 RES1   0.0000
    16 C16     82.4750   7.8950 -30.8915   C.3       1 RES1   0.0000
    17 C17     84.1368  10.4979 -32.9699   C.3       1 RES1   0.0000
    18 O18     84.8058  11.6789 -32.6362   O.3       1 RES1   0.0000
    19 C19     85.0969   9.3780 -32.5955   C.2       1 RES1   0.0000
    20 C20     85.5039   8.4040 -33.5174   C.2       1 RES1   0.0000
    21 C21     86.3880   7.4192 -33.1288   C.2       1 RES1   0.0000
    22 C22     86.9070   7.3687 -31.8352   C.2       1 RES1   0.0000
    23 O23     87.8314   6.3450 -31.4439   O.3       1 RES1   0.0000
    24 C24     86.5100   8.3284 -30.9284   C.2       1 RES1   0.0000
    25 C25     85.6076   9.3322 -31.3191   C.2       1 RES1   0.0000
@<TRIPOS>BOND
     1     2     1    1
     2     2     3    1
     3     3     4    1
     4     4     5    1
     5     5     6    1
     6     6     7    1
     7     7     8    1
     8     8     9    1
     9     9    10    2
    10    10    11    1
    11    11    12    2
    12    12    13    1
    13    13    14    2
    14     7    15    1
    15    15    16    1
    16     2    17    1
    17    17    18    1
    18    17    19    1
    19    19    20    2
    20    20    21    1
    21    21    22    2
    22    22    23    1
    23    22    24    1
    24    24    25    2
    25    16     4    1
    26    25    19    1
    27    14     9    1
@<TRIPOS>SUBSTRUCTURE
     1 RES1        1 GROUP             0 ****  ****    0  
@<TRIPOS>MOLECULE
ligand_83
    25    27     1     0     0
SMALL
USER_CHARGES
****
Generated from the CSD

@<TRIPOS>ATOM
     1 C1      81.8606  11.3001 -31.6785   C.3       1 RES1   0.0000
     2 C2      82.9082  10.4618 -32.4430   C.3       1 RES1   0.0000
     3 C3      82.2433   9.2349 -33.0158   C.3       1 RES1   0.0000
     4 N4      82.2813   8.0558 -32.1576   N.3       1 RES1   1.0000
     5 C5      83.6550   7.4880 -32.0682   C.3       1 RES1   0.0000
     6 C6      83.6816   6.3412 -31.0767   C.3       1 RES1   0.0000
     7 C7      82.7302   5.2724 -31.5655   C.3       1 RES1   0.0000
     8 C8      82.7440   4.0560 -30.5850   C.3       1 RES1   0.0000
     9 C9      81.9612   2.8788 -31.1385   C.2       1 RES1   0.0000
    10 C10     80.5412   2.9301 -31.1838   C.2       1 RES1   0.0000
    11 C11     79.8149   1.8368 -31.7037   C.2       1 RES1   0.0000
    12 C12     80.4966   0.7213 -32.1542   C.2       1 RES1   0.0000
    13 C13     81.9145   0.6652 -32.0970   C.2       1 RES1   0.0000
    14 C14     82.6394   1.7597 -31.5879   C.2       1 RES1   0.0000
    15 C15     81.3414   5.8100 -31.7054   C.3       1 RES1   0.0000
    16 C16     81.3224   7.0191 -32.6108   C.3       1 RES1   0.0000
    17 C17     83.5794  11.2268 -33.5344   C.3       1 RES1   0.0000
    18 O18     82.6350  11.6557 -34.4712   O.3       1 RES1   0.0000
    19 C19     84.3154  12.4882 -33.1061   C.2       1 RES1   0.0000
    20 C20     83.6386  13.6579 -32.7347   C.2       1 RES1   0.0000
    21 C21     84.3550  14.7686 -32.3405   C.2       1 RES1   0.0000
    22 C22     85.7487  14.7608 -32.2861   C.2       1 RES1   0.0000
    23 O23     86.4833  15.9186 -31.8675   O.3       1 RES1   0.0000
    24 C24     86.4154  13.6095 -32.6478   C.2       1 RES1   0.0000
    25 C25     85.6898  12.4763 -33.0525   C.2       1 RES1   0.0000
@<TRIPOS>BOND
     1     2     1    1
     2     2     3    1
     3     3     4    1
     4     4     5    1
     5     5     6    1
     6     6     7    1
     7     7     8    1
     8     8     9    1
     9     9    10    2
    10    10    11    1
    11    11    12    2
    12    12    13    1
    13    13    14    2
    14     7    15    1
    15    15    16    1
    16     2    17    1
    17    17    18    1
    18    17    19    1
    19    19    20    2
    20    20    21    1
    21    21    22    2
    22    22    23    1
    23    22    24    1
    24    24    25    2
    25    16     4    1
    26    25    19    1
    27    14     9    1
@<TRIPOS>SUBSTRUCTURE
     1 RES1        1 GROUP             0 ****  ****    0  
@<TRIPOS>MOLECULE
ligand_84
    25    27     1     0     0
SMALL
USER_CHARGES
****
Generated from the CSD

@<TRIPOS>ATOM
     1 C1      79.9325   9.5337 -26.5177   C.3       1 RES1   0.0000
     2 C2      79.5406   8.0543 -26.3112   C.3       1 RES1   0.0000
     3 C3      80.7912   7.2174 -26.2064   C.3       1 RES1   0.0000
     4 N4      81.2695   6.6630 -27.4681   N.3       1 RES1   1.0000
     5 C5      80.3738   5.5825 -27.9656   C.3       1 RES1   0.0000
     6 C6      80.8318   5.1140 -29.3331   C.3       1 RES1   0.0000
     7 C7      82.2386   4.5754 -29.2008   C.3       1 RES1   0.0000
     8 C8      82.7440   4.0560 -30.5850   C.3       1 RES1   0.0000
     9 C9      81.9433   2.8577 -31.0624   C.2       1 RES1   0.0000
    10 C10     80.6194   3.0378 -31.5482   C.2       1 RES1   0.0000
    11 C11     79.8780   1.9232 -31.9968   C.2       1 RES1   0.0000
    12 C12     80.4478   0.6642 -31.9477   C.2       1 RES1   0.0000
    13 C13     81.7657   0.4831 -31.4504   C.2       1 RES1   0.0000
    14 C14     82.5089   1.5959 -31.0125   C.2       1 RES1   0.0000
    15 C15     83.1676   5.6195 -28.6679   C.3       1 RES1   0.0000
    16 C16     82.6627   6.1673 -27.3539   C.3       1 RES1   0.0000
    17 C17     78.6900   7.8423 -25.1037   C.3       1 RES1   0.0000
    18 O18     79.3778   8.2441 -23.9551   O.3       1 RES1   0.0000
    19 C19     77.3782   8.6133 -25.0712   C.2       1 RES1   0.0000
    20 C20     77.3291   9.9938 -24.8341   C.2       1 RES1   0.0000
    21 C21     76.1138  10.6458 -24.8302   C.2       1 RES1   0.0000
    22 C22     74.9181   9.9694 -25.0711   C.2       1 RES1   0.0000
    23 O23     73.6608  10.6585 -25.0723   O.3       1 RES1   0.0000
    24 C24     74.9654   8.6121 -25.3080   C.2       1 RES1   0.0000
    25 C25     76.2011   7.9431 -25.3104   C.2       1 RES1   0.0000
@<TRIPOS>BOND
     1     2     1    1
     2     2     3    1
     3     3     4    1
     4     4     5    1
     5     5     6    1
     6     6     7    1
     7     7     8    1
     8     8     9    1
     9     9    10    2
    10    10    11    1
    11    11    12    2
    12    12    13    1
    13    13    14    2
    14     7    15    1
    15    15    16    1
    16     2    17    1
    17    17    18    1
    18    17    19    1
    19    19    20    2
    20    20    21    1
    21    21    22    2
    22    22    23    1
    23    22    24    1
    24    24    25    2
    25    16     4    1
    26    25    19    1
    27    14     9    1
@<TRIPOS>SUBSTRUCTURE
     1 RES1        1 GROUP             0 ****  ****    0  
@<TRIPOS>MOLECULE
ligand_85
    25    27     1     0     0
SMALL
USER_CHARGES
****
Generated from the CSD

@<TRIPOS>ATOM
     1 C1      82.1671   9.4394 -33.8727   C.3       1 RES1   0.0000
     2 C2      83.3091   9.1335 -34.8662   C.3       1 RES1   0.0000
     3 C3      84.3177   8.2289 -34.2031   C.3       1 RES1   0.0000
     4 N4      83.7832   7.3833 -33.1414   N.3       1 RES1   1.0000
     5 C5      84.8706   6.7212 -32.3691   C.3       1 RES1   0.0000
     6 C6      84.2859   5.9493 -31.2023   C.3       1 RES1   0.0000
     7 C7      83.3522   4.8956 -31.7540   C.3       1 RES1   0.0000
     8 C8      82.7440   4.0560 -30.5850   C.3       1 RES1   0.0000
     9 C9      81.8930   2.9090 -31.1000   C.2       1 RES1   0.0000
    10 C10     80.5040   3.1050 -31.3310   C.2       1 RES1   0.0000
    11 C11     79.7150   2.0390 -31.8150   C.2       1 RES1   0.0000
    12 C12     80.3040   0.8100 -32.0490   C.2       1 RES1   0.0000
    13 C13     81.6890   0.6110 -31.8060   C.2       1 RES1   0.0000
    14 C14     82.4780   1.6770 -31.3330   C.2       1 RES1   0.0000
    15 C15     82.2620   5.5150 -32.5695   C.3       1 RES1   0.0000
    16 C16     82.8373   6.3718 -33.6725   C.3       1 RES1   0.0000
    17 C17     82.8255   8.5068 -36.1312   C.3       1 RES1   0.0000
    18 O18     81.7897   9.2687 -36.6792   O.3       1 RES1   0.0000
    19 C19     83.8551   8.3771 -37.2445   C.2       1 RES1   0.0000
    20 C20     84.7334   7.2880 -37.3260   C.2       1 RES1   0.0000
    21 C21     85.6375   7.2127 -38.3648   C.2       1 RES1   0.0000
    22 C22     85.6975   8.1913 -39.3569   C.2       1 RES1   0.0000
    23 O23     86.6362   8.0993 -40.4367   O.3       1 RES1   0.0000
    24 C24     84.8317   9.2613 -39.2796   C.2       1 RES1   0.0000
    25 C25     83.9105   9.3435 -38.2217   C.2       1 RES1   0.0000
@<TRIPOS>BOND
     1     2     1    1
     2     2     3    1
     3     3     4    1
     4     4     5    1
     5     5     6    1
     6     6     7    1
     7     7     8    1
     8     8     9    1
     9     9    10    2
    10    10    11    1
    11    11    12    2
    12    12    13    1
    13    13    14    2
    14     7    15    1
    15    15    16    1
    16     2    17    1
    17    17    18    1
    18    17    19    1
    19    19    20    2
    20    20    21    1
    21    21    22    2
    22    22    23    1
    23    22    24    1
    24    24    25    2
    25    16     4    1
    26    25    19    1
    27    14     9    1
@<TRIPOS>SUBSTRUCTURE
     1 RES1        1 GROUP             0 ****  ****    0  
@<TRIPOS>MOLECULE
ligand_86
    25    27     1     0     0
SMALL
USER_CHARGES
****
Generated from the CSD

@<TRIPOS>ATOM
     1 C1      83.7708   4.4307 -37.3862   C.3       1 RES1   0.0000
     2 C2      83.5761   5.9157 -37.0098   C.3       1 RES1   0.0000
     3 C3      84.2630   6.1909 -35.6953   C.3       1 RES1   0.0000
     4 N4      83.7293   5.4542 -34.5549   N.3       1 RES1   1.0000
     5 C5      82.8781   6.3206 -33.6934   C.3       1 RES1   0.0000
     6 C6      82.2445   5.4966 -32.5896   C.3       1 RES1   0.0000
     7 C7      83.3522   4.8956 -31.7540   C.3       1 RES1   0.0000
     8 C8      82.7440   4.0560 -30.5850   C.3       1 RES1   0.0000
     9 C9      81.8896   2.9115 -31.1000   C.2       1 RES1   0.0000
    10 C10     80.5034   3.1145 -31.3411   C.2       1 RES1   0.0000
    11 C11     79.7113   2.0508 -31.8251   C.2       1 RES1   0.0000
    12 C12     80.2945   0.8172 -32.0491   C.2       1 RES1   0.0000
    13 C13     81.6767   0.6112 -31.7959   C.2       1 RES1   0.0000
    14 C14     82.4689   1.6749 -31.3230   C.2       1 RES1   0.0000
    15 C15     84.2556   4.0444 -32.5885   C.3       1 RES1   0.0000
    16 C16     84.8100   4.8309 -33.7529   C.3       1 RES1   0.0000
    17 C17     84.0906   6.8509 -38.0525   C.3       1 RES1   0.0000
    18 O18     85.4657   6.6688 -38.2247   O.3       1 RES1   0.0000
    19 C19     83.4916   6.6911 -39.4425   C.2       1 RES1   0.0000
    20 C20     84.1752   6.0429 -40.4801   C.2       1 RES1   0.0000
    21 C21     83.5793   5.9127 -41.7171   C.2       1 RES1   0.0000
    22 C22     82.2967   6.3998 -41.9681   C.2       1 RES1   0.0000
    23 O23     81.6836   6.2524 -43.2557   O.3       1 RES1   0.0000
    24 C24     81.6219   7.0346 -40.9470   C.2       1 RES1   0.0000
    25 C25     82.2259   7.1717 -39.6857   C.2       1 RES1   0.0000
@<TRIPOS>BOND
     1     2     1    1
     2     2     3    1
     3     3     4    1
     4     4     5    1
     5     5     6    1
     6     6     7    1
     7     7     8    1
     8     8     9    1
     9     9    10    2
    10    10    11    1
    11    11    12    2
    12    12    13    1
    13    13    14    2
    14     7    15    1
    15    15    16    1
    16     2    17    1
    17    17    18    1
    18    17    19    1
    19    19    20    2
    20    20    21    1
    21    21    22    2
    22    22    23    1
    23    22    24    1
    24    24    25    2
    25    16     4    1
    26    25    19    1
    27    14     9    1
@<TRIPOS>SUBSTRUCTURE
     1 RES1        1 GROUP             0 ****  ****    0  
@<TRIPOS>MOLECULE
ligand_87
    25    27     1     0     0
SMALL
USER_CHARGES
****
Generated from the CSD

@<TRIPOS>ATOM
     1 C1      87.8266   7.3599 -32.4218   C.3       1 RES1   0.0000
     2 C2      87.2324   7.8137 -33.7730   C.3       1 RES1   0.0000
     3 C3      86.2241   6.7943 -34.2416   C.3       1 RES1   0.0000
     4 N4      85.5871   6.0239 -33.1792   N.3       1 RES1   1.0000
     5 C5      84.8121   4.8756 -33.7251   C.3       1 RES1   0.0000
     6 C6      84.2657   4.0294 -32.5917   C.3       1 RES1   0.0000
     7 C7      83.3522   4.8956 -31.7540   C.3       1 RES1   0.0000
     8 C8      82.7440   4.0560 -30.5850   C.3       1 RES1   0.0000
     9 C9      81.8908   2.9106 -31.1000   C.2       1 RES1   0.0000
    10 C10     80.5038   3.1116 -31.3388   C.2       1 RES1   0.0000
    11 C11     79.7128   2.0471 -31.8228   C.2       1 RES1   0.0000
    12 C12     80.2978   0.8147 -32.0491   C.2       1 RES1   0.0000
    13 C13     81.6807   0.6108 -31.7983   C.2       1 RES1   0.0000
    14 C14     82.4718   1.6753 -31.3253   C.2       1 RES1   0.0000
    15 C15     84.0821   6.0841 -31.2138   C.3       1 RES1   0.0000
    16 C16     84.7190   6.8764 -32.3311   C.3       1 RES1   0.0000
    17 C17     86.5922   9.1598 -33.7025   C.3       1 RES1   0.0000
    18 O18     87.4759  10.0828 -33.1360   O.3       1 RES1   0.0000
    19 C19     86.1801   9.7702 -35.0344   C.2       1 RES1   0.0000
    20 C20     84.9478   9.4838 -35.6375   C.2       1 RES1   0.0000
    21 C21     84.6183  10.0764 -36.8385   C.2       1 RES1   0.0000
    22 C22     85.4772  10.9732 -37.4737   C.2       1 RES1   0.0000
    23 O23     85.1214  11.5895 -38.7183   O.3       1 RES1   0.0000
    24 C24     86.6882  11.2584 -36.8795   C.2       1 RES1   0.0000
    25 C25     87.0292  10.6551 -35.6571   C.2       1 RES1   0.0000
@<TRIPOS>BOND
     1     2     1    1
     2     2     3    1
     3     3     4    1
     4     4     5    1
     5     5     6    1
     6     6     7    1
     7     7     8    1
     8     8     9    1
     9     9    10    2
    10    10    11    1
    11    11    12    2
    12    12    13    1
    13    13    14    2
    14     7    15    1
    15    15    16    1
    16     2    17    1
    17    17    18    1
    18    17    19    1
    19    19    20    2
    20    20    21    1
    21    21    22    2
    22    22    23    1
    23    22    24    1
    24    24    25    2
    25    16     4    1
    26    25    19    1
    27    14     9    1
@<TRIPOS>SUBSTRUCTURE
     1 RES1        1 GROUP             0 ****  ****    0  
@<TRIPOS>MOLECULE
ligand_88
    25    27     1     0     0
SMALL
USER_CHARGES
****
Generated from the CSD

@<TRIPOS>ATOM
     1 C1      89.4127   5.4951 -31.2097   C.3       1 RES1   0.0000
     2 C2      89.0194   5.0262 -32.6276   C.3       1 RES1   0.0000
     3 C3      87.6999   5.6489 -33.0104   C.3       1 RES1   0.0000
     4 N4      86.5791   5.2993 -32.1445   N.3       1 RES1   1.0000
     5 C5      86.1736   3.8775 -32.3212   C.3       1 RES1   0.0000
     6 C6      85.0906   3.5163 -31.3234   C.3       1 RES1   0.0000
     7 C7      83.8981   4.4109 -31.5766   C.3       1 RES1   0.0000
     8 C8      82.7440   4.0560 -30.5850   C.3       1 RES1   0.0000
     9 C9      81.8104   3.0065 -31.1612   C.2       1 RES1   0.0000
    10 C10     80.4644   3.3465 -31.4675   C.2       1 RES1   0.0000
    11 C11     79.5990   2.3709 -32.0082   C.2       1 RES1   0.0000
    12 C12     80.0710   1.0892 -32.2240   C.2       1 RES1   0.0000
    13 C13     81.4120   0.7465 -31.9060   C.2       1 RES1   0.0000
    14 C14     82.2780   1.7222 -31.3762   C.2       1 RES1   0.0000
    15 C15     84.2693   5.8539 -31.4454   C.3       1 RES1   0.0000
    16 C16     85.4194   6.1980 -32.3622   C.3       1 RES1   0.0000
    17 C17     90.0496   5.3576 -33.6550   C.3       1 RES1   0.0000
    18 O18     91.2855   4.8181 -33.2874   O.3       1 RES1   0.0000
    19 C19     89.7853   4.8264 -35.0565   C.2       1 RES1   0.0000
    20 C20     88.9388   5.4862 -35.9578   C.2       1 RES1   0.0000
    21 C21     88.7459   4.9686 -37.2215   C.2       1 RES1   0.0000
    22 C22     89.3847   3.8020 -37.6414   C.2       1 RES1   0.0000
    23 O23     89.1830   3.2767 -38.9601   O.3       1 RES1   0.0000
    24 C24     90.2204   3.1539 -36.7568   C.2       1 RES1   0.0000
    25 C25     90.4180   3.6762 -35.4674   C.2       1 RES1   0.0000
@<TRIPOS>BOND
     1     2     1    1
     2     2     3    1
     3     3     4    1
     4     4     5    1
     5     5     6    1
     6     6     7    1
     7     7     8    1
     8     8     9    1
     9     9    10    2
    10    10    11    1
    11    11    12    2
    12    12    13    1
    13    13    14    2
    14     7    15    1
    15    15    16    1
    16     2    17    1
    17    17    18    1
    18    17    19    1
    19    19    20    2
    20    20    21    1
    21    21    22    2
    22    22    23    1
    23    22    24    1
    24    24    25    2
    25    16     4    1
    26    25    19    1
    27    14     9    1
@<TRIPOS>SUBSTRUCTURE
     1 RES1        1 GROUP             0 ****  ****    0  
@<TRIPOS>MOLECULE
ligand_89
    25    27     1     0     0
SMALL
USER_CHARGES
****
Generated from the CSD

@<TRIPOS>ATOM
     1 C1      86.3275   6.0702 -37.0820   C.3       1 RES1   0.0000
     2 C2      85.0141   5.3533 -36.7001   C.3       1 RES1   0.0000
     3 C3      84.2630   6.1909 -35.6953   C.3       1 RES1   0.0000
     4 N4      83.7293   5.4542 -34.5549   N.3       1 RES1   1.0000
     5 C5      82.8781   6.3206 -33.6934   C.3       1 RES1   0.0000
     6 C6      82.2445   5.4966 -32.5896   C.3       1 RES1   0.0000
     7 C7      83.3522   4.8956 -31.7540   C.3       1 RES1   0.0000
     8 C8      82.7440   4.0560 -30.5850   C.3       1 RES1   0.0000
     9 C9      81.8894   2.9117 -31.1000   C.2       1 RES1   0.0000
    10 C10     80.5033   3.1152 -31.3419   C.2       1 RES1   0.0000
    11 C11     79.7110   2.0517 -31.8258   C.2       1 RES1   0.0000
    12 C12     80.2938   0.8177 -32.0491   C.2       1 RES1   0.0000
    13 C13     81.6758   0.6113 -31.7952   C.2       1 RES1   0.0000
    14 C14     82.4682   1.6748 -31.3223   C.2       1 RES1   0.0000
    15 C15     84.2556   4.0444 -32.5885   C.3       1 RES1   0.0000
    16 C16     84.8100   4.8309 -33.7529   C.3       1 RES1   0.0000
    17 C17     84.1407   5.0759 -37.8779   C.3       1 RES1   0.0000
    18 O18     83.0507   4.2903 -37.4931   O.3       1 RES1   0.0000
    19 C19     83.5321   6.2951 -38.5557   C.2       1 RES1   0.0000
    20 C20     82.1865   6.6490 -38.3876   C.2       1 RES1   0.0000
    21 C21     81.6899   7.7731 -39.0136   C.2       1 RES1   0.0000
    22 C22     82.4974   8.5869 -39.8080   C.2       1 RES1   0.0000
    23 O23     81.9727   9.7576 -40.4481   O.3       1 RES1   0.0000
    24 C24     83.8221   8.2418 -39.9713   C.2       1 RES1   0.0000
    25 C25     84.3319   7.0960 -39.3374   C.2       1 RES1   0.0000
@<TRIPOS>BOND
     1     2     1    1
     2     2     3    1
     3     3     4    1
     4     4     5    1
     5     5     6    1
     6     6     7    1
     7     7     8    1
     8     8     9    1
     9     9    10    2
    10    10    11    1
    11    11    12    2
    12    12    13    1
    13    13    14    2
    14     7    15    1
    15    15    16    1
    16     2    17    1
    17    17    18    1
    18    17    19    1
    19    19    20    2
    20    20    21    1
    21    21    22    2
    22    22    23    1
    23    22    24    1
    24    24    25    2
    25    16     4    1
    26    25    19    1
    27    14     9    1
@<TRIPOS>SUBSTRUCTURE
     1 RES1        1 GROUP             0 ****  ****    0  
@<TRIPOS>MOLECULE
ligand_90
    25    27     1     0     0
SMALL
USER_CHARGES
****
Generated from the CSD

@<TRIPOS>ATOM
     1 C1      82.3204   5.8119 -22.7316   C.3       1 RES1   0.0000
     2 C2      83.0056   5.3842 -24.0478   C.3       1 RES1   0.0000
     3 C3      82.2982   6.0328 -25.2116   C.3       1 RES1   0.0000
     4 N4      82.6975   5.5428 -26.5263   N.3       1 RES1   1.0000
     5 C5      82.2261   6.4451 -27.6130   C.3       1 RES1   0.0000
     6 C6      82.7599   5.9727 -28.9513   C.3       1 RES1   0.0000
     7 C7      82.2386   4.5754 -29.2008   C.3       1 RES1   0.0000
     8 C8      82.7440   4.0560 -30.5850   C.3       1 RES1   0.0000
     9 C9      81.8930   2.9090 -31.1000   C.2       1 RES1   0.0000
    10 C10     80.5040   3.1050 -31.3310   C.2       1 RES1   0.0000
    11 C11     79.7150   2.0390 -31.8150   C.2       1 RES1   0.0000
    12 C12     80.3040   0.8100 -32.0490   C.2       1 RES1   0.0000
    13 C13     81.6890   0.6110 -31.8060   C.2       1 RES1   0.0000
    14 C14     82.4780   1.6770 -31.3330   C.2       1 RES1   0.0000
    15 C15     82.6586   3.6408 -28.1112   C.3       1 RES1   0.0000
    16 C16     82.2207   4.1582 -26.7614   C.3       1 RES1   0.0000
    17 C17     84.4570   5.7288 -24.0851   C.3       1 RES1   0.0000
    18 O18     84.6230   7.1155 -24.0291   O.3       1 RES1   0.0000
    19 C19     85.2996   5.1813 -22.9421   C.2       1 RES1   0.0000
    20 C20     85.7435   3.8523 -22.9117   C.2       1 RES1   0.0000
    21 C21     86.5174   3.4120 -21.8584   C.2       1 RES1   0.0000
    22 C22     86.8883   4.2611 -20.8159   C.2       1 RES1   0.0000
    23 O23     87.6996   3.7950 -19.7296   O.3       1 RES1   0.0000
    24 C24     86.4551   5.5696 -20.8465   C.2       1 RES1   0.0000
    25 C25     85.6644   6.0220 -21.9164   C.2       1 RES1   0.0000
@<TRIPOS>BOND
     1     2     1    1
     2     2     3    1
     3     3     4    1
     4     4     5    1
     5     5     6    1
     6     6     7    1
     7     7     8    1
     8     8     9    1
     9     9    10    2
    10    10    11    1
    11    11    12    2
    12    12    13    1
    13    13    14    2
    14     7    15    1
    15    15    16    1
    16     2    17    1
    17    17    18    1
    18    17    19    1
    19    19    20    2
    20    20    21    1
    21    21    22    2
    22    22    23    1
    23    22    24    1
    24    24    25    2
    25    16     4    1
    26    25    19    1
    27    14     9    1
@<TRIPOS>SUBSTRUCTURE
     1 RES1        1 GROUP             0 ****  ****    0  
@<TRIPOS>MOLECULE
ligand_91
    25    27     1     0     0
SMALL
USER_CHARGES
****
Generated from the CSD

@<TRIPOS>ATOM
     1 C1      83.7391   4.4252 -37.3709   C.3       1 RES1   0.0000
     2 C2      83.5745   5.9175 -37.0093   C.3       1 RES1   0.0000
     3 C3      84.2630   6.1909 -35.6953   C.3       1 RES1   0.0000
     4 N4      83.7293   5.4542 -34.5549   N.3       1 RES1   1.0000
     5 C5      82.8781   6.3206 -33.6934   C.3       1 RES1   0.0000
     6 C6      82.2445   5.4966 -32.5896   C.3       1 RES1   0.0000
     7 C7      83.3522   4.8956 -31.7540   C.3       1 RES1   0.0000
     8 C8      82.7440   4.0560 -30.5850   C.3       1 RES1   0.0000
     9 C9      81.8897   2.9114 -31.1000   C.2       1 RES1   0.0000
    10 C10     80.5034   3.1143 -31.3409   C.2       1 RES1   0.0000
    11 C11     79.7114   2.0505 -31.8249   C.2       1 RES1   0.0000
    12 C12     80.2948   0.8170 -32.0491   C.2       1 RES1   0.0000
    13 C13     81.6770   0.6112 -31.7961   C.2       1 RES1   0.0000
    14 C14     82.4691   1.6750 -31.3232   C.2       1 RES1   0.0000
    15 C15     84.2556   4.0444 -32.5885   C.3       1 RES1   0.0000
    16 C16     84.8100   4.8309 -33.7529   C.3       1 RES1   0.0000
    17 C17     84.1118   6.8317 -38.0593   C.3       1 RES1   0.0000
    18 O18     83.6548   8.1344 -37.8414   O.3       1 RES1   0.0000
    19 C19     85.6278   6.9484 -38.1262   C.2       1 RES1   0.0000
    20 C20     86.3155   8.0517 -37.6026   C.2       1 RES1   0.0000
    21 C21     87.6919   8.0998 -37.6769   C.2       1 RES1   0.0000
    22 C22     88.4316   7.0665 -38.2517   C.2       1 RES1   0.0000
    23 O23     89.8628   7.1231 -38.3169   O.3       1 RES1   0.0000
    24 C24     87.7564   5.9791 -38.7640   C.2       1 RES1   0.0000
    25 C25     86.3540   5.9269 -38.6927   C.2       1 RES1   0.0000
@<TRIPOS>BOND
     1     2     1    1
     2     2     3    1
     3     3     4    1
     4     4     5    1
     5     5     6    1
     6     6     7    1
     7     7     8    1
     8     8     9    1
     9     9    10    2
    10    10    11    1
    11    11    12    2
    12    12    13    1
    13    13    14    2
    14     7    15    1
    15    15    16    1
    16     2    17    1
    17    17    18    1
    18    17    19    1
    19    19    20    2
    20    20    21    1
    21    21    22    2
    22    22    23    1
    23    22    24    1
    24    24    25    2
    25    16     4    1
    26    25    19    1
    27    14     9    1
@<TRIPOS>SUBSTRUCTURE
     1 RES1        1 GROUP             0 ****  ****    0  
@<TRIPOS>MOLECULE
ligand_92
    25    27     1     0     0
SMALL
USER_CHARGES
****
Generated from the CSD

@<TRIPOS>ATOM
     1 C1      86.2774   6.1104 -37.1565   C.3       1 RES1   0.0000
     2 C2      85.0109   5.3527 -36.7020   C.3       1 RES1   0.0000
     3 C3      84.2630   6.1909 -35.6953   C.3       1 RES1   0.0000
     4 N4      83.7293   5.4542 -34.5549   N.3       1 RES1   1.0000
     5 C5      82.8781   6.3206 -33.6934   C.3       1 RES1   0.0000
     6 C6      82.2445   5.4966 -32.5896   C.3       1 RES1   0.0000
     7 C7      83.3522   4.8956 -31.7540   C.3       1 RES1   0.0000
     8 C8      82.7440   4.0560 -30.5850   C.3       1 RES1   0.0000
     9 C9      81.8896   2.9115 -31.1000   C.2       1 RES1   0.0000
    10 C10     80.5034   3.1145 -31.3412   C.2       1 RES1   0.0000
    11 C11     79.7113   2.0508 -31.8251   C.2       1 RES1   0.0000
    12 C12     80.2945   0.8172 -32.0491   C.2       1 RES1   0.0000
    13 C13     81.6767   0.6112 -31.7959   C.2       1 RES1   0.0000
    14 C14     82.4689   1.6749 -31.3230   C.2       1 RES1   0.0000
    15 C15     84.2556   4.0444 -32.5885   C.3       1 RES1   0.0000
    16 C16     84.8100   4.8309 -33.7529   C.3       1 RES1   0.0000
    17 C17     84.1067   5.0013 -37.8359   C.3       1 RES1   0.0000
    18 O18     83.6981   6.1604 -38.5015   O.3       1 RES1   0.0000
    19 C19     84.7092   4.1144 -38.9161   C.2       1 RES1   0.0000
    20 C20     85.6455   4.5958 -39.8411   C.2       1 RES1   0.0000
    21 C21     86.1711   3.7447 -40.7906   C.2       1 RES1   0.0000
    22 C22     85.8063   2.3999 -40.8521   C.2       1 RES1   0.0000
    23 O23     86.3647   1.5219 -41.8385   O.3       1 RES1   0.0000
    24 C24     84.8880   1.9243 -39.9403   C.2       1 RES1   0.0000
    25 C25     84.3479   2.7884 -38.9728   C.2       1 RES1   0.0000
@<TRIPOS>BOND
     1     2     1    1
     2     2     3    1
     3     3     4    1
     4     4     5    1
     5     5     6    1
     6     6     7    1
     7     7     8    1
     8     8     9    1
     9     9    10    2
    10    10    11    1
    11    11    12    2
    12    12    13    1
    13    13    14    2
    14     7    15    1
    15    15    16    1
    16     2    17    1
    17    17    18    1
    18    17    19    1
    19    19    20    2
    20    20    21    1
    21    21    22    2
    22    22    23    1
    23    22    24    1
    24    24    25    2
    25    16     4    1
    26    25    19    1
    27    14     9    1
@<TRIPOS>SUBSTRUCTURE
     1 RES1        1 GROUP             0 ****  ****    0  
@<TRIPOS>MOLECULE
ligand_93
    25    27     1     0     0
SMALL
USER_CHARGES
****
Generated from the CSD

@<TRIPOS>ATOM
     1 C1      84.0618  10.3517 -35.4789   C.3       1 RES1   0.0000
     2 C2      83.3165   9.1581 -34.8429   C.3       1 RES1   0.0000
     3 C3      84.3177   8.2289 -34.2031   C.3       1 RES1   0.0000
     4 N4      83.7832   7.3833 -33.1414   N.3       1 RES1   1.0000
     5 C5      84.8706   6.7212 -32.3691   C.3       1 RES1   0.0000
     6 C6      84.2859   5.9493 -31.2023   C.3       1 RES1   0.0000
     7 C7      83.3522   4.8956 -31.7540   C.3       1 RES1   0.0000
     8 C8      82.7440   4.0560 -30.5850   C.3       1 RES1   0.0000
     9 C9      81.8930   2.9090 -31.1000   C.2       1 RES1   0.0000
    10 C10     80.5040   3.1050 -31.3310   C.2       1 RES1   0.0000
    11 C11     79.7150   2.0390 -31.8150   C.2       1 RES1   0.0000
    12 C12     80.3040   0.8100 -32.0490   C.2       1 RES1   0.0000
    13 C13     81.6890   0.6110 -31.8060   C.2       1 RES1   0.0000
    14 C14     82.4780   1.6770 -31.3330   C.2       1 RES1   0.0000
    15 C15     82.2620   5.5150 -32.5695   C.3       1 RES1   0.0000
    16 C16     82.8373   6.3718 -33.6725   C.3       1 RES1   0.0000
    17 C17     82.3024   9.5789 -33.8323   C.3       1 RES1   0.0000
    18 O18     82.9315  10.2057 -32.7529   O.3       1 RES1   0.0000
    19 C19     81.2565  10.5737 -34.3149   C.2       1 RES1   0.0000
    20 C20     81.5556  11.9259 -34.5306   C.2       1 RES1   0.0000
    21 C21     80.5730  12.7816 -34.9827   C.2       1 RES1   0.0000
    22 C22     79.2782  12.3362 -35.2484   C.2       1 RES1   0.0000
    23 O23     78.2663  13.2328 -35.7255   O.3       1 RES1   0.0000
    24 C24     78.9838  11.0055 -35.0399   C.2       1 RES1   0.0000
    25 C25     79.9810  10.1305 -34.5770   C.2       1 RES1   0.0000
@<TRIPOS>BOND
     1     2     1    1
     2     2     3    1
     3     3     4    1
     4     4     5    1
     5     5     6    1
     6     6     7    1
     7     7     8    1
     8     8     9    1
     9     9    10    2
    10    10    11    1
    11    11    12    2
    12    12    13    1
    13    13    14    2
    14     7    15    1
    15    15    16    1
    16     2    17    1
    17    17    18    1
    18    17    19    1
    19    19    20    2
    20    20    21    1
    21    21    22    2
    22    22    23    1
    23    22    24    1
    24    24    25    2
    25    16     4    1
    26    25    19    1
    27    14     9    1
@<TRIPOS>SUBSTRUCTURE
     1 RES1        1 GROUP             0 ****  ****    0  
@<TRIPOS>MOLECULE
ligand_94
    25    27     1     0     0
SMALL
USER_CHARGES
****
Generated from the CSD

@<TRIPOS>ATOM
     1 C1      82.4691   7.0476 -23.0814   C.3       1 RES1   0.0000
     2 C2      83.0161   6.7713 -24.4988   C.3       1 RES1   0.0000
     3 C3      82.3794   5.5168 -25.0430   C.3       1 RES1   0.0000
     4 N4      82.3675   5.4128 -26.4981   N.3       1 RES1   1.0000
     5 C5      81.4755   4.3141 -26.9610   C.3       1 RES1   0.0000
     6 C6      81.3929   4.3125 -28.4751   C.3       1 RES1   0.0000
     7 C7      82.7845   4.0907 -29.0234   C.3       1 RES1   0.0000
     8 C8      82.7440   4.0560 -30.5850   C.3       1 RES1   0.0000
     9 C9      81.8948   2.9077 -31.1000   C.2       1 RES1   0.0000
    10 C10     80.5071   3.1039 -31.3388   C.2       1 RES1   0.0000
    11 C11     79.7198   2.0366 -31.8228   C.2       1 RES1   0.0000
    12 C12     80.3090   0.8063 -32.0492   C.2       1 RES1   0.0000
    13 C13     81.6926   0.6072 -31.7984   C.2       1 RES1   0.0000
    14 C14     82.4800   1.6744 -31.3254   C.2       1 RES1   0.0000
    15 C15     83.7252   5.1540 -28.5526   C.3       1 RES1   0.0000
    16 C16     83.7347   5.2329 -27.0441   C.3       1 RES1   0.0000
    17 C17     82.7833   7.9041 -25.4418   C.3       1 RES1   0.0000
    18 O18     81.4127   8.0807 -25.6513   O.3       1 RES1   0.0000
    19 C19     83.2940   9.2636 -24.9863   C.2       1 RES1   0.0000
    20 C20     84.4443   9.8500 -25.5314   C.2       1 RES1   0.0000
    21 C21     84.8547  11.0913 -25.0923   C.2       1 RES1   0.0000
    22 C22     84.1453  11.7967 -24.1205   C.2       1 RES1   0.0000
    23 O23     84.5765  13.0901 -23.6767   O.3       1 RES1   0.0000
    24 C24     83.0116  11.2224 -23.5860   C.2       1 RES1   0.0000
    25 C25     82.5910   9.9567 -24.0285   C.2       1 RES1   0.0000
@<TRIPOS>BOND
     1     2     1    1
     2     2     3    1
     3     3     4    1
     4     4     5    1
     5     5     6    1
     6     6     7    1
     7     7     8    1
     8     8     9    1
     9     9    10    2
    10    10    11    1
    11    11    12    2
    12    12    13    1
    13    13    14    2
    14     7    15    1
    15    15    16    1
    16     2    17    1
    17    17    18    1
    18    17    19    1
    19    19    20    2
    20    20    21    1
    21    21    22    2
    22    22    23    1
    23    22    24    1
    24    24    25    2
    25    16     4    1
    26    25    19    1
    27    14     9    1
@<TRIPOS>SUBSTRUCTURE
     1 RES1        1 GROUP             0 ****  ****    0  
@<TRIPOS>MOLECULE
ligand_95
    25    27     1     0     0
SMALL
USER_CHARGES
****
Generated from the CSD

@<TRIPOS>ATOM
     1 C1      80.8747  10.5202 -29.6417   C.3       1 RES1   0.0000
     2 C2      79.8459   9.7406 -28.7941   C.3       1 RES1   0.0000
     3 C3      80.5620   8.6883 -27.9847   C.3       1 RES1   0.0000
     4 N4      81.2975   7.7022 -28.7689   N.3       1 RES1   1.0000
     5 C5      80.4075   6.9911 -29.7277   C.3       1 RES1   0.0000
     6 C6      81.2235   6.0637 -30.6070   C.3       1 RES1   0.0000
     7 C7      81.9092   5.0516 -29.7171   C.3       1 RES1   0.0000
     8 C8      82.7440   4.0560 -30.5850   C.3       1 RES1   0.0000
     9 C9      81.9441   2.8169 -30.9452   C.2       1 RES1   0.0000
    10 C10     80.5262   2.8860 -31.0218   C.2       1 RES1   0.0000
    11 C11     79.7840   1.7342 -31.3621   C.2       1 RES1   0.0000
    12 C12     80.4481   0.5464 -31.6072   C.2       1 RES1   0.0000
    13 C13     81.8637   0.4746 -31.5181   C.2       1 RES1   0.0000
    14 C14     82.6046   1.6258 -31.1887   C.2       1 RES1   0.0000
    15 C15     82.7878   5.7256 -28.7116   C.3       1 RES1   0.0000
    16 C16     82.0030   6.7291 -27.8999   C.3       1 RES1   0.0000
    17 C17     79.0546  10.6221 -27.8865   C.3       1 RES1   0.0000
    18 O18     79.9029  11.2611 -26.9778   O.3       1 RES1   0.0000
    19 C19     78.2775  11.7437 -28.5608   C.2       1 RES1   0.0000
    20 C20     78.7230  13.0724 -28.5493   C.2       1 RES1   0.0000
    21 C21     77.9870  14.0477 -29.1891   C.2       1 RES1   0.0000
    22 C22     76.8055  13.7481 -29.8671   C.2       1 RES1   0.0000
    23 O23     76.0520  14.7686 -30.5354   O.3       1 RES1   0.0000
    24 C24     76.3681  12.4408 -29.8820   C.2       1 RES1   0.0000
    25 C25     77.1134  11.4441 -29.2294   C.2       1 RES1   0.0000
@<TRIPOS>BOND
     1     2     1    1
     2     2     3    1
     3     3     4    1
     4     4     5    1
     5     5     6    1
     6     6     7    1
     7     7     8    1
     8     8     9    1
     9     9    10    2
    10    10    11    1
    11    11    12    2
    12    12    13    1
    13    13    14    2
    14     7    15    1
    15    15    16    1
    16     2    17    1
    17    17    18    1
    18    17    19    1
    19    19    20    2
    20    20    21    1
    21    21    22    2
    22    22    23    1
    23    22    24    1
    24    24    25    2
    25    16     4    1
    26    25    19    1
    27    14     9    1
@<TRIPOS>SUBSTRUCTURE
     1 RES1        1 GROUP             0 ****  ****    0  
@<TRIPOS>MOLECULE
ligand_96
    25    27     1     0     0
SMALL
USER_CHARGES
****
Generated from the CSD

@<TRIPOS>ATOM
     1 C1      86.3034   6.0836 -37.1183   C.3       1 RES1   0.0000
     2 C2      85.0080   5.3522 -36.7037   C.3       1 RES1   0.0000
     3 C3      84.2630   6.1909 -35.6953   C.3       1 RES1   0.0000
     4 N4      83.7293   5.4542 -34.5549   N.3       1 RES1   1.0000
     5 C5      82.8781   6.3206 -33.6934   C.3       1 RES1   0.0000
     6 C6      82.2445   5.4966 -32.5896   C.3       1 RES1   0.0000
     7 C7      83.3522   4.8956 -31.7540   C.3       1 RES1   0.0000
     8 C8      82.7440   4.0560 -30.5850   C.3       1 RES1   0.0000
     9 C9      81.8896   2.9115 -31.1000   C.2       1 RES1   0.0000
    10 C10     80.5033   3.1144 -31.3407   C.2       1 RES1   0.0000
    11 C11     79.7112   2.0507 -31.8247   C.2       1 RES1   0.0000
    12 C12     80.2945   0.8172 -32.0491   C.2       1 RES1   0.0000
    13 C13     81.6767   0.6114 -31.7963   C.2       1 RES1   0.0000
    14 C14     82.4689   1.6750 -31.3234   C.2       1 RES1   0.0000
    15 C15     84.2556   4.0444 -32.5885   C.3       1 RES1   0.0000
    16 C16     84.8100   4.8309 -33.7529   C.3       1 RES1   0.0000
    17 C17     84.1176   5.0475 -37.8617   C.3       1 RES1   0.0000
    18 O18     84.8054   4.2831 -38.8084   O.3       1 RES1   0.0000
    19 C19     82.8620   4.2488 -37.5424   C.2       1 RES1   0.0000
    20 C20     81.7107   4.8475 -37.0129   C.2       1 RES1   0.0000
    21 C21     80.5948   4.0789 -36.7558   C.2       1 RES1   0.0000
    22 C22     80.5703   2.7099 -37.0217   C.2       1 RES1   0.0000
    23 O23     79.4022   1.9215 -36.7577   O.3       1 RES1   0.0000
    24 C24     81.7011   2.1205 -37.5459   C.2       1 RES1   0.0000
    25 C25     82.8412   2.8992 -37.8071   C.2       1 RES1   0.0000
@<TRIPOS>BOND
     1     2     1    1
     2     2     3    1
     3     3     4    1
     4     4     5    1
     5     5     6    1
     6     6     7    1
     7     7     8    1
     8     8     9    1
     9     9    10    2
    10    10    11    1
    11    11    12    2
    12    12    13    1
    13    13    14    2
    14     7    15    1
    15    15    16    1
    16     2    17    1
    17    17    18    1
    18    17    19    1
    19    19    20    2
    20    20    21    1
    21    21    22    2
    22    22    23    1
    23    22    24    1
    24    24    25    2
    25    16     4    1
    26    25    19    1
    27    14     9    1
@<TRIPOS>SUBSTRUCTURE
     1 RES1        1 GROUP             0 ****  ****    0  
@<TRIPOS>MOLECULE
ligand_97
    25    27     1     0     0
SMALL
USER_CHARGES
****
Generated from the CSD

@<TRIPOS>ATOM
     1 C1      81.1868  11.1490 -33.7918   C.3       1 RES1   0.0000
     2 C2      81.6356  10.3550 -32.5456   C.3       1 RES1   0.0000
     3 C3      82.6100   9.2817 -32.9628   C.3       1 RES1   0.0000
     4 N4      82.6286   8.0999 -32.1078   N.3       1 RES1   1.0000
     5 C5      83.8814   7.3151 -32.2860   C.3       1 RES1   0.0000
     6 C6      83.9211   6.1651 -31.2986   C.3       1 RES1   0.0000
     7 C7      82.7302   5.2724 -31.5655   C.3       1 RES1   0.0000
     8 C8      82.7440   4.0560 -30.5850   C.3       1 RES1   0.0000
     9 C9      81.9822   2.8702 -31.1494   C.2       1 RES1   0.0000
    10 C10     80.5663   2.9270 -31.2644   C.2       1 RES1   0.0000
    11 C11     79.8598   1.8256 -31.7944   C.2       1 RES1   0.0000
    12 C12     80.5562   0.6972 -32.1866   C.2       1 RES1   0.0000
    13 C13     81.9694   0.6359 -32.0597   C.2       1 RES1   0.0000
    14 C14     82.6750   1.7383 -31.5406   C.2       1 RES1   0.0000
    15 C15     81.4477   6.0307 -31.4332   C.3       1 RES1   0.0000
    16 C16     81.4428   7.2396 -32.3388   C.3       1 RES1   0.0000
    17 C17     82.2559  11.2193 -31.4992   C.3       1 RES1   0.0000
    18 O18     82.5627  10.4583 -30.3676   O.3       1 RES1   0.0000
    19 C19     83.5614  11.8990 -31.8868   C.2       1 RES1   0.0000
    20 C20     84.8047  11.4463 -31.4248   C.2       1 RES1   0.0000
    21 C21     85.9585  12.0907 -31.8192   C.2       1 RES1   0.0000
    22 C22     85.9284  13.1841 -32.6847   C.2       1 RES1   0.0000
    23 O23     87.1346  13.8420 -33.0945   O.3       1 RES1   0.0000
    24 C24     84.7062  13.6281 -33.1426   C.2       1 RES1   0.0000
    25 C25     83.5277  12.9762 -32.7414   C.2       1 RES1   0.0000
@<TRIPOS>BOND
     1     2     1    1
     2     2     3    1
     3     3     4    1
     4     4     5    1
     5     5     6    1
     6     6     7    1
     7     7     8    1
     8     8     9    1
     9     9    10    2
    10    10    11    1
    11    11    12    2
    12    12    13    1
    13    13    14    2
    14     7    15    1
    15    15    16    1
    16     2    17    1
    17    17    18    1
    18    17    19    1
    19    19    20    2
    20    20    21    1
    21    21    22    2
    22    22    23    1
    23    22    24    1
    24    24    25    2
    25    16     4    1
    26    25    19    1
    27    14     9    1
@<TRIPOS>SUBSTRUCTURE
     1 RES1        1 GROUP             0 ****  ****    0  
@<TRIPOS>MOLECULE
ligand_98
    25    27     1     0     0
SMALL
USER_CHARGES
****
Generated from the CSD

@<TRIPOS>ATOM
     1 C1      78.7224   6.3262 -25.3478   C.3       1 RES1   0.0000
     2 C2      80.1713   6.8147 -25.1313   C.3       1 RES1   0.0000
     3 C3      80.6888   7.4227 -26.4111   C.3       1 RES1   0.0000
     4 N4      81.4190   6.5048 -27.2784   N.3       1 RES1   1.0000
     5 C5      81.9076   7.1864 -28.5089   C.3       1 RES1   0.0000
     6 C6      82.7623   6.2373 -29.3261   C.3       1 RES1   0.0000
     7 C7      81.9092   5.0516 -29.7171   C.3       1 RES1   0.0000
     8 C8      82.7440   4.0560 -30.5850   C.3       1 RES1   0.0000
     9 C9      81.8992   2.8947 -31.0777   C.2       1 RES1   0.0000
    10 C10     80.5147   3.0857 -31.3382   C.2       1 RES1   0.0000
    11 C11     79.7316   2.0062 -31.8014   C.2       1 RES1   0.0000
    12 C12     80.3216   0.7694 -31.9863   C.2       1 RES1   0.0000
    13 C13     81.7019   0.5758 -31.7137   C.2       1 RES1   0.0000
    14 C14     82.4852   1.6549 -31.2615   C.2       1 RES1   0.0000
    15 C15     81.3658   4.3568 -28.5091   C.3       1 RES1   0.0000
    16 C16     80.5996   5.3210 -27.6345   C.3       1 RES1   0.0000
    17 C17     80.2904   7.8032 -24.0198   C.3       1 RES1   0.0000
    18 O18     79.5326   8.9421 -24.3067   O.3       1 RES1   0.0000
    19 C19     79.8013   7.3334 -22.6573   C.2       1 RES1   0.0000
    20 C20     78.5636   7.7281 -22.1315   C.2       1 RES1   0.0000
    21 C21     78.1625   7.2605 -20.8975   C.2       1 RES1   0.0000
    22 C22     78.9532   6.3857 -20.1526   C.2       1 RES1   0.0000
    23 O23     78.5232   5.8996 -18.8741   O.3       1 RES1   0.0000
    24 C24     80.1694   5.9939 -20.6704   C.2       1 RES1   0.0000
    25 C25     80.5832   6.4697 -21.9262   C.2       1 RES1   0.0000
@<TRIPOS>BOND
     1     2     1    1
     2     2     3    1
     3     3     4    1
     4     4     5    1
     5     5     6    1
     6     6     7    1
     7     7     8    1
     8     8     9    1
     9     9    10    2
    10    10    11    1
    11    11    12    2
    12    12    13    1
    13    13    14    2
    14     7    15    1
    15    15    16    1
    16     2    17    1
    17    17    18    1
    18    17    19    1
    19    19    20    2
    20    20    21    1
    21    21    22    2
    22    22    23    1
    23    22    24    1
    24    24    25    2
    25    16     4    1
    26    25    19    1
    27    14     9    1
@<TRIPOS>SUBSTRUCTURE
     1 RES1        1 GROUP             0 ****  ****    0  
@<TRIPOS>MOLECULE
ligand_99
    25    27     1     0     0
SMALL
USER_CHARGES
****
Generated from the CSD

@<TRIPOS>ATOM
     1 C1      88.0629   8.5021 -34.8562   C.3       1 RES1   0.0000
     2 C2      87.5724   7.4812 -33.8064   C.3       1 RES1   0.0000
     3 C3      86.0868   7.2755 -33.9675   C.3       1 RES1   0.0000
     4 N4      85.4575   6.4794 -32.9195   N.3       1 RES1   1.0000
     5 C5      85.1786   5.0910 -33.3797   C.3       1 RES1   0.0000
     6 C6      84.6382   4.2600 -32.2323   C.3       1 RES1   0.0000
     7 C7      83.3522   4.8956 -31.7540   C.3       1 RES1   0.0000
     8 C8      82.7440   4.0560 -30.5850   C.3       1 RES1   0.0000
     9 C9      81.8930   2.9090 -31.1000   C.2       1 RES1   0.0000
    10 C10     80.5040   3.1050 -31.3310   C.2       1 RES1   0.0000
    11 C11     79.7150   2.0390 -31.8150   C.2       1 RES1   0.0000
    12 C12     80.3040   0.8100 -32.0490   C.2       1 RES1   0.0000
    13 C13     81.6890   0.6110 -31.8060   C.2       1 RES1   0.0000
    14 C14     82.4780   1.6770 -31.3330   C.2       1 RES1   0.0000
    15 C15     83.5793   6.3073 -31.3151   C.3       1 RES1   0.0000
    16 C16     84.2152   7.1174 -32.4201   C.3       1 RES1   0.0000
    17 C17     88.2758   6.1686 -33.9006   C.3       1 RES1   0.0000
    18 O18     88.0412   5.5864 -35.1495   O.3       1 RES1   0.0000
    19 C19     89.7908   6.2150 -33.7623   C.2       1 RES1   0.0000
    20 C20     90.6448   6.1260 -34.8700   C.2       1 RES1   0.0000
    21 C21     92.0106   6.1885 -34.6893   C.2       1 RES1   0.0000
    22 C22     92.5762   6.3529 -33.4250   C.2       1 RES1   0.0000
    23 O23     93.9973   6.4243 -33.2492   O.3       1 RES1   0.0000
    24 C24     91.7370   6.4441 -32.3349   C.2       1 RES1   0.0000
    25 C25     90.3448   6.3785 -32.5139   C.2       1 RES1   0.0000
@<TRIPOS>BOND
     1     2     1    1
     2     2     3    1
     3     3     4    1
     4     4     5    1
     5     5     6    1
     6     6     7    1
     7     7     8    1
     8     8     9    1
     9     9    10    2
    10    10    11    1
    11    11    12    2
    12    12    13    1
    13    13    14    2
    14     7    15    1
    15    15    16    1
    16     2    17    1
    17    17    18    1
    18    17    19    1
    19    19    20    2
    20    20    21    1
    21    21    22    2
    22    22    23    1
    23    22    24    1
    24    24    25    2
    25    16     4    1
    26    25    19    1
    27    14     9    1
@<TRIPOS>SUBSTRUCTURE
     1 RES1        1 GROUP             0 ****  ****    0  
