@<TRIPOS>MOLECULE
native
    26    29     1     0     0
SMALL
USER_CHARGES
****
Generated from the CSD

@<TRIPOS>ATOM
     1 C1      10.8300 -136.2400  12.2710   C.3       1 RES1   0.0000
     2 C2       9.7660 -137.1080  13.0500   C.3       1 RES1   0.0000
     3 C3       8.7770 -136.2280  13.6660   C.1       1 RES1   0.0000
     4 C4       7.9930 -135.5240  14.1530   C.1       1 RES1   0.0000
     5 C5       7.0450 -134.6720  14.7750   C.2       1 RES1   0.0000
     6 C6       6.4250 -133.6030  14.0510   C.2       1 RES1   0.0000
     7 C7       5.4850 -132.7380  14.6890   C.2       1 RES1   0.0000
     8 C8       5.1780 -132.9460  16.0740   C.2       1 RES1   0.0000
     9 C9       5.8070 -134.0380  16.8330   C.2       1 RES1   0.0000
    10 O10      5.5180 -134.2200  18.1850   O.3       1 RES1   0.0000
    11 C11      4.4150 -134.9860  18.7250   C.3       1 RES1   0.0000
    12 C12      4.5320 -134.8780  20.3140   C.3       1 RES1   0.0000
    13 C13      3.3310 -135.7100  20.9920   C.3       1 RES1   0.0000
    14 C14      1.9280 -135.1060  20.5140   C.3       1 RES1   0.0000
    15 C15      1.8170 -135.1870  18.9410   C.3       1 RES1   0.0000
    16 C16      1.9210 -136.7070  18.4580   C.3       1 RES1   0.0000
    17 C17      3.3000 -137.3360  18.9540   C.3       1 RES1   0.0000
    18 C18      3.4060 -137.2510  20.5500   C.3       1 RES1   0.0000
    19 C19      4.5020 -136.5400  18.3230   C.3       1 RES1   0.0000
    20 C20      2.9860 -134.3530  18.3300   C.3       1 RES1   0.0000
    21 C21      6.7380 -134.8920  16.1590   C.2       1 RES1   0.0000
    22 N22     10.3050 -137.8130  14.2520   N.am      1 RES1   1.0000
    23 O23     11.1340 -137.2350  14.9920   O.2       1 RES1   0.0000
    24 C24      9.9040 -139.1110  14.5950   C.2       1 RES1   0.0000
    25 N25     10.4240 -139.6730  15.7110   N.am      1 RES1   0.0000
    26 O26      9.0750 -139.7780  13.9180   O.2       1 RES1   0.0000
@<TRIPOS>BOND
     1     2     1    1
     2     2     3    1
     3     3     4    3
     4     4     5    1
     5     5     6    2
     6     6     7    1
     7     7     8    2
     8     8     9    1
     9     9    10    1
    10    11    10    1
    11    11    12    1
    12    13    12    1
    13    13    14    1
    14    15    14    1
    15    15    16    1
    16    17    16    1
    17    17    18    1
    18    17    19    1
    19    15    20    1
    20     9    21    2
    21     2    22    1
    22    22    23    2
    23    22    24   am
    24    24    25   am
    25    24    26    2
    26    21     5    1
    27    19    11    1
    28    20    11    1
    29    18    13    1
@<TRIPOS>SUBSTRUCTURE
     1 RES1        1 GROUP             0 ****  ****    0  
@<TRIPOS>MOLECULE
ligand_0
    26    29     1     0     0
SMALL
USER_CHARGES
****
Generated from the CSD

@<TRIPOS>ATOM
     1 C1      -7.0805 -10.1538  -1.4794   C.3       1 RES1   0.0000
     2 C2      -6.1686  -9.8143  -2.7227   C.3       1 RES1   0.0000
     3 C3      -5.1931  -8.7950  -2.3469   C.1       1 RES1   0.0000
     4 C4      -4.4182  -7.9822  -2.0531   C.1       1 RES1   0.0000
     5 C5      -3.4509  -7.0104  -1.6904   C.2       1 RES1   0.0000
     6 C6      -3.6253  -5.6305  -2.0322   C.2       1 RES1   0.0000
     7 C7      -2.6385  -4.6607  -1.6795   C.2       1 RES1   0.0000
     8 C8      -1.4587  -5.0899  -0.9870   C.2       1 RES1   0.0000
     9 C9      -1.2627  -6.5035  -0.6298   C.2       1 RES1   0.0000
    10 O10     -0.1027  -6.9150   0.0255   O.3       1 RES1   0.0000
    11 C11      0.0961  -6.9577   1.4518   C.3       1 RES1   0.0000
    12 C12     -0.0735  -5.5431   2.0434   C.3       1 RES1   0.0000
    13 C13      0.1420  -5.6186   3.5762   C.3       1 RES1   0.0000
    14 C14     -0.9001  -6.5524   4.2063   C.3       1 RES1   0.0000
    15 C15     -0.7199  -7.9497   3.6094   C.3       1 RES1   0.0000
    16 C16      0.6859  -8.4795   3.9180   C.3       1 RES1   0.0000
    17 C17      1.7119  -7.5291   3.2891   C.3       1 RES1   0.0000
    18 C18      1.5658  -6.1215   3.8832   C.3       1 RES1   0.0000
    19 C19      1.5171  -7.4754   1.7589   C.3       1 RES1   0.0000
    20 C20     -0.9456  -7.9040   2.0838   C.3       1 RES1   0.0000
    21 C21     -2.2771  -7.4474  -0.9909   C.2       1 RES1   0.0000
    22 N22     -6.8809  -9.1255  -3.8410   N.am      1 RES1   1.0000
    23 O23     -6.8375  -9.6078  -4.9962   O.2       1 RES1   0.0000
    24 C24     -7.6162  -7.9495  -3.6421   C.2       1 RES1   0.0000
    25 N25     -8.2360  -7.3885  -4.7064   N.am      1 RES1   0.0000
    26 O26     -7.7352  -7.3929  -2.5167   O.2       1 RES1   0.0000
@<TRIPOS>BOND
     1     2     1    1
     2     2     3    1
     3     3     4    3
     4     4     5    1
     5     5     6    2
     6     6     7    1
     7     7     8    2
     8     8     9    1
     9     9    10    1
    10    11    10    1
    11    11    12    1
    12    13    12    1
    13    13    14    1
    14    15    14    1
    15    15    16    1
    16    17    16    1
    17    17    18    1
    18    17    19    1
    19    15    20    1
    20     9    21    2
    21     2    22    1
    22    22    23    2
    23    22    24   am
    24    24    25   am
    25    24    26    2
    26    21     5    1
    27    19    11    1
    28    20    11    1
    29    18    13    1
@<TRIPOS>SUBSTRUCTURE
     1 RES1        1 GROUP             0 ****  ****    0  
@<TRIPOS>MOLECULE
ligand_1
    26    29     1     0     0
SMALL
USER_CHARGES
****
Generated from the CSD

@<TRIPOS>ATOM
     1 C1      -7.6277  -9.2451  -2.5236   C.3       1 RES1   0.0000
     2 C2      -6.1686  -9.8143  -2.7227   C.3       1 RES1   0.0000
     3 C3      -5.1931  -8.7950  -2.3469   C.1       1 RES1   0.0000
     4 C4      -4.4182  -7.9822  -2.0531   C.1       1 RES1   0.0000
     5 C5      -3.4509  -7.0104  -1.6904   C.2       1 RES1   0.0000
     6 C6      -3.6253  -5.6305  -2.0322   C.2       1 RES1   0.0000
     7 C7      -2.6385  -4.6607  -1.6795   C.2       1 RES1   0.0000
     8 C8      -1.4587  -5.0899  -0.9870   C.2       1 RES1   0.0000
     9 C9      -1.2627  -6.5035  -0.6298   C.2       1 RES1   0.0000
    10 O10     -0.1027  -6.9150   0.0255   O.3       1 RES1   0.0000
    11 C11      0.0961  -6.9577   1.4518   C.3       1 RES1   0.0000
    12 C12     -0.0735  -5.5431   2.0434   C.3       1 RES1   0.0000
    13 C13      0.1420  -5.6186   3.5762   C.3       1 RES1   0.0000
    14 C14     -0.9001  -6.5524   4.2063   C.3       1 RES1   0.0000
    15 C15     -0.7199  -7.9497   3.6094   C.3       1 RES1   0.0000
    16 C16      0.6859  -8.4795   3.9180   C.3       1 RES1   0.0000
    17 C17      1.7119  -7.5291   3.2891   C.3       1 RES1   0.0000
    18 C18      1.5658  -6.1215   3.8832   C.3       1 RES1   0.0000
    19 C19      1.5171  -7.4754   1.7589   C.3       1 RES1   0.0000
    20 C20     -0.9456  -7.9040   2.0838   C.3       1 RES1   0.0000
    21 C21     -2.2771  -7.4474  -0.9909   C.2       1 RES1   0.0000
    22 N22     -5.7896 -10.0570  -4.1474   N.am      1 RES1   1.0000
    23 O23     -5.3792 -11.1874  -4.4975   O.2       1 RES1   0.0000
    24 C24     -5.8882  -9.0570  -5.1239   C.2       1 RES1   0.0000
    25 N25     -5.5286  -9.3577  -6.3936   N.am      1 RES1   0.0000
    26 O26     -6.3039  -7.8920  -4.8782   O.2       1 RES1   0.0000
@<TRIPOS>BOND
     1     2     1    1
     2     2     3    1
     3     3     4    3
     4     4     5    1
     5     5     6    2
     6     6     7    1
     7     7     8    2
     8     8     9    1
     9     9    10    1
    10    11    10    1
    11    11    12    1
    12    13    12    1
    13    13    14    1
    14    15    14    1
    15    15    16    1
    16    17    16    1
    17    17    18    1
    18    17    19    1
    19    15    20    1
    20     9    21    2
    21     2    22    1
    22    22    23    2
    23    22    24   am
    24    24    25   am
    25    24    26    2
    26    21     5    1
    27    19    11    1
    28    20    11    1
    29    18    13    1
@<TRIPOS>SUBSTRUCTURE
     1 RES1        1 GROUP             0 ****  ****    0  
@<TRIPOS>MOLECULE
ligand_2
    26    29     1     0     0
SMALL
USER_CHARGES
****
Generated from the CSD

@<TRIPOS>ATOM
     1 C1      -7.0674  -9.2729  -3.9023   C.3       1 RES1   0.0000
     2 C2      -6.1686  -9.8143  -2.7227   C.3       1 RES1   0.0000
     3 C3      -5.1931  -8.7950  -2.3469   C.1       1 RES1   0.0000
     4 C4      -4.4182  -7.9822  -2.0531   C.1       1 RES1   0.0000
     5 C5      -3.4509  -7.0104  -1.6904   C.2       1 RES1   0.0000
     6 C6      -3.6253  -5.6305  -2.0322   C.2       1 RES1   0.0000
     7 C7      -2.6385  -4.6607  -1.6795   C.2       1 RES1   0.0000
     8 C8      -1.4587  -5.0899  -0.9870   C.2       1 RES1   0.0000
     9 C9      -1.2627  -6.5035  -0.6298   C.2       1 RES1   0.0000
    10 O10     -0.1027  -6.9150   0.0255   O.3       1 RES1   0.0000
    11 C11      0.0961  -6.9577   1.4518   C.3       1 RES1   0.0000
    12 C12     -0.0735  -5.5431   2.0434   C.3       1 RES1   0.0000
    13 C13      0.1420  -5.6186   3.5762   C.3       1 RES1   0.0000
    14 C14     -0.9001  -6.5524   4.2063   C.3       1 RES1   0.0000
    15 C15     -0.7199  -7.9497   3.6094   C.3       1 RES1   0.0000
    16 C16      0.6859  -8.4795   3.9180   C.3       1 RES1   0.0000
    17 C17      1.7119  -7.5291   3.2891   C.3       1 RES1   0.0000
    18 C18      1.5658  -6.1215   3.8832   C.3       1 RES1   0.0000
    19 C19      1.5171  -7.4754   1.7589   C.3       1 RES1   0.0000
    20 C20     -0.9456  -7.9040   2.0838   C.3       1 RES1   0.0000
    21 C21     -2.2771  -7.4474  -0.9909   C.2       1 RES1   0.0000
    22 N22     -5.2664 -10.9433  -3.1018   N.am      1 RES1   1.0000
    23 O23     -5.3036 -12.0138  -2.4526   O.2       1 RES1   0.0000
    24 C24     -4.3752 -10.8534  -4.1793   C.2       1 RES1   0.0000
    25 N25     -3.5939 -11.9220  -4.4609   N.am      1 RES1   0.0000
    26 O26     -4.2719  -9.8271  -4.9048   O.2       1 RES1   0.0000
@<TRIPOS>BOND
     1     2     1    1
     2     2     3    1
     3     3     4    3
     4     4     5    1
     5     5     6    2
     6     6     7    1
     7     7     8    2
     8     8     9    1
     9     9    10    1
    10    11    10    1
    11    11    12    1
    12    13    12    1
    13    13    14    1
    14    15    14    1
    15    15    16    1
    16    17    16    1
    17    17    18    1
    18    17    19    1
    19    15    20    1
    20     9    21    2
    21     2    22    1
    22    22    23    2
    23    22    24   am
    24    24    25   am
    25    24    26    2
    26    21     5    1
    27    19    11    1
    28    20    11    1
    29    18    13    1
@<TRIPOS>SUBSTRUCTURE
     1 RES1        1 GROUP             0 ****  ****    0  
@<TRIPOS>MOLECULE
ligand_3
    26    29     1     0     0
SMALL
USER_CHARGES
****
Generated from the CSD

@<TRIPOS>ATOM
     1 C1      -5.9600 -10.2095  -4.2368   C.3       1 RES1   0.0000
     2 C2      -6.1686  -9.8143  -2.7227   C.3       1 RES1   0.0000
     3 C3      -5.1931  -8.7950  -2.3469   C.1       1 RES1   0.0000
     4 C4      -4.4182  -7.9822  -2.0531   C.1       1 RES1   0.0000
     5 C5      -3.4509  -7.0104  -1.6904   C.2       1 RES1   0.0000
     6 C6      -3.6253  -5.6305  -2.0322   C.2       1 RES1   0.0000
     7 C7      -2.6385  -4.6607  -1.6795   C.2       1 RES1   0.0000
     8 C8      -1.4587  -5.0899  -0.9870   C.2       1 RES1   0.0000
     9 C9      -1.2627  -6.5035  -0.6298   C.2       1 RES1   0.0000
    10 O10     -0.1027  -6.9150   0.0255   O.3       1 RES1   0.0000
    11 C11      0.0961  -6.9577   1.4518   C.3       1 RES1   0.0000
    12 C12     -0.0735  -5.5431   2.0434   C.3       1 RES1   0.0000
    13 C13      0.1420  -5.6186   3.5762   C.3       1 RES1   0.0000
    14 C14     -0.9001  -6.5524   4.2063   C.3       1 RES1   0.0000
    15 C15     -0.7199  -7.9497   3.6094   C.3       1 RES1   0.0000
    16 C16      0.6859  -8.4795   3.9180   C.3       1 RES1   0.0000
    17 C17      1.7119  -7.5291   3.2891   C.3       1 RES1   0.0000
    18 C18      1.5658  -6.1215   3.8832   C.3       1 RES1   0.0000
    19 C19      1.5171  -7.4754   1.7589   C.3       1 RES1   0.0000
    20 C20     -0.9456  -7.9040   2.0838   C.3       1 RES1   0.0000
    21 C21     -2.2771  -7.4474  -0.9909   C.2       1 RES1   0.0000
    22 N22     -5.8344 -10.8980  -1.7499   N.am      1 RES1   1.0000
    23 O23     -6.6863 -11.2605  -0.9062   O.2       1 RES1   0.0000
    24 C24     -4.5902 -11.5423  -1.7528   C.2       1 RES1   0.0000
    25 N25     -4.3665 -12.5171  -0.8411   N.am      1 RES1   0.0000
    26 O26     -3.6711 -11.2630  -2.5700   O.2       1 RES1   0.0000
@<TRIPOS>BOND
     1     2     1    1
     2     2     3    1
     3     3     4    3
     4     4     5    1
     5     5     6    2
     6     6     7    1
     7     7     8    2
     8     8     9    1
     9     9    10    1
    10    11    10    1
    11    11    12    1
    12    13    12    1
    13    13    14    1
    14    15    14    1
    15    15    16    1
    16    17    16    1
    17    17    18    1
    18    17    19    1
    19    15    20    1
    20     9    21    2
    21     2    22    1
    22    22    23    2
    23    22    24   am
    24    24    25   am
    25    24    26    2
    26    21     5    1
    27    19    11    1
    28    20    11    1
    29    18    13    1
@<TRIPOS>SUBSTRUCTURE
     1 RES1        1 GROUP             0 ****  ****    0  
@<TRIPOS>MOLECULE
ligand_4
    26    29     1     0     0
SMALL
USER_CHARGES
****
Generated from the CSD

@<TRIPOS>ATOM
     1 C1      -5.4128 -11.1182  -3.1926   C.3       1 RES1   0.0000
     2 C2      -6.1686  -9.8143  -2.7227   C.3       1 RES1   0.0000
     3 C3      -5.1931  -8.7950  -2.3469   C.1       1 RES1   0.0000
     4 C4      -4.4182  -7.9822  -2.0531   C.1       1 RES1   0.0000
     5 C5      -3.4509  -7.0104  -1.6904   C.2       1 RES1   0.0000
     6 C6      -3.6253  -5.6305  -2.0322   C.2       1 RES1   0.0000
     7 C7      -2.6385  -4.6607  -1.6795   C.2       1 RES1   0.0000
     8 C8      -1.4587  -5.0899  -0.9870   C.2       1 RES1   0.0000
     9 C9      -1.2627  -6.5035  -0.6298   C.2       1 RES1   0.0000
    10 O10     -0.1027  -6.9150   0.0255   O.3       1 RES1   0.0000
    11 C11      0.0961  -6.9577   1.4518   C.3       1 RES1   0.0000
    12 C12     -0.0735  -5.5431   2.0434   C.3       1 RES1   0.0000
    13 C13      0.1420  -5.6186   3.5762   C.3       1 RES1   0.0000
    14 C14     -0.9001  -6.5524   4.2063   C.3       1 RES1   0.0000
    15 C15     -0.7199  -7.9497   3.6094   C.3       1 RES1   0.0000
    16 C16      0.6859  -8.4795   3.9180   C.3       1 RES1   0.0000
    17 C17      1.7119  -7.5291   3.2891   C.3       1 RES1   0.0000
    18 C18      1.5658  -6.1215   3.8832   C.3       1 RES1   0.0000
    19 C19      1.5171  -7.4754   1.7589   C.3       1 RES1   0.0000
    20 C20     -0.9456  -7.9040   2.0838   C.3       1 RES1   0.0000
    21 C21     -2.2771  -7.4474  -0.9909   C.2       1 RES1   0.0000
    22 N22     -6.9257  -9.9666  -1.4436   N.am      1 RES1   1.0000
    23 O23     -8.1446  -9.6809  -1.4048   O.2       1 RES1   0.0000
    24 C24     -6.3182 -10.4347  -0.2710   C.2       1 RES1   0.0000
    25 N25     -7.0739 -10.5480   0.8461   N.am      1 RES1   0.0000
    26 O26     -5.1023 -10.7638  -0.2085   O.2       1 RES1   0.0000
@<TRIPOS>BOND
     1     2     1    1
     2     2     3    1
     3     3     4    3
     4     4     5    1
     5     5     6    2
     6     6     7    1
     7     7     8    2
     8     8     9    1
     9     9    10    1
    10    11    10    1
    11    11    12    1
    12    13    12    1
    13    13    14    1
    14    15    14    1
    15    15    16    1
    16    17    16    1
    17    17    18    1
    18    17    19    1
    19    15    20    1
    20     9    21    2
    21     2    22    1
    22    22    23    2
    23    22    24   am
    24    24    25   am
    25    24    26    2
    26    21     5    1
    27    19    11    1
    28    20    11    1
    29    18    13    1
@<TRIPOS>SUBSTRUCTURE
     1 RES1        1 GROUP             0 ****  ****    0  
@<TRIPOS>MOLECULE
ligand_5
    26    29     1     0     0
SMALL
USER_CHARGES
****
Generated from the CSD

@<TRIPOS>ATOM
     1 C1      -5.9730 -11.0903  -1.8139   C.3       1 RES1   0.0000
     2 C2      -6.1686  -9.8143  -2.7227   C.3       1 RES1   0.0000
     3 C3      -5.1931  -8.7950  -2.3469   C.1       1 RES1   0.0000
     4 C4      -4.4182  -7.9822  -2.0531   C.1       1 RES1   0.0000
     5 C5      -3.4509  -7.0104  -1.6904   C.2       1 RES1   0.0000
     6 C6      -3.6253  -5.6305  -2.0322   C.2       1 RES1   0.0000
     7 C7      -2.6385  -4.6607  -1.6795   C.2       1 RES1   0.0000
     8 C8      -1.4587  -5.0899  -0.9870   C.2       1 RES1   0.0000
     9 C9      -1.2627  -6.5035  -0.6298   C.2       1 RES1   0.0000
    10 O10     -0.1027  -6.9150   0.0255   O.3       1 RES1   0.0000
    11 C11      0.0961  -6.9577   1.4518   C.3       1 RES1   0.0000
    12 C12     -0.0735  -5.5431   2.0434   C.3       1 RES1   0.0000
    13 C13      0.1420  -5.6186   3.5762   C.3       1 RES1   0.0000
    14 C14     -0.9001  -6.5524   4.2063   C.3       1 RES1   0.0000
    15 C15     -0.7199  -7.9497   3.6094   C.3       1 RES1   0.0000
    16 C16      0.6859  -8.4795   3.9180   C.3       1 RES1   0.0000
    17 C17      1.7119  -7.5291   3.2891   C.3       1 RES1   0.0000
    18 C18      1.5658  -6.1215   3.8832   C.3       1 RES1   0.0000
    19 C19      1.5171  -7.4754   1.7589   C.3       1 RES1   0.0000
    20 C20     -0.9456  -7.9040   2.0838   C.3       1 RES1   0.0000
    21 C21     -2.2771  -7.4474  -0.9909   C.2       1 RES1   0.0000
    22 N22     -7.4489  -9.0803  -2.4891   N.am      1 RES1   1.0000
    23 O23     -8.2202  -8.8545  -3.4498   O.2       1 RES1   0.0000
    24 C24     -7.8312  -8.6384  -1.2156   C.2       1 RES1   0.0000
    25 N25     -9.0086  -7.9836  -1.0866   N.am      1 RES1   0.0000
    26 O26     -7.1344  -8.8288  -0.1818   O.2       1 RES1   0.0000
@<TRIPOS>BOND
     1     2     1    1
     2     2     3    1
     3     3     4    3
     4     4     5    1
     5     5     6    2
     6     6     7    1
     7     7     8    2
     8     8     9    1
     9     9    10    1
    10    11    10    1
    11    11    12    1
    12    13    12    1
    13    13    14    1
    14    15    14    1
    15    15    16    1
    16    17    16    1
    17    17    18    1
    18    17    19    1
    19    15    20    1
    20     9    21    2
    21     2    22    1
    22    22    23    2
    23    22    24   am
    24    24    25   am
    25    24    26    2
    26    21     5    1
    27    19    11    1
    28    20    11    1
    29    18    13    1
@<TRIPOS>SUBSTRUCTURE
     1 RES1        1 GROUP             0 ****  ****    0  
@<TRIPOS>MOLECULE
ligand_6
    26    29     1     0     0
SMALL
USER_CHARGES
****
Generated from the CSD

@<TRIPOS>ATOM
     1 C1      -2.3694  -0.3966  -3.6914   C.3       1 RES1   0.0000
     2 C2      -3.1579  -0.7798  -2.3785   C.3       1 RES1   0.0000
     3 C3      -2.9898  -2.2049  -2.1083   C.1       1 RES1   0.0000
     4 C4      -2.8616  -3.3381  -1.8919   C.1       1 RES1   0.0000
     5 C5      -2.6836  -4.7162  -1.6078   C.2       1 RES1   0.0000
     6 C6      -3.6955  -5.6752  -1.9360   C.2       1 RES1   0.0000
     7 C7      -3.5169  -7.0585  -1.6304   C.2       1 RES1   0.0000
     8 C8      -2.3114  -7.4755  -0.9756   C.2       1 RES1   0.0000
     9 C9      -1.2627  -6.5035  -0.6298   C.2       1 RES1   0.0000
    10 O10     -0.1027  -6.9150   0.0255   O.3       1 RES1   0.0000
    11 C11      0.0961  -6.9577   1.4518   C.3       1 RES1   0.0000
    12 C12     -0.0735  -5.5431   2.0434   C.3       1 RES1   0.0000
    13 C13      0.1420  -5.6186   3.5762   C.3       1 RES1   0.0000
    14 C14     -0.9001  -6.5524   4.2063   C.3       1 RES1   0.0000
    15 C15     -0.7199  -7.9497   3.6094   C.3       1 RES1   0.0000
    16 C16      0.6859  -8.4795   3.9180   C.3       1 RES1   0.0000
    17 C17      1.7119  -7.5291   3.2891   C.3       1 RES1   0.0000
    18 C18      1.5658  -6.1215   3.8832   C.3       1 RES1   0.0000
    19 C19      1.5171  -7.4754   1.7589   C.3       1 RES1   0.0000
    20 C20     -0.9456  -7.9040   2.0838   C.3       1 RES1   0.0000
    21 C21     -1.4712  -5.1257  -0.9594   C.2       1 RES1   0.0000
    22 N22     -4.6441  -0.6887  -2.5019   N.am      1 RES1   1.0000
    23 O23     -5.2938   0.0087  -1.6892   O.2       1 RES1   0.0000
    24 C24     -5.3485  -1.3539  -3.5141   C.2       1 RES1   0.0000
    25 N25     -6.6943  -1.2175  -3.5600   N.am      1 RES1   0.0000
    26 O26     -4.7877  -2.0673  -4.3899   O.2       1 RES1   0.0000
@<TRIPOS>BOND
     1     2     1    1
     2     2     3    1
     3     3     4    3
     4     4     5    1
     5     5     6    2
     6     6     7    1
     7     7     8    2
     8     8     9    1
     9     9    10    1
    10    11    10    1
    11    11    12    1
    12    13    12    1
    13    13    14    1
    14    15    14    1
    15    15    16    1
    16    17    16    1
    17    17    18    1
    18    17    19    1
    19    15    20    1
    20     9    21    2
    21     2    22    1
    22    22    23    2
    23    22    24   am
    24    24    25   am
    25    24    26    2
    26    21     5    1
    27    19    11    1
    28    20    11    1
    29    18    13    1
@<TRIPOS>SUBSTRUCTURE
     1 RES1        1 GROUP             0 ****  ****    0  
@<TRIPOS>MOLECULE
ligand_7
    26    29     1     0     0
SMALL
USER_CHARGES
****
Generated from the CSD

@<TRIPOS>ATOM
     1 C1      -3.8423  -0.5886  -3.7882   C.3       1 RES1   0.0000
     2 C2      -3.1579  -0.7798  -2.3785   C.3       1 RES1   0.0000
     3 C3      -2.9898  -2.2049  -2.1083   C.1       1 RES1   0.0000
     4 C4      -2.8616  -3.3381  -1.8919   C.1       1 RES1   0.0000
     5 C5      -2.6836  -4.7162  -1.6078   C.2       1 RES1   0.0000
     6 C6      -3.6955  -5.6752  -1.9360   C.2       1 RES1   0.0000
     7 C7      -3.5169  -7.0585  -1.6304   C.2       1 RES1   0.0000
     8 C8      -2.3114  -7.4755  -0.9756   C.2       1 RES1   0.0000
     9 C9      -1.2627  -6.5035  -0.6298   C.2       1 RES1   0.0000
    10 O10     -0.1027  -6.9150   0.0255   O.3       1 RES1   0.0000
    11 C11      0.0961  -6.9577   1.4518   C.3       1 RES1   0.0000
    12 C12     -0.0735  -5.5431   2.0434   C.3       1 RES1   0.0000
    13 C13      0.1420  -5.6186   3.5762   C.3       1 RES1   0.0000
    14 C14     -0.9001  -6.5524   4.2063   C.3       1 RES1   0.0000
    15 C15     -0.7199  -7.9497   3.6094   C.3       1 RES1   0.0000
    16 C16      0.6859  -8.4795   3.9180   C.3       1 RES1   0.0000
    17 C17      1.7119  -7.5291   3.2891   C.3       1 RES1   0.0000
    18 C18      1.5658  -6.1215   3.8832   C.3       1 RES1   0.0000
    19 C19      1.5171  -7.4754   1.7589   C.3       1 RES1   0.0000
    20 C20     -0.9456  -7.9040   2.0838   C.3       1 RES1   0.0000
    21 C21     -1.4712  -5.1257  -0.9594   C.2       1 RES1   0.0000
    22 N22     -4.0070  -0.3703  -1.2193   N.am      1 RES1   1.0000
    23 O23     -3.5680   0.4587  -0.3893   O.2       1 RES1   0.0000
    24 C24     -5.2994  -0.8768  -1.0284   C.2       1 RES1   0.0000
    25 N25     -6.0063  -0.4529   0.0451   N.am      1 RES1   0.0000
    26 O26     -5.8391  -1.7029  -1.8138   O.2       1 RES1   0.0000
@<TRIPOS>BOND
     1     2     1    1
     2     2     3    1
     3     3     4    3
     4     4     5    1
     5     5     6    2
     6     6     7    1
     7     7     8    2
     8     8     9    1
     9     9    10    1
    10    11    10    1
    11    11    12    1
    12    13    12    1
    13    13    14    1
    14    15    14    1
    15    15    16    1
    16    17    16    1
    17    17    18    1
    18    17    19    1
    19    15    20    1
    20     9    21    2
    21     2    22    1
    22    22    23    2
    23    22    24   am
    24    24    25   am
    25    24    26    2
    26    21     5    1
    27    19    11    1
    28    20    11    1
    29    18    13    1
@<TRIPOS>SUBSTRUCTURE
     1 RES1        1 GROUP             0 ****  ****    0  
@<TRIPOS>MOLECULE
ligand_8
    26    29     1     0     0
SMALL
USER_CHARGES
****
Generated from the CSD

@<TRIPOS>ATOM
     1 C1      -4.6913  -0.4583  -2.5726   C.3       1 RES1   0.0000
     2 C2      -3.1579  -0.7798  -2.3785   C.3       1 RES1   0.0000
     3 C3      -2.9898  -2.2049  -2.1083   C.1       1 RES1   0.0000
     4 C4      -2.8616  -3.3381  -1.8919   C.1       1 RES1   0.0000
     5 C5      -2.6836  -4.7162  -1.6078   C.2       1 RES1   0.0000
     6 C6      -3.6955  -5.6752  -1.9360   C.2       1 RES1   0.0000
     7 C7      -3.5169  -7.0585  -1.6304   C.2       1 RES1   0.0000
     8 C8      -2.3114  -7.4755  -0.9756   C.2       1 RES1   0.0000
     9 C9      -1.2627  -6.5035  -0.6298   C.2       1 RES1   0.0000
    10 O10     -0.1027  -6.9150   0.0255   O.3       1 RES1   0.0000
    11 C11      0.0961  -6.9577   1.4518   C.3       1 RES1   0.0000
    12 C12     -0.0735  -5.5431   2.0434   C.3       1 RES1   0.0000
    13 C13      0.1420  -5.6186   3.5762   C.3       1 RES1   0.0000
    14 C14     -0.9001  -6.5524   4.2063   C.3       1 RES1   0.0000
    15 C15     -0.7199  -7.9497   3.6094   C.3       1 RES1   0.0000
    16 C16      0.6859  -8.4795   3.9180   C.3       1 RES1   0.0000
    17 C17      1.7119  -7.5291   3.2891   C.3       1 RES1   0.0000
    18 C18      1.5658  -6.1215   3.8832   C.3       1 RES1   0.0000
    19 C19      1.5171  -7.4754   1.7589   C.3       1 RES1   0.0000
    20 C20     -0.9456  -7.9040   2.0838   C.3       1 RES1   0.0000
    21 C21     -1.4712  -5.1257  -0.9594   C.2       1 RES1   0.0000
    22 N22     -2.5533  -0.1854  -1.1482   N.am      1 RES1   1.0000
    23 O23     -1.5343   0.5367  -1.2428   O.2       1 RES1   0.0000
    24 C24     -3.0975  -0.3984   0.1253   C.2       1 RES1   0.0000
    25 N25     -2.4927   0.1785   1.1898   N.am      1 RES1   0.0000
    26 O26     -4.1291  -1.0954   0.3265   O.2       1 RES1   0.0000
@<TRIPOS>BOND
     1     2     1    1
     2     2     3    1
     3     3     4    3
     4     4     5    1
     5     5     6    2
     6     6     7    1
     7     7     8    2
     8     8     9    1
     9     9    10    1
    10    11    10    1
    11    11    12    1
    12    13    12    1
    13    13    14    1
    14    15    14    1
    15    15    16    1
    16    17    16    1
    17    17    18    1
    18    17    19    1
    19    15    20    1
    20     9    21    2
    21     2    22    1
    22    22    23    2
    23    22    24   am
    24    24    25   am
    25    24    26    2
    26    21     5    1
    27    19    11    1
    28    20    11    1
    29    18    13    1
@<TRIPOS>SUBSTRUCTURE
     1 RES1        1 GROUP             0 ****  ****    0  
@<TRIPOS>MOLECULE
ligand_9
    26    29     1     0     0
SMALL
USER_CHARGES
****
Generated from the CSD

@<TRIPOS>ATOM
     1 C1      -4.0675  -0.1359  -1.2602   C.3       1 RES1   0.0000
     2 C2      -3.1579  -0.7798  -2.3785   C.3       1 RES1   0.0000
     3 C3      -2.9898  -2.2049  -2.1083   C.1       1 RES1   0.0000
     4 C4      -2.8616  -3.3381  -1.8919   C.1       1 RES1   0.0000
     5 C5      -2.6836  -4.7162  -1.6078   C.2       1 RES1   0.0000
     6 C6      -3.6955  -5.6752  -1.9360   C.2       1 RES1   0.0000
     7 C7      -3.5169  -7.0585  -1.6304   C.2       1 RES1   0.0000
     8 C8      -2.3114  -7.4755  -0.9756   C.2       1 RES1   0.0000
     9 C9      -1.2627  -6.5035  -0.6298   C.2       1 RES1   0.0000
    10 O10     -0.1027  -6.9150   0.0255   O.3       1 RES1   0.0000
    11 C11      0.0961  -6.9577   1.4518   C.3       1 RES1   0.0000
    12 C12     -0.0735  -5.5431   2.0434   C.3       1 RES1   0.0000
    13 C13      0.1420  -5.6186   3.5762   C.3       1 RES1   0.0000
    14 C14     -0.9001  -6.5524   4.2063   C.3       1 RES1   0.0000
    15 C15     -0.7199  -7.9497   3.6094   C.3       1 RES1   0.0000
    16 C16      0.6859  -8.4795   3.9180   C.3       1 RES1   0.0000
    17 C17      1.7119  -7.5291   3.2891   C.3       1 RES1   0.0000
    18 C18      1.5658  -6.1215   3.8832   C.3       1 RES1   0.0000
    19 C19      1.5171  -7.4754   1.7589   C.3       1 RES1   0.0000
    20 C20     -0.9456  -7.9040   2.0838   C.3       1 RES1   0.0000
    21 C21     -1.4712  -5.1257  -0.9594   C.2       1 RES1   0.0000
    22 N22     -1.7368  -0.3188  -2.3597   N.am      1 RES1   1.0000
    23 O23     -1.2264   0.1648  -3.3963   O.2       1 RES1   0.0000
    24 C24     -0.9447  -0.3971  -1.2066   C.2       1 RES1   0.0000
    25 N25      0.3328   0.0453  -1.2704   N.am      1 RES1   0.0000
    26 O26     -1.3677  -0.8524  -0.1092   O.2       1 RES1   0.0000
@<TRIPOS>BOND
     1     2     1    1
     2     2     3    1
     3     3     4    3
     4     4     5    1
     5     5     6    2
     6     6     7    1
     7     7     8    2
     8     8     9    1
     9     9    10    1
    10    11    10    1
    11    11    12    1
    12    13    12    1
    13    13    14    1
    14    15    14    1
    15    15    16    1
    16    17    16    1
    17    17    18    1
    18    17    19    1
    19    15    20    1
    20     9    21    2
    21     2    22    1
    22    22    23    2
    23    22    24   am
    24    24    25   am
    25    24    26    2
    26    21     5    1
    27    19    11    1
    28    20    11    1
    29    18    13    1
@<TRIPOS>SUBSTRUCTURE
     1 RES1        1 GROUP             0 ****  ****    0  
@<TRIPOS>MOLECULE
ligand_10
    26    29     1     0     0
SMALL
USER_CHARGES
****
Generated from the CSD

@<TRIPOS>ATOM
     1 C1      -2.5946   0.0561  -1.1634   C.3       1 RES1   0.0000
     2 C2      -3.1579  -0.7798  -2.3785   C.3       1 RES1   0.0000
     3 C3      -2.9898  -2.2049  -2.1083   C.1       1 RES1   0.0000
     4 C4      -2.8616  -3.3381  -1.8919   C.1       1 RES1   0.0000
     5 C5      -2.6836  -4.7162  -1.6078   C.2       1 RES1   0.0000
     6 C6      -3.6955  -5.6752  -1.9360   C.2       1 RES1   0.0000
     7 C7      -3.5169  -7.0585  -1.6304   C.2       1 RES1   0.0000
     8 C8      -2.3114  -7.4755  -0.9756   C.2       1 RES1   0.0000
     9 C9      -1.2627  -6.5035  -0.6298   C.2       1 RES1   0.0000
    10 O10     -0.1027  -6.9150   0.0255   O.3       1 RES1   0.0000
    11 C11      0.0961  -6.9577   1.4518   C.3       1 RES1   0.0000
    12 C12     -0.0735  -5.5431   2.0434   C.3       1 RES1   0.0000
    13 C13      0.1420  -5.6186   3.5762   C.3       1 RES1   0.0000
    14 C14     -0.9001  -6.5524   4.2063   C.3       1 RES1   0.0000
    15 C15     -0.7199  -7.9497   3.6094   C.3       1 RES1   0.0000
    16 C16      0.6859  -8.4795   3.9180   C.3       1 RES1   0.0000
    17 C17      1.7119  -7.5291   3.2891   C.3       1 RES1   0.0000
    18 C18      1.5658  -6.1215   3.8832   C.3       1 RES1   0.0000
    19 C19      1.5171  -7.4754   1.7589   C.3       1 RES1   0.0000
    20 C20     -0.9456  -7.9040   2.0838   C.3       1 RES1   0.0000
    21 C21     -1.4712  -5.1257  -0.9594   C.2       1 RES1   0.0000
    22 N22     -2.3739  -0.6371  -3.6423   N.am      1 RES1   1.0000
    23 O23     -2.9522  -0.2852  -4.6962   O.2       1 RES1   0.0000
    24 C24     -0.9938  -0.8741  -3.6922   C.2       1 RES1   0.0000
    25 N25     -0.3552  -0.7193  -4.8754   N.am      1 RES1   0.0000
    26 O26     -0.3163  -1.2168  -2.6853   O.2       1 RES1   0.0000
@<TRIPOS>BOND
     1     2     1    1
     2     2     3    1
     3     3     4    3
     4     4     5    1
     5     5     6    2
     6     6     7    1
     7     7     8    2
     8     8     9    1
     9     9    10    1
    10    11    10    1
    11    11    12    1
    12    13    12    1
    13    13    14    1
    14    15    14    1
    15    15    16    1
    16    17    16    1
    17    17    18    1
    18    17    19    1
    19    15    20    1
    20     9    21    2
    21     2    22    1
    22    22    23    2
    23    22    24   am
    24    24    25   am
    25    24    26    2
    26    21     5    1
    27    19    11    1
    28    20    11    1
    29    18    13    1
@<TRIPOS>SUBSTRUCTURE
     1 RES1        1 GROUP             0 ****  ****    0  
@<TRIPOS>MOLECULE
ligand_11
    26    29     1     0     0
SMALL
USER_CHARGES
****
Generated from the CSD

@<TRIPOS>ATOM
     1 C1      -1.7456  -0.0742  -2.3790   C.3       1 RES1   0.0000
     2 C2      -3.1579  -0.7798  -2.3785   C.3       1 RES1   0.0000
     3 C3      -2.9898  -2.2049  -2.1083   C.1       1 RES1   0.0000
     4 C4      -2.8616  -3.3381  -1.8919   C.1       1 RES1   0.0000
     5 C5      -2.6836  -4.7162  -1.6078   C.2       1 RES1   0.0000
     6 C6      -3.6955  -5.6752  -1.9360   C.2       1 RES1   0.0000
     7 C7      -3.5169  -7.0585  -1.6304   C.2       1 RES1   0.0000
     8 C8      -2.3114  -7.4755  -0.9756   C.2       1 RES1   0.0000
     9 C9      -1.2627  -6.5035  -0.6298   C.2       1 RES1   0.0000
    10 O10     -0.1027  -6.9150   0.0255   O.3       1 RES1   0.0000
    11 C11      0.0961  -6.9577   1.4518   C.3       1 RES1   0.0000
    12 C12     -0.0735  -5.5431   2.0434   C.3       1 RES1   0.0000
    13 C13      0.1420  -5.6186   3.5762   C.3       1 RES1   0.0000
    14 C14     -0.9001  -6.5524   4.2063   C.3       1 RES1   0.0000
    15 C15     -0.7199  -7.9497   3.6094   C.3       1 RES1   0.0000
    16 C16      0.6859  -8.4795   3.9180   C.3       1 RES1   0.0000
    17 C17      1.7119  -7.5291   3.2891   C.3       1 RES1   0.0000
    18 C18      1.5658  -6.1215   3.8832   C.3       1 RES1   0.0000
    19 C19      1.5171  -7.4754   1.7589   C.3       1 RES1   0.0000
    20 C20     -0.9456  -7.9040   2.0838   C.3       1 RES1   0.0000
    21 C21     -1.4712  -5.1257  -0.9594   C.2       1 RES1   0.0000
    22 N22     -3.8275  -0.8220  -3.7134   N.am      1 RES1   1.0000
    23 O23     -4.9859  -0.3632  -3.8427   O.2       1 RES1   0.0000
    24 C24     -3.1957  -1.3525  -4.8460   C.2       1 RES1   0.0000
    25 N25     -3.8687  -1.3507  -6.0202   N.am      1 RES1   0.0000
    26 O26     -2.0263  -1.8242  -4.8256   O.2       1 RES1   0.0000
@<TRIPOS>BOND
     1     2     1    1
     2     2     3    1
     3     3     4    3
     4     4     5    1
     5     5     6    2
     6     6     7    1
     7     7     8    2
     8     8     9    1
     9     9    10    1
    10    11    10    1
    11    11    12    1
    12    13    12    1
    13    13    14    1
    14    15    14    1
    15    15    16    1
    16    17    16    1
    17    17    18    1
    18    17    19    1
    19    15    20    1
    20     9    21    2
    21     2    22    1
    22    22    23    2
    23    22    24   am
    24    24    25   am
    25    24    26    2
    26    21     5    1
    27    19    11    1
    28    20    11    1
    29    18    13    1
@<TRIPOS>SUBSTRUCTURE
     1 RES1        1 GROUP             0 ****  ****    0  
@<TRIPOS>MOLECULE
ligand_12
    26    29     1     0     0
SMALL
USER_CHARGES
****
Generated from the CSD

@<TRIPOS>ATOM
     1 C1      -0.9259  -4.9047  -7.5061   C.3       1 RES1   0.0000
     2 C2       0.3020  -5.8288  -7.1446   C.3       1 RES1   0.0000
     3 C3       0.6132  -5.6914  -5.7247   C.1       1 RES1   0.0000
     4 C4       0.8662  -5.5822  -4.5971   C.1       1 RES1   0.0000
     5 C5       1.1601  -5.4740  -3.2138   C.2       1 RES1   0.0000
     6 C6       2.2386  -4.6540  -2.7493   C.2       1 RES1   0.0000
     7 C7       2.5400  -4.5643  -1.3565   C.2       1 RES1   0.0000
     8 C8       1.7537  -5.3195  -0.4253   C.2       1 RES1   0.0000
     9 C9       0.6435  -6.1680  -0.8854   C.2       1 RES1   0.0000
    10 O10     -0.1027  -6.9150   0.0255   O.3       1 RES1   0.0000
    11 C11      0.0945  -6.9558   1.4521   C.3       1 RES1   0.0000
    12 C12     -0.0811  -5.5413   2.0423   C.3       1 RES1   0.0000
    13 C13      0.1328  -5.6147   3.5754   C.3       1 RES1   0.0000
    14 C14     -0.9066  -6.5518   4.2050   C.3       1 RES1   0.0000
    15 C15     -0.7205  -7.9489   3.6095   C.3       1 RES1   0.0000
    16 C16      0.6870  -8.4732   3.9203   C.3       1 RES1   0.0000
    17 C17      1.7101  -7.5196   3.2919   C.3       1 RES1   0.0000
    18 C18      1.5580  -6.1120   3.8846   C.3       1 RES1   0.0000
    19 C19      1.5171  -7.4679   1.7613   C.3       1 RES1   0.0000
    20 C20     -0.9444  -7.9054   2.0836   C.3       1 RES1   0.0000
    21 C21      0.3634  -6.2271  -2.2884   C.2       1 RES1   0.0000
    22 N22      1.5959  -5.4053  -7.7601   N.am      1 RES1   1.0000
    23 O23      2.2536  -6.2201  -8.4474   O.2       1 RES1   0.0000
    24 C24      2.1038  -4.1086  -7.6054   C.2       1 RES1   0.0000
    25 N25      3.2814  -3.8022  -8.1980   N.am      1 RES1   0.0000
    26 O26      1.5120  -3.2103  -6.9472   O.2       1 RES1   0.0000
@<TRIPOS>BOND
     1     2     1    1
     2     2     3    1
     3     3     4    3
     4     4     5    1
     5     5     6    2
     6     6     7    1
     7     7     8    2
     8     8     9    1
     9     9    10    1
    10    11    10    1
    11    11    12    1
    12    13    12    1
    13    13    14    1
    14    15    14    1
    15    15    16    1
    16    17    16    1
    17    17    18    1
    18    17    19    1
    19    15    20    1
    20     9    21    2
    21     2    22    1
    22    22    23    2
    23    22    24   am
    24    24    25   am
    25    24    26    2
    26    21     5    1
    27    19    11    1
    28    20    11    1
    29    18    13    1
@<TRIPOS>SUBSTRUCTURE
     1 RES1        1 GROUP             0 ****  ****    0  
@<TRIPOS>MOLECULE
ligand_13
    26    29     1     0     0
SMALL
USER_CHARGES
****
Generated from the CSD

@<TRIPOS>ATOM
     1 C1       0.4398  -4.4241  -7.8519   C.3       1 RES1   0.0000
     2 C2       0.3020  -5.8288  -7.1446   C.3       1 RES1   0.0000
     3 C3       0.6132  -5.6914  -5.7247   C.1       1 RES1   0.0000
     4 C4       0.8662  -5.5822  -4.5971   C.1       1 RES1   0.0000
     5 C5       1.1601  -5.4740  -3.2138   C.2       1 RES1   0.0000
     6 C6       2.2386  -4.6540  -2.7493   C.2       1 RES1   0.0000
     7 C7       2.5400  -4.5643  -1.3565   C.2       1 RES1   0.0000
     8 C8       1.7537  -5.3195  -0.4253   C.2       1 RES1   0.0000
     9 C9       0.6435  -6.1680  -0.8854   C.2       1 RES1   0.0000
    10 O10     -0.1027  -6.9150   0.0255   O.3       1 RES1   0.0000
    11 C11      0.0945  -6.9558   1.4521   C.3       1 RES1   0.0000
    12 C12     -0.0811  -5.5413   2.0423   C.3       1 RES1   0.0000
    13 C13      0.1328  -5.6147   3.5754   C.3       1 RES1   0.0000
    14 C14     -0.9066  -6.5518   4.2050   C.3       1 RES1   0.0000
    15 C15     -0.7205  -7.9489   3.6095   C.3       1 RES1   0.0000
    16 C16      0.6870  -8.4732   3.9203   C.3       1 RES1   0.0000
    17 C17      1.7101  -7.5196   3.2919   C.3       1 RES1   0.0000
    18 C18      1.5580  -6.1120   3.8846   C.3       1 RES1   0.0000
    19 C19      1.5171  -7.4679   1.7613   C.3       1 RES1   0.0000
    20 C20     -0.9444  -7.9054   2.0836   C.3       1 RES1   0.0000
    21 C21      0.3634  -6.2271  -2.2884   C.2       1 RES1   0.0000
    22 N22      1.3257  -6.8337  -7.5626   N.am      1 RES1   1.0000
    23 O23      0.9598  -7.9503  -7.9964   O.2       1 RES1   0.0000
    24 C24      2.6997  -6.5666  -7.4981   C.2       1 RES1   0.0000
    25 N25      3.5632  -7.5285  -7.8990   N.am      1 RES1   0.0000
    26 O26      3.1704  -5.4694  -7.0920   O.2       1 RES1   0.0000
@<TRIPOS>BOND
     1     2     1    1
     2     2     3    1
     3     3     4    3
     4     4     5    1
     5     5     6    2
     6     6     7    1
     7     7     8    2
     8     8     9    1
     9     9    10    1
    10    11    10    1
    11    11    12    1
    12    13    12    1
    13    13    14    1
    14    15    14    1
    15    15    16    1
    16    17    16    1
    17    17    18    1
    18    17    19    1
    19    15    20    1
    20     9    21    2
    21     2    22    1
    22    22    23    2
    23    22    24   am
    24    24    25   am
    25    24    26    2
    26    21     5    1
    27    19    11    1
    28    20    11    1
    29    18    13    1
@<TRIPOS>SUBSTRUCTURE
     1 RES1        1 GROUP             0 ****  ****    0  
@<TRIPOS>MOLECULE
ligand_14
    26    29     1     0     0
SMALL
USER_CHARGES
****
Generated from the CSD

@<TRIPOS>ATOM
     1 C1       1.5555  -5.3978  -8.0022   C.3       1 RES1   0.0000
     2 C2       0.3020  -5.8288  -7.1446   C.3       1 RES1   0.0000
     3 C3       0.6132  -5.6914  -5.7247   C.1       1 RES1   0.0000
     4 C4       0.8662  -5.5822  -4.5971   C.1       1 RES1   0.0000
     5 C5       1.1601  -5.4740  -3.2138   C.2       1 RES1   0.0000
     6 C6       2.2386  -4.6540  -2.7493   C.2       1 RES1   0.0000
     7 C7       2.5400  -4.5643  -1.3565   C.2       1 RES1   0.0000
     8 C8       1.7537  -5.3195  -0.4253   C.2       1 RES1   0.0000
     9 C9       0.6435  -6.1680  -0.8854   C.2       1 RES1   0.0000
    10 O10     -0.1027  -6.9150   0.0255   O.3       1 RES1   0.0000
    11 C11      0.0945  -6.9558   1.4521   C.3       1 RES1   0.0000
    12 C12     -0.0811  -5.5413   2.0423   C.3       1 RES1   0.0000
    13 C13      0.1328  -5.6147   3.5754   C.3       1 RES1   0.0000
    14 C14     -0.9066  -6.5518   4.2050   C.3       1 RES1   0.0000
    15 C15     -0.7205  -7.9489   3.6095   C.3       1 RES1   0.0000
    16 C16      0.6870  -8.4732   3.9203   C.3       1 RES1   0.0000
    17 C17      1.7101  -7.5196   3.2919   C.3       1 RES1   0.0000
    18 C18      1.5580  -6.1120   3.8846   C.3       1 RES1   0.0000
    19 C19      1.5171  -7.4679   1.7613   C.3       1 RES1   0.0000
    20 C20     -0.9444  -7.9054   2.0836   C.3       1 RES1   0.0000
    21 C21      0.3634  -6.2271  -2.2884   C.2       1 RES1   0.0000
    22 N22     -0.0285  -7.2839  -7.2222   N.am      1 RES1   1.0000
    23 O23     -1.1809  -7.6426  -7.5569   O.2       1 RES1   0.0000
    24 C24      0.9187  -8.2776  -6.9421   C.2       1 RES1   0.0000
    25 N25      0.5415  -9.5738  -7.0387   N.am      1 RES1   0.0000
    26 O26      2.1089  -8.0223  -6.6122   O.2       1 RES1   0.0000
@<TRIPOS>BOND
     1     2     1    1
     2     2     3    1
     3     3     4    3
     4     4     5    1
     5     5     6    2
     6     6     7    1
     7     7     8    2
     8     8     9    1
     9     9    10    1
    10    11    10    1
    11    11    12    1
    12    13    12    1
    13    13    14    1
    14    15    14    1
    15    15    16    1
    16    17    16    1
    17    17    18    1
    18    17    19    1
    19    15    20    1
    20     9    21    2
    21     2    22    1
    22    22    23    2
    23    22    24   am
    24    24    25   am
    25    24    26    2
    26    21     5    1
    27    19    11    1
    28    20    11    1
    29    18    13    1
@<TRIPOS>SUBSTRUCTURE
     1 RES1        1 GROUP             0 ****  ****    0  
@<TRIPOS>MOLECULE
ligand_15
    26    29     1     0     0
SMALL
USER_CHARGES
****
Generated from the CSD

@<TRIPOS>ATOM
     1 C1       1.3056  -6.8521  -7.8066   C.3       1 RES1   0.0000
     2 C2       0.3020  -5.8288  -7.1446   C.3       1 RES1   0.0000
     3 C3       0.6132  -5.6914  -5.7247   C.1       1 RES1   0.0000
     4 C4       0.8662  -5.5822  -4.5971   C.1       1 RES1   0.0000
     5 C5       1.1601  -5.4740  -3.2138   C.2       1 RES1   0.0000
     6 C6       2.2386  -4.6540  -2.7493   C.2       1 RES1   0.0000
     7 C7       2.5400  -4.5643  -1.3565   C.2       1 RES1   0.0000
     8 C8       1.7537  -5.3195  -0.4253   C.2       1 RES1   0.0000
     9 C9       0.6435  -6.1680  -0.8854   C.2       1 RES1   0.0000
    10 O10     -0.1027  -6.9150   0.0255   O.3       1 RES1   0.0000
    11 C11      0.0945  -6.9558   1.4521   C.3       1 RES1   0.0000
    12 C12     -0.0811  -5.5413   2.0423   C.3       1 RES1   0.0000
    13 C13      0.1328  -5.6147   3.5754   C.3       1 RES1   0.0000
    14 C14     -0.9066  -6.5518   4.2050   C.3       1 RES1   0.0000
    15 C15     -0.7205  -7.9489   3.6095   C.3       1 RES1   0.0000
    16 C16      0.6870  -8.4732   3.9203   C.3       1 RES1   0.0000
    17 C17      1.7101  -7.5196   3.2919   C.3       1 RES1   0.0000
    18 C18      1.5580  -6.1120   3.8846   C.3       1 RES1   0.0000
    19 C19      1.5171  -7.4679   1.7613   C.3       1 RES1   0.0000
    20 C20     -0.9444  -7.9054   2.0836   C.3       1 RES1   0.0000
    21 C21      0.3634  -6.2271  -2.2884   C.2       1 RES1   0.0000
    22 N22     -1.1125  -6.3057  -7.0793   N.am      1 RES1   1.0000
    23 O23     -2.0280  -5.6047  -7.5686   O.2       1 RES1   0.0000
    24 C24     -1.4581  -7.5306  -6.4935   C.2       1 RES1   0.0000
    25 N25     -2.7620  -7.8928  -6.4774   N.am      1 RES1   0.0000
    26 O26     -0.6111  -8.3162  -5.9876   O.2       1 RES1   0.0000
@<TRIPOS>BOND
     1     2     1    1
     2     2     3    1
     3     3     4    3
     4     4     5    1
     5     5     6    2
     6     6     7    1
     7     7     8    2
     8     8     9    1
     9     9    10    1
    10    11    10    1
    11    11    12    1
    12    13    12    1
    13    13    14    1
    14    15    14    1
    15    15    16    1
    16    17    16    1
    17    17    18    1
    18    17    19    1
    19    15    20    1
    20     9    21    2
    21     2    22    1
    22    22    23    2
    23    22    24   am
    24    24    25   am
    25    24    26    2
    26    21     5    1
    27    19    11    1
    28    20    11    1
    29    18    13    1
@<TRIPOS>SUBSTRUCTURE
     1 RES1        1 GROUP             0 ****  ****    0  
@<TRIPOS>MOLECULE
ligand_16
    26    29     1     0     0
SMALL
USER_CHARGES
****
Generated from the CSD

@<TRIPOS>ATOM
     1 C1      -0.0601  -7.3326  -7.4608   C.3       1 RES1   0.0000
     2 C2       0.3020  -5.8288  -7.1446   C.3       1 RES1   0.0000
     3 C3       0.6132  -5.6914  -5.7247   C.1       1 RES1   0.0000
     4 C4       0.8662  -5.5822  -4.5971   C.1       1 RES1   0.0000
     5 C5       1.1601  -5.4740  -3.2138   C.2       1 RES1   0.0000
     6 C6       2.2386  -4.6540  -2.7493   C.2       1 RES1   0.0000
     7 C7       2.5400  -4.5643  -1.3565   C.2       1 RES1   0.0000
     8 C8       1.7537  -5.3195  -0.4253   C.2       1 RES1   0.0000
     9 C9       0.6435  -6.1680  -0.8854   C.2       1 RES1   0.0000
    10 O10     -0.1027  -6.9150   0.0255   O.3       1 RES1   0.0000
    11 C11      0.0945  -6.9558   1.4521   C.3       1 RES1   0.0000
    12 C12     -0.0811  -5.5413   2.0423   C.3       1 RES1   0.0000
    13 C13      0.1328  -5.6147   3.5754   C.3       1 RES1   0.0000
    14 C14     -0.9066  -6.5518   4.2050   C.3       1 RES1   0.0000
    15 C15     -0.7205  -7.9489   3.6095   C.3       1 RES1   0.0000
    16 C16      0.6870  -8.4732   3.9203   C.3       1 RES1   0.0000
    17 C17      1.7101  -7.5196   3.2919   C.3       1 RES1   0.0000
    18 C18      1.5580  -6.1120   3.8846   C.3       1 RES1   0.0000
    19 C19      1.5171  -7.4679   1.7613   C.3       1 RES1   0.0000
    20 C20     -0.9444  -7.9054   2.0836   C.3       1 RES1   0.0000
    21 C21      0.3634  -6.2271  -2.2884   C.2       1 RES1   0.0000
    22 N22     -0.8423  -4.8773  -7.2768   N.am      1 RES1   1.0000
    23 O23     -0.7343  -3.8745  -8.0196   O.2       1 RES1   0.0000
    24 C24     -2.0539  -5.0726  -6.6008   C.2       1 RES1   0.0000
    25 N25     -3.0438  -4.1665  -6.7763   N.am      1 RES1   0.0000
    26 O26     -2.2695  -6.0572  -5.8428   O.2       1 RES1   0.0000
@<TRIPOS>BOND
     1     2     1    1
     2     2     3    1
     3     3     4    3
     4     4     5    1
     5     5     6    2
     6     6     7    1
     7     7     8    2
     8     8     9    1
     9     9    10    1
    10    11    10    1
    11    11    12    1
    12    13    12    1
    13    13    14    1
    14    15    14    1
    15    15    16    1
    16    17    16    1
    17    17    18    1
    18    17    19    1
    19    15    20    1
    20     9    21    2
    21     2    22    1
    22    22    23    2
    23    22    24   am
    24    24    25   am
    25    24    26    2
    26    21     5    1
    27    19    11    1
    28    20    11    1
    29    18    13    1
@<TRIPOS>SUBSTRUCTURE
     1 RES1        1 GROUP             0 ****  ****    0  
@<TRIPOS>MOLECULE
ligand_17
    26    29     1     0     0
SMALL
USER_CHARGES
****
Generated from the CSD

@<TRIPOS>ATOM
     1 C1      -1.1758  -6.3589  -7.3105   C.3       1 RES1   0.0000
     2 C2       0.3020  -5.8288  -7.1446   C.3       1 RES1   0.0000
     3 C3       0.6132  -5.6914  -5.7247   C.1       1 RES1   0.0000
     4 C4       0.8662  -5.5822  -4.5971   C.1       1 RES1   0.0000
     5 C5       1.1601  -5.4740  -3.2138   C.2       1 RES1   0.0000
     6 C6       2.2386  -4.6540  -2.7493   C.2       1 RES1   0.0000
     7 C7       2.5400  -4.5643  -1.3565   C.2       1 RES1   0.0000
     8 C8       1.7537  -5.3195  -0.4253   C.2       1 RES1   0.0000
     9 C9       0.6435  -6.1680  -0.8854   C.2       1 RES1   0.0000
    10 O10     -0.1027  -6.9150   0.0255   O.3       1 RES1   0.0000
    11 C11      0.0945  -6.9558   1.4521   C.3       1 RES1   0.0000
    12 C12     -0.0811  -5.5413   2.0423   C.3       1 RES1   0.0000
    13 C13      0.1328  -5.6147   3.5754   C.3       1 RES1   0.0000
    14 C14     -0.9066  -6.5518   4.2050   C.3       1 RES1   0.0000
    15 C15     -0.7205  -7.9489   3.6095   C.3       1 RES1   0.0000
    16 C16      0.6870  -8.4732   3.9203   C.3       1 RES1   0.0000
    17 C17      1.7101  -7.5196   3.2919   C.3       1 RES1   0.0000
    18 C18      1.5580  -6.1120   3.8846   C.3       1 RES1   0.0000
    19 C19      1.5171  -7.4679   1.7613   C.3       1 RES1   0.0000
    20 C20     -0.9444  -7.9054   2.0836   C.3       1 RES1   0.0000
    21 C21      0.3634  -6.2271  -2.2884   C.2       1 RES1   0.0000
    22 N22      0.5119  -4.4271  -7.6172   N.am      1 RES1   1.0000
    23 O23      1.4065  -4.1822  -8.4590   O.2       1 RES1   0.0000
    24 C24     -0.2730  -3.3616  -7.1568   C.2       1 RES1   0.0000
    25 N25     -0.0221  -2.1212  -7.6366   N.am      1 RES1   0.0000
    26 O26     -1.2080  -3.5042  -6.3226   O.2       1 RES1   0.0000
@<TRIPOS>BOND
     1     2     1    1
     2     2     3    1
     3     3     4    3
     4     4     5    1
     5     5     6    2
     6     6     7    1
     7     7     8    2
     8     8     9    1
     9     9    10    1
    10    11    10    1
    11    11    12    1
    12    13    12    1
    13    13    14    1
    14    15    14    1
    15    15    16    1
    16    17    16    1
    17    17    18    1
    18    17    19    1
    19    15    20    1
    20     9    21    2
    21     2    22    1
    22    22    23    2
    23    22    24   am
    24    24    25   am
    25    24    26    2
    26    21     5    1
    27    19    11    1
    28    20    11    1
    29    18    13    1
@<TRIPOS>SUBSTRUCTURE
     1 RES1        1 GROUP             0 ****  ****    0  
@<TRIPOS>MOLECULE
ligand_18
    26    29     1     0     0
SMALL
USER_CHARGES
****
Generated from the CSD

@<TRIPOS>ATOM
     1 C1       6.6668  -2.9725   0.2982   C.3       1 RES1   0.0000
     2 C2       5.3596  -2.1278   0.0337   C.3       1 RES1   0.0000
     3 C3       4.3128  -3.0016  -0.4883   C.1       1 RES1   0.0000
     4 C4       3.4790  -3.6923  -0.9068   C.1       1 RES1   0.0000
     5 C5       2.4484  -4.5380  -1.3908   C.2       1 RES1   0.0000
     6 C6       2.1329  -4.5941  -2.7868   C.2       1 RES1   0.0000
     7 C7       1.0819  -5.4343  -3.2645   C.2       1 RES1   0.0000
     8 C8       0.3339  -6.2151  -2.3228   C.2       1 RES1   0.0000
     9 C9       0.6435  -6.1680  -0.8854   C.2       1 RES1   0.0000
    10 O10     -0.1027  -6.9150   0.0255   O.3       1 RES1   0.0000
    11 C11      0.0978  -6.9598   1.4515   C.3       1 RES1   0.0000
    12 C12     -0.0806  -5.5477   2.0466   C.3       1 RES1   0.0000
    13 C13      0.1369  -5.6254   3.5790   C.3       1 RES1   0.0000
    14 C14     -0.8984  -6.5675   4.2079   C.3       1 RES1   0.0000
    15 C15     -0.7095  -7.9622   3.6075   C.3       1 RES1   0.0000
    16 C16      0.7001  -8.4833   3.9135   C.3       1 RES1   0.0000
    17 C17      1.7191  -7.5247   3.2859   C.3       1 RES1   0.0000
    18 C18      1.5642  -6.1195   3.8835   C.3       1 RES1   0.0000
    19 C19      1.5225  -7.4687   1.7560   C.3       1 RES1   0.0000
    20 C20     -0.9370  -7.9144   2.0823   C.3       1 RES1   0.0000
    21 C21      1.7102  -5.3215  -0.4426   C.2       1 RES1   0.0000
    22 N22      5.4798  -1.1357  -1.0771   N.am      1 RES1   1.0000
    23 O23      5.2120   0.0695  -0.8658   O.2       1 RES1   0.0000
    24 C24      5.8980  -1.5052  -2.3623   C.2       1 RES1   0.0000
    25 N25      5.9848  -0.5458  -3.3130   N.am      1 RES1   0.0000
    26 O26      6.2057  -2.6879  -2.6738   O.2       1 RES1   0.0000
@<TRIPOS>BOND
     1     2     1    1
     2     2     3    1
     3     3     4    3
     4     4     5    1
     5     5     6    2
     6     6     7    1
     7     7     8    2
     8     8     9    1
     9     9    10    1
    10    11    10    1
    11    11    12    1
    12    13    12    1
    13    13    14    1
    14    15    14    1
    15    15    16    1
    16    17    16    1
    17    17    18    1
    18    17    19    1
    19    15    20    1
    20     9    21    2
    21     2    22    1
    22    22    23    2
    23    22    24   am
    24    24    25   am
    25    24    26    2
    26    21     5    1
    27    19    11    1
    28    20    11    1
    29    18    13    1
@<TRIPOS>SUBSTRUCTURE
     1 RES1        1 GROUP             0 ****  ****    0  
@<TRIPOS>MOLECULE
ligand_19
    26    29     1     0     0
SMALL
USER_CHARGES
****
Generated from the CSD

@<TRIPOS>ATOM
     1 C1       6.6005  -2.1522  -0.9420   C.3       1 RES1   0.0000
     2 C2       5.3596  -2.1278   0.0337   C.3       1 RES1   0.0000
     3 C3       4.3128  -3.0016  -0.4883   C.1       1 RES1   0.0000
     4 C4       3.4790  -3.6923  -0.9068   C.1       1 RES1   0.0000
     5 C5       2.4484  -4.5380  -1.3908   C.2       1 RES1   0.0000
     6 C6       2.1329  -4.5941  -2.7868   C.2       1 RES1   0.0000
     7 C7       1.0819  -5.4343  -3.2645   C.2       1 RES1   0.0000
     8 C8       0.3339  -6.2151  -2.3228   C.2       1 RES1   0.0000
     9 C9       0.6435  -6.1680  -0.8854   C.2       1 RES1   0.0000
    10 O10     -0.1027  -6.9150   0.0255   O.3       1 RES1   0.0000
    11 C11      0.0978  -6.9598   1.4515   C.3       1 RES1   0.0000
    12 C12     -0.0806  -5.5477   2.0466   C.3       1 RES1   0.0000
    13 C13      0.1369  -5.6254   3.5790   C.3       1 RES1   0.0000
    14 C14     -0.8984  -6.5675   4.2079   C.3       1 RES1   0.0000
    15 C15     -0.7095  -7.9622   3.6075   C.3       1 RES1   0.0000
    16 C16      0.7001  -8.4833   3.9135   C.3       1 RES1   0.0000
    17 C17      1.7191  -7.5247   3.2859   C.3       1 RES1   0.0000
    18 C18      1.5642  -6.1195   3.8835   C.3       1 RES1   0.0000
    19 C19      1.5225  -7.4687   1.7560   C.3       1 RES1   0.0000
    20 C20     -0.9370  -7.9144   2.0823   C.3       1 RES1   0.0000
    21 C21      1.7102  -5.3215  -0.4426   C.2       1 RES1   0.0000
    22 N22      4.6383  -0.8202   0.0825   N.am      1 RES1   1.0000
    23 O23      4.4576  -0.2507   1.1834   O.2       1 RES1   0.0000
    24 C24      4.1591  -0.1914  -1.0743   C.2       1 RES1   0.0000
    25 N25      3.5190   0.9941  -0.9460   N.am      1 RES1   0.0000
    26 O26      4.3031  -0.6733  -2.2308   O.2       1 RES1   0.0000
@<TRIPOS>BOND
     1     2     1    1
     2     2     3    1
     3     3     4    3
     4     4     5    1
     5     5     6    2
     6     6     7    1
     7     7     8    2
     8     8     9    1
     9     9    10    1
    10    11    10    1
    11    11    12    1
    12    13    12    1
    13    13    14    1
    14    15    14    1
    15    15    16    1
    16    17    16    1
    17    17    18    1
    18    17    19    1
    19    15    20    1
    20     9    21    2
    21     2    22    1
    22    22    23    2
    23    22    24   am
    24    24    25   am
    25    24    26    2
    26    21     5    1
    27    19    11    1
    28    20    11    1
    29    18    13    1
@<TRIPOS>SUBSTRUCTURE
     1 RES1        1 GROUP             0 ****  ****    0  
@<TRIPOS>MOLECULE
ligand_20
    26    29     1     0     0
SMALL
USER_CHARGES
****
Generated from the CSD

@<TRIPOS>ATOM
     1 C1       5.6705  -0.9926  -1.0185   C.3       1 RES1   0.0000
     2 C2       5.3596  -2.1278   0.0337   C.3       1 RES1   0.0000
     3 C3       4.3128  -3.0016  -0.4883   C.1       1 RES1   0.0000
     4 C4       3.4790  -3.6923  -0.9068   C.1       1 RES1   0.0000
     5 C5       2.4484  -4.5380  -1.3908   C.2       1 RES1   0.0000
     6 C6       2.1329  -4.5941  -2.7868   C.2       1 RES1   0.0000
     7 C7       1.0819  -5.4343  -3.2645   C.2       1 RES1   0.0000
     8 C8       0.3339  -6.2151  -2.3228   C.2       1 RES1   0.0000
     9 C9       0.6435  -6.1680  -0.8854   C.2       1 RES1   0.0000
    10 O10     -0.1027  -6.9150   0.0255   O.3       1 RES1   0.0000
    11 C11      0.0978  -6.9598   1.4515   C.3       1 RES1   0.0000
    12 C12     -0.0806  -5.5477   2.0466   C.3       1 RES1   0.0000
    13 C13      0.1369  -5.6254   3.5790   C.3       1 RES1   0.0000
    14 C14     -0.8984  -6.5675   4.2079   C.3       1 RES1   0.0000
    15 C15     -0.7095  -7.9622   3.6075   C.3       1 RES1   0.0000
    16 C16      0.7001  -8.4833   3.9135   C.3       1 RES1   0.0000
    17 C17      1.7191  -7.5247   3.2859   C.3       1 RES1   0.0000
    18 C18      1.5642  -6.1195   3.8835   C.3       1 RES1   0.0000
    19 C19      1.5225  -7.4687   1.7560   C.3       1 RES1   0.0000
    20 C20     -0.9370  -7.9144   2.0823   C.3       1 RES1   0.0000
    21 C21      1.7102  -5.3215  -0.4426   C.2       1 RES1   0.0000
    22 N22      4.7209  -1.6430   1.2944   N.am      1 RES1   1.0000
    23 O23      5.2417  -1.9167   2.4002   O.2       1 RES1   0.0000
    24 C24      3.5506  -0.8726   1.2867   C.2       1 RES1   0.0000
    25 N25      3.0363  -0.4689   2.4717   N.am      1 RES1   0.0000
    26 O26      2.9577  -0.5300   0.2276   O.2       1 RES1   0.0000
@<TRIPOS>BOND
     1     2     1    1
     2     2     3    1
     3     3     4    3
     4     4     5    1
     5     5     6    2
     6     6     7    1
     7     7     8    2
     8     8     9    1
     9     9    10    1
    10    11    10    1
    11    11    12    1
    12    13    12    1
    13    13    14    1
    14    15    14    1
    15    15    16    1
    16    17    16    1
    17    17    18    1
    18    17    19    1
    19    15    20    1
    20     9    21    2
    21     2    22    1
    22    22    23    2
    23    22    24   am
    24    24    25   am
    25    24    26    2
    26    21     5    1
    27    19    11    1
    28    20    11    1
    29    18    13    1
@<TRIPOS>SUBSTRUCTURE
     1 RES1        1 GROUP             0 ****  ****    0  
@<TRIPOS>MOLECULE
ligand_21
    26    29     1     0     0
SMALL
USER_CHARGES
****
Generated from the CSD

@<TRIPOS>ATOM
     1 C1       4.8069  -0.6532   0.1453   C.3       1 RES1   0.0000
     2 C2       5.3596  -2.1278   0.0337   C.3       1 RES1   0.0000
     3 C3       4.3128  -3.0016  -0.4883   C.1       1 RES1   0.0000
     4 C4       3.4790  -3.6923  -0.9068   C.1       1 RES1   0.0000
     5 C5       2.4484  -4.5380  -1.3908   C.2       1 RES1   0.0000
     6 C6       2.1329  -4.5941  -2.7868   C.2       1 RES1   0.0000
     7 C7       1.0819  -5.4343  -3.2645   C.2       1 RES1   0.0000
     8 C8       0.3339  -6.2151  -2.3228   C.2       1 RES1   0.0000
     9 C9       0.6435  -6.1680  -0.8854   C.2       1 RES1   0.0000
    10 O10     -0.1027  -6.9150   0.0255   O.3       1 RES1   0.0000
    11 C11      0.0978  -6.9598   1.4515   C.3       1 RES1   0.0000
    12 C12     -0.0806  -5.5477   2.0466   C.3       1 RES1   0.0000
    13 C13      0.1369  -5.6254   3.5790   C.3       1 RES1   0.0000
    14 C14     -0.8984  -6.5675   4.2079   C.3       1 RES1   0.0000
    15 C15     -0.7095  -7.9622   3.6075   C.3       1 RES1   0.0000
    16 C16      0.7001  -8.4833   3.9135   C.3       1 RES1   0.0000
    17 C17      1.7191  -7.5247   3.2859   C.3       1 RES1   0.0000
    18 C18      1.5642  -6.1195   3.8835   C.3       1 RES1   0.0000
    19 C19      1.5225  -7.4687   1.7560   C.3       1 RES1   0.0000
    20 C20     -0.9370  -7.9144   2.0823   C.3       1 RES1   0.0000
    21 C21      1.7102  -5.3215  -0.4426   C.2       1 RES1   0.0000
    22 N22      5.6450  -2.7812   1.3466   N.am      1 RES1   1.0000
    23 O23      6.7801  -3.2624   1.5678   O.2       1 RES1   0.0000
    24 C24      4.6809  -2.8675   2.3597   C.2       1 RES1   0.0000
    25 N25      5.0193  -3.4719   3.5224   N.am      1 RES1   0.0000
    26 O26      3.5149  -2.4013   2.2432   O.2       1 RES1   0.0000
@<TRIPOS>BOND
     1     2     1    1
     2     2     3    1
     3     3     4    3
     4     4     5    1
     5     5     6    2
     6     6     7    1
     7     7     8    2
     8     8     9    1
     9     9    10    1
    10    11    10    1
    11    11    12    1
    12    13    12    1
    13    13    14    1
    14    15    14    1
    15    15    16    1
    16    17    16    1
    17    17    18    1
    18    17    19    1
    19    15    20    1
    20     9    21    2
    21     2    22    1
    22    22    23    2
    23    22    24   am
    24    24    25   am
    25    24    26    2
    26    21     5    1
    27    19    11    1
    28    20    11    1
    29    18    13    1
@<TRIPOS>SUBSTRUCTURE
     1 RES1        1 GROUP             0 ****  ****    0  
@<TRIPOS>MOLECULE
ligand_22
    26    29     1     0     0
SMALL
USER_CHARGES
****
Generated from the CSD

@<TRIPOS>ATOM
     1 C1       4.8732  -1.4734   1.3856   C.3       1 RES1   0.0000
     2 C2       5.3596  -2.1278   0.0337   C.3       1 RES1   0.0000
     3 C3       4.3128  -3.0016  -0.4883   C.1       1 RES1   0.0000
     4 C4       3.4790  -3.6923  -0.9068   C.1       1 RES1   0.0000
     5 C5       2.4484  -4.5380  -1.3908   C.2       1 RES1   0.0000
     6 C6       2.1329  -4.5941  -2.7868   C.2       1 RES1   0.0000
     7 C7       1.0819  -5.4343  -3.2645   C.2       1 RES1   0.0000
     8 C8       0.3339  -6.2151  -2.3228   C.2       1 RES1   0.0000
     9 C9       0.6435  -6.1680  -0.8854   C.2       1 RES1   0.0000
    10 O10     -0.1027  -6.9150   0.0255   O.3       1 RES1   0.0000
    11 C11      0.0978  -6.9598   1.4515   C.3       1 RES1   0.0000
    12 C12     -0.0806  -5.5477   2.0466   C.3       1 RES1   0.0000
    13 C13      0.1369  -5.6254   3.5790   C.3       1 RES1   0.0000
    14 C14     -0.8984  -6.5675   4.2079   C.3       1 RES1   0.0000
    15 C15     -0.7095  -7.9622   3.6075   C.3       1 RES1   0.0000
    16 C16      0.7001  -8.4833   3.9135   C.3       1 RES1   0.0000
    17 C17      1.7191  -7.5247   3.2859   C.3       1 RES1   0.0000
    18 C18      1.5642  -6.1195   3.8835   C.3       1 RES1   0.0000
    19 C19      1.5225  -7.4687   1.7560   C.3       1 RES1   0.0000
    20 C20     -0.9370  -7.9144   2.0823   C.3       1 RES1   0.0000
    21 C21      1.7102  -5.3215  -0.4426   C.2       1 RES1   0.0000
    22 N22      6.4865  -3.0967   0.1870   N.am      1 RES1   1.0000
    23 O23      7.5345  -2.9422  -0.4814   O.2       1 RES1   0.0000
    24 C24      6.4198  -4.1812   1.0717   C.2       1 RES1   0.0000
    25 N25      7.4850  -5.0118   1.1554   N.am      1 RES1   0.0000
    26 O26      5.4175  -4.4159   1.8002   O.2       1 RES1   0.0000
@<TRIPOS>BOND
     1     2     1    1
     2     2     3    1
     3     3     4    3
     4     4     5    1
     5     5     6    2
     6     6     7    1
     7     7     8    2
     8     8     9    1
     9     9    10    1
    10    11    10    1
    11    11    12    1
    12    13    12    1
    13    13    14    1
    14    15    14    1
    15    15    16    1
    16    17    16    1
    17    17    18    1
    18    17    19    1
    19    15    20    1
    20     9    21    2
    21     2    22    1
    22    22    23    2
    23    22    24   am
    24    24    25   am
    25    24    26    2
    26    21     5    1
    27    19    11    1
    28    20    11    1
    29    18    13    1
@<TRIPOS>SUBSTRUCTURE
     1 RES1        1 GROUP             0 ****  ****    0  
@<TRIPOS>MOLECULE
ligand_23
    26    29     1     0     0
SMALL
USER_CHARGES
****
Generated from the CSD

@<TRIPOS>ATOM
     1 C1       5.8032  -2.6331   1.4620   C.3       1 RES1   0.0000
     2 C2       5.3596  -2.1278   0.0337   C.3       1 RES1   0.0000
     3 C3       4.3128  -3.0016  -0.4883   C.1       1 RES1   0.0000
     4 C4       3.4790  -3.6923  -0.9068   C.1       1 RES1   0.0000
     5 C5       2.4484  -4.5380  -1.3908   C.2       1 RES1   0.0000
     6 C6       2.1329  -4.5941  -2.7868   C.2       1 RES1   0.0000
     7 C7       1.0819  -5.4343  -3.2645   C.2       1 RES1   0.0000
     8 C8       0.3339  -6.2151  -2.3228   C.2       1 RES1   0.0000
     9 C9       0.6435  -6.1680  -0.8854   C.2       1 RES1   0.0000
    10 O10     -0.1027  -6.9150   0.0255   O.3       1 RES1   0.0000
    11 C11      0.0978  -6.9598   1.4515   C.3       1 RES1   0.0000
    12 C12     -0.0806  -5.5477   2.0466   C.3       1 RES1   0.0000
    13 C13      0.1369  -5.6254   3.5790   C.3       1 RES1   0.0000
    14 C14     -0.8984  -6.5675   4.2079   C.3       1 RES1   0.0000
    15 C15     -0.7095  -7.9622   3.6075   C.3       1 RES1   0.0000
    16 C16      0.7001  -8.4833   3.9135   C.3       1 RES1   0.0000
    17 C17      1.7191  -7.5247   3.2859   C.3       1 RES1   0.0000
    18 C18      1.5642  -6.1195   3.8835   C.3       1 RES1   0.0000
    19 C19      1.5225  -7.4687   1.7560   C.3       1 RES1   0.0000
    20 C20     -0.9370  -7.9144   2.0823   C.3       1 RES1   0.0000
    21 C21      1.7102  -5.3215  -0.4426   C.2       1 RES1   0.0000
    22 N22      6.4039  -2.2739  -1.0248   N.am      1 RES1   1.0000
    23 O23      6.7505  -1.2762  -1.6982   O.2       1 RES1   0.0000
    24 C24      7.0283  -3.5000  -1.2893   C.2       1 RES1   0.0000
    25 N25      7.9678  -3.5488  -2.2623   N.am      1 RES1   0.0000
    26 O26      6.7629  -4.5592  -0.6582   O.2       1 RES1   0.0000
@<TRIPOS>BOND
     1     2     1    1
     2     2     3    1
     3     3     4    3
     4     4     5    1
     5     5     6    2
     6     6     7    1
     7     7     8    2
     8     8     9    1
     9     9    10    1
    10    11    10    1
    11    11    12    1
    12    13    12    1
    13    13    14    1
    14    15    14    1
    15    15    16    1
    16    17    16    1
    17    17    18    1
    18    17    19    1
    19    15    20    1
    20     9    21    2
    21     2    22    1
    22    22    23    2
    23    22    24   am
    24    24    25   am
    25    24    26    2
    26    21     5    1
    27    19    11    1
    28    20    11    1
    29    18    13    1
@<TRIPOS>SUBSTRUCTURE
     1 RES1        1 GROUP             0 ****  ****    0  
@<TRIPOS>MOLECULE
ligand_24
    26    29     1     0     0
SMALL
USER_CHARGES
****
Generated from the CSD

@<TRIPOS>ATOM
     1 C1      -7.0804 -10.1538  -1.4794   C.3       1 RES1   0.0000
     2 C2      -6.1686  -9.8143  -2.7227   C.3       1 RES1   0.0000
     3 C3      -5.1931  -8.7950  -2.3469   C.1       1 RES1   0.0000
     4 C4      -4.4182  -7.9822  -2.0531   C.1       1 RES1   0.0000
     5 C5      -3.4509  -7.0104  -1.6904   C.2       1 RES1   0.0000
     6 C6      -3.6253  -5.6305  -2.0322   C.2       1 RES1   0.0000
     7 C7      -2.6385  -4.6607  -1.6795   C.2       1 RES1   0.0000
     8 C8      -1.4587  -5.0899  -0.9870   C.2       1 RES1   0.0000
     9 C9      -1.2627  -6.5035  -0.6298   C.2       1 RES1   0.0000
    10 O10     -0.1027  -6.9150   0.0255   O.3       1 RES1   0.0000
    11 C11      0.0961  -6.9577   1.4518   C.3       1 RES1   0.0000
    12 C12     -0.0735  -5.5431   2.0434   C.3       1 RES1   0.0000
    13 C13      0.1420  -5.6186   3.5762   C.3       1 RES1   0.0000
    14 C14     -0.9001  -6.5524   4.2063   C.3       1 RES1   0.0000
    15 C15     -0.7199  -7.9497   3.6094   C.3       1 RES1   0.0000
    16 C16      0.6859  -8.4795   3.9180   C.3       1 RES1   0.0000
    17 C17      1.7119  -7.5291   3.2891   C.3       1 RES1   0.0000
    18 C18      1.5658  -6.1215   3.8832   C.3       1 RES1   0.0000
    19 C19      1.5171  -7.4754   1.7589   C.3       1 RES1   0.0000
    20 C20     -0.9456  -7.9040   2.0838   C.3       1 RES1   0.0000
    21 C21     -2.2771  -7.4474  -0.9909   C.2       1 RES1   0.0000
    22 N22     -6.8809  -9.1255  -3.8410   N.am      1 RES1   1.0000
    23 O23     -6.8383  -9.6083  -4.9960   O.2       1 RES1   0.0000
    24 C24     -7.6153  -7.9489  -3.6423   C.2       1 RES1   0.0000
    25 N25     -7.6710  -7.4263  -2.3951   N.am      1 RES1   0.0000
    26 O26     -8.2204  -7.3486  -4.5718   O.2       1 RES1   0.0000
@<TRIPOS>BOND
     1     2     1    1
     2     2     3    1
     3     3     4    3
     4     4     5    1
     5     5     6    2
     6     6     7    1
     7     7     8    2
     8     8     9    1
     9     9    10    1
    10    11    10    1
    11    11    12    1
    12    13    12    1
    13    13    14    1
    14    15    14    1
    15    15    16    1
    16    17    16    1
    17    17    18    1
    18    17    19    1
    19    15    20    1
    20     9    21    2
    21     2    22    1
    22    22    23    2
    23    22    24   am
    24    24    25   am
    25    24    26    2
    26    21     5    1
    27    19    11    1
    28    20    11    1
    29    18    13    1
@<TRIPOS>SUBSTRUCTURE
     1 RES1        1 GROUP             0 ****  ****    0  
@<TRIPOS>MOLECULE
ligand_25
    26    29     1     0     0
SMALL
USER_CHARGES
****
Generated from the CSD

@<TRIPOS>ATOM
     1 C1      -7.6277  -9.2451  -2.5236   C.3       1 RES1   0.0000
     2 C2      -6.1686  -9.8143  -2.7227   C.3       1 RES1   0.0000
     3 C3      -5.1931  -8.7950  -2.3469   C.1       1 RES1   0.0000
     4 C4      -4.4182  -7.9822  -2.0531   C.1       1 RES1   0.0000
     5 C5      -3.4509  -7.0104  -1.6904   C.2       1 RES1   0.0000
     6 C6      -3.6253  -5.6305  -2.0322   C.2       1 RES1   0.0000
     7 C7      -2.6385  -4.6607  -1.6795   C.2       1 RES1   0.0000
     8 C8      -1.4587  -5.0899  -0.9870   C.2       1 RES1   0.0000
     9 C9      -1.2627  -6.5035  -0.6298   C.2       1 RES1   0.0000
    10 O10     -0.1027  -6.9150   0.0255   O.3       1 RES1   0.0000
    11 C11      0.0961  -6.9577   1.4518   C.3       1 RES1   0.0000
    12 C12     -0.0735  -5.5431   2.0434   C.3       1 RES1   0.0000
    13 C13      0.1420  -5.6186   3.5762   C.3       1 RES1   0.0000
    14 C14     -0.9001  -6.5524   4.2063   C.3       1 RES1   0.0000
    15 C15     -0.7199  -7.9497   3.6094   C.3       1 RES1   0.0000
    16 C16      0.6859  -8.4795   3.9180   C.3       1 RES1   0.0000
    17 C17      1.7119  -7.5291   3.2891   C.3       1 RES1   0.0000
    18 C18      1.5658  -6.1215   3.8832   C.3       1 RES1   0.0000
    19 C19      1.5171  -7.4754   1.7589   C.3       1 RES1   0.0000
    20 C20     -0.9456  -7.9040   2.0838   C.3       1 RES1   0.0000
    21 C21     -2.2771  -7.4474  -0.9909   C.2       1 RES1   0.0000
    22 N22     -5.7896 -10.0570  -4.1474   N.am      1 RES1   1.0000
    23 O23     -5.3801 -11.1877  -4.4977   O.2       1 RES1   0.0000
    24 C24     -5.8872  -9.0568  -5.1237   C.2       1 RES1   0.0000
    25 N25     -6.3359  -7.8350  -4.7528   N.am      1 RES1   0.0000
    26 O26     -5.5689  -9.2379  -6.3305   O.2       1 RES1   0.0000
@<TRIPOS>BOND
     1     2     1    1
     2     2     3    1
     3     3     4    3
     4     4     5    1
     5     5     6    2
     6     6     7    1
     7     7     8    2
     8     8     9    1
     9     9    10    1
    10    11    10    1
    11    11    12    1
    12    13    12    1
    13    13    14    1
    14    15    14    1
    15    15    16    1
    16    17    16    1
    17    17    18    1
    18    17    19    1
    19    15    20    1
    20     9    21    2
    21     2    22    1
    22    22    23    2
    23    22    24   am
    24    24    25   am
    25    24    26    2
    26    21     5    1
    27    19    11    1
    28    20    11    1
    29    18    13    1
@<TRIPOS>SUBSTRUCTURE
     1 RES1        1 GROUP             0 ****  ****    0  
@<TRIPOS>MOLECULE
ligand_26
    26    29     1     0     0
SMALL
USER_CHARGES
****
Generated from the CSD

@<TRIPOS>ATOM
     1 C1      -7.0674  -9.2729  -3.9023   C.3       1 RES1   0.0000
     2 C2      -6.1686  -9.8143  -2.7227   C.3       1 RES1   0.0000
     3 C3      -5.1931  -8.7950  -2.3469   C.1       1 RES1   0.0000
     4 C4      -4.4182  -7.9822  -2.0531   C.1       1 RES1   0.0000
     5 C5      -3.4509  -7.0104  -1.6904   C.2       1 RES1   0.0000
     6 C6      -3.6253  -5.6305  -2.0322   C.2       1 RES1   0.0000
     7 C7      -2.6385  -4.6607  -1.6795   C.2       1 RES1   0.0000
     8 C8      -1.4587  -5.0899  -0.9870   C.2       1 RES1   0.0000
     9 C9      -1.2627  -6.5035  -0.6298   C.2       1 RES1   0.0000
    10 O10     -0.1027  -6.9150   0.0255   O.3       1 RES1   0.0000
    11 C11      0.0961  -6.9577   1.4518   C.3       1 RES1   0.0000
    12 C12     -0.0735  -5.5431   2.0434   C.3       1 RES1   0.0000
    13 C13      0.1420  -5.6186   3.5762   C.3       1 RES1   0.0000
    14 C14     -0.9001  -6.5524   4.2063   C.3       1 RES1   0.0000
    15 C15     -0.7199  -7.9497   3.6094   C.3       1 RES1   0.0000
    16 C16      0.6859  -8.4795   3.9180   C.3       1 RES1   0.0000
    17 C17      1.7119  -7.5291   3.2891   C.3       1 RES1   0.0000
    18 C18      1.5658  -6.1215   3.8832   C.3       1 RES1   0.0000
    19 C19      1.5171  -7.4754   1.7589   C.3       1 RES1   0.0000
    20 C20     -0.9456  -7.9040   2.0838   C.3       1 RES1   0.0000
    21 C21     -2.2771  -7.4474  -0.9909   C.2       1 RES1   0.0000
    22 N22     -5.2664 -10.9432  -3.1019   N.am      1 RES1   1.0000
    23 O23     -5.3042 -12.0141  -2.4531   O.2       1 RES1   0.0000
    24 C24     -4.3745 -10.8531  -4.1787   C.2       1 RES1   0.0000
    25 N25     -4.3341  -9.7011  -4.8880   N.am      1 RES1   0.0000
    26 O26     -3.6011 -11.7912  -4.5138   O.2       1 RES1   0.0000
@<TRIPOS>BOND
     1     2     1    1
     2     2     3    1
     3     3     4    3
     4     4     5    1
     5     5     6    2
     6     6     7    1
     7     7     8    2
     8     8     9    1
     9     9    10    1
    10    11    10    1
    11    11    12    1
    12    13    12    1
    13    13    14    1
    14    15    14    1
    15    15    16    1
    16    17    16    1
    17    17    18    1
    18    17    19    1
    19    15    20    1
    20     9    21    2
    21     2    22    1
    22    22    23    2
    23    22    24   am
    24    24    25   am
    25    24    26    2
    26    21     5    1
    27    19    11    1
    28    20    11    1
    29    18    13    1
@<TRIPOS>SUBSTRUCTURE
     1 RES1        1 GROUP             0 ****  ****    0  
@<TRIPOS>MOLECULE
ligand_27
    26    29     1     0     0
SMALL
USER_CHARGES
****
Generated from the CSD

@<TRIPOS>ATOM
     1 C1      -5.9598 -10.2098  -4.2367   C.3       1 RES1   0.0000
     2 C2      -6.1686  -9.8143  -2.7227   C.3       1 RES1   0.0000
     3 C3      -5.1931  -8.7950  -2.3469   C.1       1 RES1   0.0000
     4 C4      -4.4182  -7.9822  -2.0531   C.1       1 RES1   0.0000
     5 C5      -3.4509  -7.0104  -1.6904   C.2       1 RES1   0.0000
     6 C6      -3.6253  -5.6305  -2.0322   C.2       1 RES1   0.0000
     7 C7      -2.6385  -4.6607  -1.6795   C.2       1 RES1   0.0000
     8 C8      -1.4587  -5.0899  -0.9870   C.2       1 RES1   0.0000
     9 C9      -1.2627  -6.5035  -0.6298   C.2       1 RES1   0.0000
    10 O10     -0.1027  -6.9150   0.0255   O.3       1 RES1   0.0000
    11 C11      0.0961  -6.9577   1.4518   C.3       1 RES1   0.0000
    12 C12     -0.0735  -5.5431   2.0434   C.3       1 RES1   0.0000
    13 C13      0.1420  -5.6186   3.5762   C.3       1 RES1   0.0000
    14 C14     -0.9001  -6.5524   4.2063   C.3       1 RES1   0.0000
    15 C15     -0.7199  -7.9497   3.6094   C.3       1 RES1   0.0000
    16 C16      0.6859  -8.4795   3.9180   C.3       1 RES1   0.0000
    17 C17      1.7119  -7.5291   3.2891   C.3       1 RES1   0.0000
    18 C18      1.5658  -6.1215   3.8832   C.3       1 RES1   0.0000
    19 C19      1.5171  -7.4754   1.7589   C.3       1 RES1   0.0000
    20 C20     -0.9456  -7.9040   2.0838   C.3       1 RES1   0.0000
    21 C21     -2.2771  -7.4474  -0.9909   C.2       1 RES1   0.0000
    22 N22     -5.8347 -10.8979  -1.7497   N.am      1 RES1   1.0000
    23 O23     -6.6870 -11.2608  -0.9067   O.2       1 RES1   0.0000
    24 C24     -4.5901 -11.5415  -1.7516   C.2       1 RES1   0.0000
    25 N25     -3.6674 -11.1588  -2.6648   N.am      1 RES1   0.0000
    26 O26     -4.2851 -12.4551  -0.9375   O.2       1 RES1   0.0000
@<TRIPOS>BOND
     1     2     1    1
     2     2     3    1
     3     3     4    3
     4     4     5    1
     5     5     6    2
     6     6     7    1
     7     7     8    2
     8     8     9    1
     9     9    10    1
    10    11    10    1
    11    11    12    1
    12    13    12    1
    13    13    14    1
    14    15    14    1
    15    15    16    1
    16    17    16    1
    17    17    18    1
    18    17    19    1
    19    15    20    1
    20     9    21    2
    21     2    22    1
    22    22    23    2
    23    22    24   am
    24    24    25   am
    25    24    26    2
    26    21     5    1
    27    19    11    1
    28    20    11    1
    29    18    13    1
@<TRIPOS>SUBSTRUCTURE
     1 RES1        1 GROUP             0 ****  ****    0  
@<TRIPOS>MOLECULE
ligand_28
    26    29     1     0     0
SMALL
USER_CHARGES
****
Generated from the CSD

@<TRIPOS>ATOM
     1 C1      -5.4128 -11.1182  -3.1926   C.3       1 RES1   0.0000
     2 C2      -6.1686  -9.8143  -2.7227   C.3       1 RES1   0.0000
     3 C3      -5.1931  -8.7950  -2.3469   C.1       1 RES1   0.0000
     4 C4      -4.4182  -7.9822  -2.0531   C.1       1 RES1   0.0000
     5 C5      -3.4509  -7.0104  -1.6904   C.2       1 RES1   0.0000
     6 C6      -3.6253  -5.6305  -2.0322   C.2       1 RES1   0.0000
     7 C7      -2.6385  -4.6607  -1.6795   C.2       1 RES1   0.0000
     8 C8      -1.4587  -5.0899  -0.9870   C.2       1 RES1   0.0000
     9 C9      -1.2627  -6.5035  -0.6298   C.2       1 RES1   0.0000
    10 O10     -0.1027  -6.9150   0.0255   O.3       1 RES1   0.0000
    11 C11      0.0961  -6.9577   1.4518   C.3       1 RES1   0.0000
    12 C12     -0.0735  -5.5431   2.0434   C.3       1 RES1   0.0000
    13 C13      0.1420  -5.6186   3.5762   C.3       1 RES1   0.0000
    14 C14     -0.9001  -6.5524   4.2063   C.3       1 RES1   0.0000
    15 C15     -0.7199  -7.9497   3.6094   C.3       1 RES1   0.0000
    16 C16      0.6859  -8.4795   3.9180   C.3       1 RES1   0.0000
    17 C17      1.7119  -7.5291   3.2891   C.3       1 RES1   0.0000
    18 C18      1.5658  -6.1215   3.8832   C.3       1 RES1   0.0000
    19 C19      1.5171  -7.4754   1.7589   C.3       1 RES1   0.0000
    20 C20     -0.9456  -7.9040   2.0838   C.3       1 RES1   0.0000
    21 C21     -2.2771  -7.4474  -0.9909   C.2       1 RES1   0.0000
    22 N22     -6.9257  -9.9666  -1.4436   N.am      1 RES1   1.0000
    23 O23     -8.1448  -9.6818  -1.4051   O.2       1 RES1   0.0000
    24 C24     -6.3179 -10.4337  -0.2707   C.2       1 RES1   0.0000
    25 N25     -5.0025 -10.7500  -0.3078   N.am      1 RES1   0.0000
    26 O26     -6.9360 -10.5657   0.8206   O.2       1 RES1   0.0000
@<TRIPOS>BOND
     1     2     1    1
     2     2     3    1
     3     3     4    3
     4     4     5    1
     5     5     6    2
     6     6     7    1
     7     7     8    2
     8     8     9    1
     9     9    10    1
    10    11    10    1
    11    11    12    1
    12    13    12    1
    13    13    14    1
    14    15    14    1
    15    15    16    1
    16    17    16    1
    17    17    18    1
    18    17    19    1
    19    15    20    1
    20     9    21    2
    21     2    22    1
    22    22    23    2
    23    22    24   am
    24    24    25   am
    25    24    26    2
    26    21     5    1
    27    19    11    1
    28    20    11    1
    29    18    13    1
@<TRIPOS>SUBSTRUCTURE
     1 RES1        1 GROUP             0 ****  ****    0  
@<TRIPOS>MOLECULE
ligand_29
    26    29     1     0     0
SMALL
USER_CHARGES
****
Generated from the CSD

@<TRIPOS>ATOM
     1 C1      -5.9730 -11.0903  -1.8139   C.3       1 RES1   0.0000
     2 C2      -6.1686  -9.8143  -2.7227   C.3       1 RES1   0.0000
     3 C3      -5.1931  -8.7950  -2.3469   C.1       1 RES1   0.0000
     4 C4      -4.4182  -7.9822  -2.0531   C.1       1 RES1   0.0000
     5 C5      -3.4509  -7.0104  -1.6904   C.2       1 RES1   0.0000
     6 C6      -3.6253  -5.6305  -2.0322   C.2       1 RES1   0.0000
     7 C7      -2.6385  -4.6607  -1.6795   C.2       1 RES1   0.0000
     8 C8      -1.4587  -5.0899  -0.9870   C.2       1 RES1   0.0000
     9 C9      -1.2627  -6.5035  -0.6298   C.2       1 RES1   0.0000
    10 O10     -0.1027  -6.9150   0.0255   O.3       1 RES1   0.0000
    11 C11      0.0961  -6.9577   1.4518   C.3       1 RES1   0.0000
    12 C12     -0.0735  -5.5431   2.0434   C.3       1 RES1   0.0000
    13 C13      0.1420  -5.6186   3.5762   C.3       1 RES1   0.0000
    14 C14     -0.9001  -6.5524   4.2063   C.3       1 RES1   0.0000
    15 C15     -0.7199  -7.9497   3.6094   C.3       1 RES1   0.0000
    16 C16      0.6859  -8.4795   3.9180   C.3       1 RES1   0.0000
    17 C17      1.7119  -7.5291   3.2891   C.3       1 RES1   0.0000
    18 C18      1.5658  -6.1215   3.8832   C.3       1 RES1   0.0000
    19 C19      1.5171  -7.4754   1.7589   C.3       1 RES1   0.0000
    20 C20     -0.9456  -7.9040   2.0838   C.3       1 RES1   0.0000
    21 C21     -2.2771  -7.4474  -0.9909   C.2       1 RES1   0.0000
    22 N22     -7.4489  -9.0803  -2.4891   N.am      1 RES1   1.0000
    23 O23     -8.2207  -8.8554  -3.4496   O.2       1 RES1   0.0000
    24 C24     -7.8307  -8.6374  -1.2158   C.2       1 RES1   0.0000
    25 N25     -7.0044  -8.8839  -0.1726   N.am      1 RES1   0.0000
    26 O26     -8.9039  -8.0125  -0.9962   O.2       1 RES1   0.0000
@<TRIPOS>BOND
     1     2     1    1
     2     2     3    1
     3     3     4    3
     4     4     5    1
     5     5     6    2
     6     6     7    1
     7     7     8    2
     8     8     9    1
     9     9    10    1
    10    11    10    1
    11    11    12    1
    12    13    12    1
    13    13    14    1
    14    15    14    1
    15    15    16    1
    16    17    16    1
    17    17    18    1
    18    17    19    1
    19    15    20    1
    20     9    21    2
    21     2    22    1
    22    22    23    2
    23    22    24   am
    24    24    25   am
    25    24    26    2
    26    21     5    1
    27    19    11    1
    28    20    11    1
    29    18    13    1
@<TRIPOS>SUBSTRUCTURE
     1 RES1        1 GROUP             0 ****  ****    0  
@<TRIPOS>MOLECULE
ligand_30
    26    29     1     0     0
SMALL
USER_CHARGES
****
Generated from the CSD

@<TRIPOS>ATOM
     1 C1      -2.3694  -0.3966  -3.6914   C.3       1 RES1   0.0000
     2 C2      -3.1579  -0.7798  -2.3785   C.3       1 RES1   0.0000
     3 C3      -2.9898  -2.2049  -2.1083   C.1       1 RES1   0.0000
     4 C4      -2.8616  -3.3381  -1.8919   C.1       1 RES1   0.0000
     5 C5      -2.6836  -4.7162  -1.6078   C.2       1 RES1   0.0000
     6 C6      -3.6955  -5.6752  -1.9360   C.2       1 RES1   0.0000
     7 C7      -3.5169  -7.0585  -1.6304   C.2       1 RES1   0.0000
     8 C8      -2.3114  -7.4755  -0.9756   C.2       1 RES1   0.0000
     9 C9      -1.2627  -6.5035  -0.6298   C.2       1 RES1   0.0000
    10 O10     -0.1027  -6.9150   0.0255   O.3       1 RES1   0.0000
    11 C11      0.0961  -6.9577   1.4518   C.3       1 RES1   0.0000
    12 C12     -0.0735  -5.5431   2.0434   C.3       1 RES1   0.0000
    13 C13      0.1420  -5.6186   3.5762   C.3       1 RES1   0.0000
    14 C14     -0.9001  -6.5524   4.2063   C.3       1 RES1   0.0000
    15 C15     -0.7199  -7.9497   3.6094   C.3       1 RES1   0.0000
    16 C16      0.6859  -8.4795   3.9180   C.3       1 RES1   0.0000
    17 C17      1.7119  -7.5291   3.2891   C.3       1 RES1   0.0000
    18 C18      1.5658  -6.1215   3.8832   C.3       1 RES1   0.0000
    19 C19      1.5171  -7.4754   1.7589   C.3       1 RES1   0.0000
    20 C20     -0.9456  -7.9040   2.0838   C.3       1 RES1   0.0000
    21 C21     -1.4712  -5.1257  -0.9594   C.2       1 RES1   0.0000
    22 N22     -4.6441  -0.6887  -2.5019   N.am      1 RES1   1.0000
    23 O23     -5.2937   0.0095  -1.6898   O.2       1 RES1   0.0000
    24 C24     -5.3486  -1.3547  -3.5134   C.2       1 RES1   0.0000
    25 N25     -4.6516  -2.1049  -4.3984   N.am      1 RES1   0.0000
    26 O26     -6.6026  -1.2955  -3.6340   O.2       1 RES1   0.0000
@<TRIPOS>BOND
     1     2     1    1
     2     2     3    1
     3     3     4    3
     4     4     5    1
     5     5     6    2
     6     6     7    1
     7     7     8    2
     8     8     9    1
     9     9    10    1
    10    11    10    1
    11    11    12    1
    12    13    12    1
    13    13    14    1
    14    15    14    1
    15    15    16    1
    16    17    16    1
    17    17    18    1
    18    17    19    1
    19    15    20    1
    20     9    21    2
    21     2    22    1
    22    22    23    2
    23    22    24   am
    24    24    25   am
    25    24    26    2
    26    21     5    1
    27    19    11    1
    28    20    11    1
    29    18    13    1
@<TRIPOS>SUBSTRUCTURE
     1 RES1        1 GROUP             0 ****  ****    0  
@<TRIPOS>MOLECULE
ligand_31
    26    29     1     0     0
SMALL
USER_CHARGES
****
Generated from the CSD

@<TRIPOS>ATOM
     1 C1      -3.8423  -0.5886  -3.7882   C.3       1 RES1   0.0000
     2 C2      -3.1579  -0.7798  -2.3785   C.3       1 RES1   0.0000
     3 C3      -2.9898  -2.2049  -2.1083   C.1       1 RES1   0.0000
     4 C4      -2.8616  -3.3381  -1.8919   C.1       1 RES1   0.0000
     5 C5      -2.6836  -4.7162  -1.6078   C.2       1 RES1   0.0000
     6 C6      -3.6955  -5.6752  -1.9360   C.2       1 RES1   0.0000
     7 C7      -3.5169  -7.0585  -1.6304   C.2       1 RES1   0.0000
     8 C8      -2.3114  -7.4755  -0.9756   C.2       1 RES1   0.0000
     9 C9      -1.2627  -6.5035  -0.6298   C.2       1 RES1   0.0000
    10 O10     -0.1027  -6.9150   0.0255   O.3       1 RES1   0.0000
    11 C11      0.0961  -6.9577   1.4518   C.3       1 RES1   0.0000
    12 C12     -0.0735  -5.5431   2.0434   C.3       1 RES1   0.0000
    13 C13      0.1420  -5.6186   3.5762   C.3       1 RES1   0.0000
    14 C14     -0.9001  -6.5524   4.2063   C.3       1 RES1   0.0000
    15 C15     -0.7199  -7.9497   3.6094   C.3       1 RES1   0.0000
    16 C16      0.6859  -8.4795   3.9180   C.3       1 RES1   0.0000
    17 C17      1.7119  -7.5291   3.2891   C.3       1 RES1   0.0000
    18 C18      1.5658  -6.1215   3.8832   C.3       1 RES1   0.0000
    19 C19      1.5171  -7.4754   1.7589   C.3       1 RES1   0.0000
    20 C20     -0.9456  -7.9040   2.0838   C.3       1 RES1   0.0000
    21 C21     -1.4712  -5.1257  -0.9594   C.2       1 RES1   0.0000
    22 N22     -4.0070  -0.3703  -1.2193   N.am      1 RES1   1.0000
    23 O23     -3.5683   0.4594  -0.3898   O.2       1 RES1   0.0000
    24 C24     -5.2990  -0.8776  -1.0278   C.2       1 RES1   0.0000
    25 N25     -5.7814  -1.7691  -1.9246   N.am      1 RES1   0.0000
    26 O26     -6.0312  -0.5496  -0.0549   O.2       1 RES1   0.0000
@<TRIPOS>BOND
     1     2     1    1
     2     2     3    1
     3     3     4    3
     4     4     5    1
     5     5     6    2
     6     6     7    1
     7     7     8    2
     8     8     9    1
     9     9    10    1
    10    11    10    1
    11    11    12    1
    12    13    12    1
    13    13    14    1
    14    15    14    1
    15    15    16    1
    16    17    16    1
    17    17    18    1
    18    17    19    1
    19    15    20    1
    20     9    21    2
    21     2    22    1
    22    22    23    2
    23    22    24   am
    24    24    25   am
    25    24    26    2
    26    21     5    1
    27    19    11    1
    28    20    11    1
    29    18    13    1
@<TRIPOS>SUBSTRUCTURE
     1 RES1        1 GROUP             0 ****  ****    0  
@<TRIPOS>MOLECULE
ligand_32
    26    29     1     0     0
SMALL
USER_CHARGES
****
Generated from the CSD

@<TRIPOS>ATOM
     1 C1      -4.6913  -0.4583  -2.5727   C.3       1 RES1   0.0000
     2 C2      -3.1579  -0.7798  -2.3785   C.3       1 RES1   0.0000
     3 C3      -2.9898  -2.2049  -2.1083   C.1       1 RES1   0.0000
     4 C4      -2.8616  -3.3381  -1.8919   C.1       1 RES1   0.0000
     5 C5      -2.6836  -4.7162  -1.6078   C.2       1 RES1   0.0000
     6 C6      -3.6955  -5.6752  -1.9360   C.2       1 RES1   0.0000
     7 C7      -3.5169  -7.0585  -1.6304   C.2       1 RES1   0.0000
     8 C8      -2.3114  -7.4755  -0.9756   C.2       1 RES1   0.0000
     9 C9      -1.2627  -6.5035  -0.6298   C.2       1 RES1   0.0000
    10 O10     -0.1027  -6.9150   0.0255   O.3       1 RES1   0.0000
    11 C11      0.0961  -6.9577   1.4518   C.3       1 RES1   0.0000
    12 C12     -0.0735  -5.5431   2.0434   C.3       1 RES1   0.0000
    13 C13      0.1420  -5.6186   3.5762   C.3       1 RES1   0.0000
    14 C14     -0.9001  -6.5524   4.2063   C.3       1 RES1   0.0000
    15 C15     -0.7199  -7.9497   3.6094   C.3       1 RES1   0.0000
    16 C16      0.6859  -8.4795   3.9180   C.3       1 RES1   0.0000
    17 C17      1.7119  -7.5291   3.2891   C.3       1 RES1   0.0000
    18 C18      1.5658  -6.1215   3.8832   C.3       1 RES1   0.0000
    19 C19      1.5171  -7.4754   1.7589   C.3       1 RES1   0.0000
    20 C20     -0.9456  -7.9040   2.0838   C.3       1 RES1   0.0000
    21 C21     -1.4712  -5.1257  -0.9594   C.2       1 RES1   0.0000
    22 N22     -2.5534  -0.1854  -1.1482   N.am      1 RES1   1.0000
    23 O23     -1.5348   0.5375  -1.2429   O.2       1 RES1   0.0000
    24 C24     -3.0969  -0.3992   0.1254   C.2       1 RES1   0.0000
    25 N25     -4.2016  -1.1736   0.2336   N.am      1 RES1   0.0000
    26 O26     -2.6011   0.0887   1.1774   O.2       1 RES1   0.0000
@<TRIPOS>BOND
     1     2     1    1
     2     2     3    1
     3     3     4    3
     4     4     5    1
     5     5     6    2
     6     6     7    1
     7     7     8    2
     8     8     9    1
     9     9    10    1
    10    11    10    1
    11    11    12    1
    12    13    12    1
    13    13    14    1
    14    15    14    1
    15    15    16    1
    16    17    16    1
    17    17    18    1
    18    17    19    1
    19    15    20    1
    20     9    21    2
    21     2    22    1
    22    22    23    2
    23    22    24   am
    24    24    25   am
    25    24    26    2
    26    21     5    1
    27    19    11    1
    28    20    11    1
    29    18    13    1
@<TRIPOS>SUBSTRUCTURE
     1 RES1        1 GROUP             0 ****  ****    0  
@<TRIPOS>MOLECULE
ligand_33
    26    29     1     0     0
SMALL
USER_CHARGES
****
Generated from the CSD

@<TRIPOS>ATOM
     1 C1      -4.0672  -0.1359  -1.2600   C.3       1 RES1   0.0000
     2 C2      -3.1579  -0.7798  -2.3785   C.3       1 RES1   0.0000
     3 C3      -2.9898  -2.2049  -2.1083   C.1       1 RES1   0.0000
     4 C4      -2.8616  -3.3381  -1.8919   C.1       1 RES1   0.0000
     5 C5      -2.6836  -4.7162  -1.6078   C.2       1 RES1   0.0000
     6 C6      -3.6955  -5.6752  -1.9360   C.2       1 RES1   0.0000
     7 C7      -3.5169  -7.0585  -1.6304   C.2       1 RES1   0.0000
     8 C8      -2.3114  -7.4755  -0.9756   C.2       1 RES1   0.0000
     9 C9      -1.2627  -6.5035  -0.6298   C.2       1 RES1   0.0000
    10 O10     -0.1027  -6.9150   0.0255   O.3       1 RES1   0.0000
    11 C11      0.0961  -6.9577   1.4518   C.3       1 RES1   0.0000
    12 C12     -0.0735  -5.5431   2.0434   C.3       1 RES1   0.0000
    13 C13      0.1420  -5.6186   3.5762   C.3       1 RES1   0.0000
    14 C14     -0.9001  -6.5524   4.2063   C.3       1 RES1   0.0000
    15 C15     -0.7199  -7.9497   3.6094   C.3       1 RES1   0.0000
    16 C16      0.6859  -8.4795   3.9180   C.3       1 RES1   0.0000
    17 C17      1.7119  -7.5291   3.2891   C.3       1 RES1   0.0000
    18 C18      1.5658  -6.1215   3.8832   C.3       1 RES1   0.0000
    19 C19      1.5171  -7.4754   1.7589   C.3       1 RES1   0.0000
    20 C20     -0.9456  -7.9040   2.0838   C.3       1 RES1   0.0000
    21 C21     -1.4712  -5.1257  -0.9594   C.2       1 RES1   0.0000
    22 N22     -1.7368  -0.3189  -2.3600   N.am      1 RES1   1.0000
    23 O23     -1.2269   0.1655  -3.3965   O.2       1 RES1   0.0000
    24 C24     -0.9441  -0.3980  -1.2074   C.2       1 RES1   0.0000
    25 N25     -1.4916  -0.9139  -0.0823   N.am      1 RES1   0.0000
    26 O26      0.2582  -0.0192  -1.1702   O.2       1 RES1   0.0000
@<TRIPOS>BOND
     1     2     1    1
     2     2     3    1
     3     3     4    3
     4     4     5    1
     5     5     6    2
     6     6     7    1
     7     7     8    2
     8     8     9    1
     9     9    10    1
    10    11    10    1
    11    11    12    1
    12    13    12    1
    13    13    14    1
    14    15    14    1
    15    15    16    1
    16    17    16    1
    17    17    18    1
    18    17    19    1
    19    15    20    1
    20     9    21    2
    21     2    22    1
    22    22    23    2
    23    22    24   am
    24    24    25   am
    25    24    26    2
    26    21     5    1
    27    19    11    1
    28    20    11    1
    29    18    13    1
@<TRIPOS>SUBSTRUCTURE
     1 RES1        1 GROUP             0 ****  ****    0  
@<TRIPOS>MOLECULE
ligand_34
    26    29     1     0     0
SMALL
USER_CHARGES
****
Generated from the CSD

@<TRIPOS>ATOM
     1 C1      -2.5946   0.0561  -1.1634   C.3       1 RES1   0.0000
     2 C2      -3.1579  -0.7798  -2.3785   C.3       1 RES1   0.0000
     3 C3      -2.9898  -2.2049  -2.1083   C.1       1 RES1   0.0000
     4 C4      -2.8616  -3.3381  -1.8919   C.1       1 RES1   0.0000
     5 C5      -2.6836  -4.7162  -1.6078   C.2       1 RES1   0.0000
     6 C6      -3.6955  -5.6752  -1.9360   C.2       1 RES1   0.0000
     7 C7      -3.5169  -7.0585  -1.6304   C.2       1 RES1   0.0000
     8 C8      -2.3114  -7.4755  -0.9756   C.2       1 RES1   0.0000
     9 C9      -1.2627  -6.5035  -0.6298   C.2       1 RES1   0.0000
    10 O10     -0.1027  -6.9150   0.0255   O.3       1 RES1   0.0000
    11 C11      0.0961  -6.9577   1.4518   C.3       1 RES1   0.0000
    12 C12     -0.0735  -5.5431   2.0434   C.3       1 RES1   0.0000
    13 C13      0.1420  -5.6186   3.5762   C.3       1 RES1   0.0000
    14 C14     -0.9001  -6.5524   4.2063   C.3       1 RES1   0.0000
    15 C15     -0.7199  -7.9497   3.6094   C.3       1 RES1   0.0000
    16 C16      0.6859  -8.4795   3.9180   C.3       1 RES1   0.0000
    17 C17      1.7119  -7.5291   3.2891   C.3       1 RES1   0.0000
    18 C18      1.5658  -6.1215   3.8832   C.3       1 RES1   0.0000
    19 C19      1.5171  -7.4754   1.7589   C.3       1 RES1   0.0000
    20 C20     -0.9456  -7.9040   2.0838   C.3       1 RES1   0.0000
    21 C21     -1.4712  -5.1257  -0.9594   C.2       1 RES1   0.0000
    22 N22     -2.3739  -0.6371  -3.6423   N.am      1 RES1   1.0000
    23 O23     -2.9520  -0.2842  -4.6960   O.2       1 RES1   0.0000
    24 C24     -0.9940  -0.8752  -3.6925   C.2       1 RES1   0.0000
    25 N25     -0.3623  -1.2496  -2.5556   N.am      1 RES1   0.0000
    26 O26     -0.3134  -0.7653  -4.7485   O.2       1 RES1   0.0000
@<TRIPOS>BOND
     1     2     1    1
     2     2     3    1
     3     3     4    3
     4     4     5    1
     5     5     6    2
     6     6     7    1
     7     7     8    2
     8     8     9    1
     9     9    10    1
    10    11    10    1
    11    11    12    1
    12    13    12    1
    13    13    14    1
    14    15    14    1
    15    15    16    1
    16    17    16    1
    17    17    18    1
    18    17    19    1
    19    15    20    1
    20     9    21    2
    21     2    22    1
    22    22    23    2
    23    22    24   am
    24    24    25   am
    25    24    26    2
    26    21     5    1
    27    19    11    1
    28    20    11    1
    29    18    13    1
@<TRIPOS>SUBSTRUCTURE
     1 RES1        1 GROUP             0 ****  ****    0  
@<TRIPOS>MOLECULE
ligand_35
    26    29     1     0     0
SMALL
USER_CHARGES
****
Generated from the CSD

@<TRIPOS>ATOM
     1 C1      -1.7456  -0.0742  -2.3790   C.3       1 RES1   0.0000
     2 C2      -3.1579  -0.7798  -2.3785   C.3       1 RES1   0.0000
     3 C3      -2.9898  -2.2049  -2.1083   C.1       1 RES1   0.0000
     4 C4      -2.8616  -3.3381  -1.8919   C.1       1 RES1   0.0000
     5 C5      -2.6836  -4.7162  -1.6078   C.2       1 RES1   0.0000
     6 C6      -3.6955  -5.6752  -1.9360   C.2       1 RES1   0.0000
     7 C7      -3.5169  -7.0585  -1.6304   C.2       1 RES1   0.0000
     8 C8      -2.3114  -7.4755  -0.9756   C.2       1 RES1   0.0000
     9 C9      -1.2627  -6.5035  -0.6298   C.2       1 RES1   0.0000
    10 O10     -0.1027  -6.9150   0.0255   O.3       1 RES1   0.0000
    11 C11      0.0961  -6.9577   1.4518   C.3       1 RES1   0.0000
    12 C12     -0.0735  -5.5431   2.0434   C.3       1 RES1   0.0000
    13 C13      0.1420  -5.6186   3.5762   C.3       1 RES1   0.0000
    14 C14     -0.9001  -6.5524   4.2063   C.3       1 RES1   0.0000
    15 C15     -0.7199  -7.9497   3.6094   C.3       1 RES1   0.0000
    16 C16      0.6859  -8.4795   3.9180   C.3       1 RES1   0.0000
    17 C17      1.7119  -7.5291   3.2891   C.3       1 RES1   0.0000
    18 C18      1.5658  -6.1215   3.8832   C.3       1 RES1   0.0000
    19 C19      1.5171  -7.4754   1.7589   C.3       1 RES1   0.0000
    20 C20     -0.9456  -7.9040   2.0838   C.3       1 RES1   0.0000
    21 C21     -1.4712  -5.1257  -0.9594   C.2       1 RES1   0.0000
    22 N22     -3.8275  -0.8220  -3.7134   N.am      1 RES1   1.0000
    23 O23     -4.9855  -0.3623  -3.8429   O.2       1 RES1   0.0000
    24 C24     -3.1961  -1.3535  -4.8457   C.2       1 RES1   0.0000
    25 N25     -1.9421  -1.8451  -4.7139   N.am      1 RES1   0.0000
    26 O26     -3.7437  -1.4034  -5.9807   O.2       1 RES1   0.0000
@<TRIPOS>BOND
     1     2     1    1
     2     2     3    1
     3     3     4    3
     4     4     5    1
     5     5     6    2
     6     6     7    1
     7     7     8    2
     8     8     9    1
     9     9    10    1
    10    11    10    1
    11    11    12    1
    12    13    12    1
    13    13    14    1
    14    15    14    1
    15    15    16    1
    16    17    16    1
    17    17    18    1
    18    17    19    1
    19    15    20    1
    20     9    21    2
    21     2    22    1
    22    22    23    2
    23    22    24   am
    24    24    25   am
    25    24    26    2
    26    21     5    1
    27    19    11    1
    28    20    11    1
    29    18    13    1
@<TRIPOS>SUBSTRUCTURE
     1 RES1        1 GROUP             0 ****  ****    0  
@<TRIPOS>MOLECULE
ligand_36
    26    29     1     0     0
SMALL
USER_CHARGES
****
Generated from the CSD

@<TRIPOS>ATOM
     1 C1      -4.8467  -9.0407  -6.1695   C.3       1 RES1   0.0000
     2 C2      -3.5756  -8.1072  -6.2412   C.3       1 RES1   0.0000
     3 C3      -3.3014  -7.5557  -4.9174   C.1       1 RES1   0.0000
     4 C4      -3.0851  -7.1121  -3.8667   C.1       1 RES1   0.0000
     5 C5      -2.7924  -6.5792  -2.5854   C.2       1 RES1   0.0000
     6 C6      -3.6392  -5.5929  -1.9841   C.2       1 RES1   0.0000
     7 C7      -3.3282  -5.0477  -0.7016   C.2       1 RES1   0.0000
     8 C8      -2.1445  -5.4926  -0.0258   C.2       1 RES1   0.0000
     9 C9      -1.2627  -6.5035  -0.6298   C.2       1 RES1   0.0000
    10 O10     -0.1027  -6.9150   0.0255   O.3       1 RES1   0.0000
    11 C11      0.1210  -6.8929   1.4486   C.3       1 RES1   0.0000
    12 C12      0.4063  -5.4480   1.9080   C.3       1 RES1   0.0000
    13 C13      0.6395  -5.4530   3.4401   C.3       1 RES1   0.0000
    14 C14     -0.6146  -5.9678   4.1591   C.3       1 RES1   0.0000
    15 C15     -0.8849  -7.3998   3.6928   C.3       1 RES1   0.0000
    16 C16      0.3046  -8.3031   4.0415   C.3       1 RES1   0.0000
    17 C17      1.5483  -7.7674   3.3222   C.3       1 RES1   0.0000
    18 C18      1.8541  -6.3362   3.7847   C.3       1 RES1   0.0000
    19 C19      1.3285  -7.7894   1.7946   C.3       1 RES1   0.0000
    20 C20     -1.1365  -7.4196   2.1707   C.3       1 RES1   0.0000
    21 C21     -1.6101  -7.0355  -1.9130   C.2       1 RES1   0.0000
    22 N22     -3.7723  -6.8560  -7.0338   N.am      1 RES1   1.0000
    23 O23     -2.9907  -6.5869  -7.9749   O.2       1 RES1   0.0000
    24 C24     -4.8202  -5.9645  -6.7684   C.2       1 RES1   0.0000
    25 N25     -4.9323  -4.8545  -7.5345   N.am      1 RES1   0.0000
    26 O26     -5.6693  -6.1511  -5.8548   O.2       1 RES1   0.0000
@<TRIPOS>BOND
     1     2     1    1
     2     2     3    1
     3     3     4    3
     4     4     5    1
     5     5     6    2
     6     6     7    1
     7     7     8    2
     8     8     9    1
     9     9    10    1
    10    11    10    1
    11    11    12    1
    12    13    12    1
    13    13    14    1
    14    15    14    1
    15    15    16    1
    16    17    16    1
    17    17    18    1
    18    17    19    1
    19    15    20    1
    20     9    21    2
    21     2    22    1
    22    22    23    2
    23    22    24   am
    24    24    25   am
    25    24    26    2
    26    21     5    1
    27    19    11    1
    28    20    11    1
    29    18    13    1
@<TRIPOS>SUBSTRUCTURE
     1 RES1        1 GROUP             0 ****  ****    0  
@<TRIPOS>MOLECULE
ligand_37
    26    29     1     0     0
SMALL
USER_CHARGES
****
Generated from the CSD

@<TRIPOS>ATOM
     1 C1      -5.0170  -7.6636  -6.7080   C.3       1 RES1   0.0000
     2 C2      -3.5756  -8.1072  -6.2412   C.3       1 RES1   0.0000
     3 C3      -3.3014  -7.5557  -4.9174   C.1       1 RES1   0.0000
     4 C4      -3.0851  -7.1121  -3.8667   C.1       1 RES1   0.0000
     5 C5      -2.7924  -6.5792  -2.5854   C.2       1 RES1   0.0000
     6 C6      -3.6392  -5.5929  -1.9841   C.2       1 RES1   0.0000
     7 C7      -3.3282  -5.0477  -0.7016   C.2       1 RES1   0.0000
     8 C8      -2.1445  -5.4926  -0.0258   C.2       1 RES1   0.0000
     9 C9      -1.2627  -6.5035  -0.6298   C.2       1 RES1   0.0000
    10 O10     -0.1027  -6.9150   0.0255   O.3       1 RES1   0.0000
    11 C11      0.1210  -6.8929   1.4486   C.3       1 RES1   0.0000
    12 C12      0.4063  -5.4480   1.9080   C.3       1 RES1   0.0000
    13 C13      0.6395  -5.4530   3.4401   C.3       1 RES1   0.0000
    14 C14     -0.6146  -5.9678   4.1591   C.3       1 RES1   0.0000
    15 C15     -0.8849  -7.3998   3.6928   C.3       1 RES1   0.0000
    16 C16      0.3046  -8.3031   4.0415   C.3       1 RES1   0.0000
    17 C17      1.5483  -7.7674   3.3222   C.3       1 RES1   0.0000
    18 C18      1.8541  -6.3362   3.7847   C.3       1 RES1   0.0000
    19 C19      1.3285  -7.7894   1.7946   C.3       1 RES1   0.0000
    20 C20     -1.1365  -7.4196   2.1707   C.3       1 RES1   0.0000
    21 C21     -1.6101  -7.0355  -1.9130   C.2       1 RES1   0.0000
    22 N22     -2.4588  -7.5094  -7.0336   N.am      1 RES1   1.0000
    23 O23     -1.6056  -8.2558  -7.5664   O.2       1 RES1   0.0000
    24 C24     -2.3338  -6.1258  -7.2160   C.2       1 RES1   0.0000
    25 N25     -1.2955  -5.6633  -7.9506   N.am      1 RES1   0.0000
    26 O26     -3.1475  -5.2908  -6.7354   O.2       1 RES1   0.0000
@<TRIPOS>BOND
     1     2     1    1
     2     2     3    1
     3     3     4    3
     4     4     5    1
     5     5     6    2
     6     6     7    1
     7     7     8    2
     8     8     9    1
     9     9    10    1
    10    11    10    1
    11    11    12    1
    12    13    12    1
    13    13    14    1
    14    15    14    1
    15    15    16    1
    16    17    16    1
    17    17    18    1
    18    17    19    1
    19    15    20    1
    20     9    21    2
    21     2    22    1
    22    22    23    2
    23    22    24   am
    24    24    25   am
    25    24    26    2
    26    21     5    1
    27    19    11    1
    28    20    11    1
    29    18    13    1
@<TRIPOS>SUBSTRUCTURE
     1 RES1        1 GROUP             0 ****  ****    0  
@<TRIPOS>MOLECULE
ligand_38
    26    29     1     0     0
SMALL
USER_CHARGES
****
Generated from the CSD

@<TRIPOS>ATOM
     1 C1      -3.8447  -6.9289  -7.2568   C.3       1 RES1   0.0000
     2 C2      -3.5756  -8.1072  -6.2412   C.3       1 RES1   0.0000
     3 C3      -3.3014  -7.5557  -4.9174   C.1       1 RES1   0.0000
     4 C4      -3.0851  -7.1121  -3.8667   C.1       1 RES1   0.0000
     5 C5      -2.7924  -6.5792  -2.5854   C.2       1 RES1   0.0000
     6 C6      -3.6392  -5.5929  -1.9841   C.2       1 RES1   0.0000
     7 C7      -3.3282  -5.0477  -0.7016   C.2       1 RES1   0.0000
     8 C8      -2.1445  -5.4926  -0.0258   C.2       1 RES1   0.0000
     9 C9      -1.2627  -6.5035  -0.6298   C.2       1 RES1   0.0000
    10 O10     -0.1027  -6.9150   0.0255   O.3       1 RES1   0.0000
    11 C11      0.1210  -6.8929   1.4486   C.3       1 RES1   0.0000
    12 C12      0.4063  -5.4480   1.9080   C.3       1 RES1   0.0000
    13 C13      0.6395  -5.4530   3.4401   C.3       1 RES1   0.0000
    14 C14     -0.6146  -5.9678   4.1591   C.3       1 RES1   0.0000
    15 C15     -0.8849  -7.3998   3.6928   C.3       1 RES1   0.0000
    16 C16      0.3046  -8.3031   4.0415   C.3       1 RES1   0.0000
    17 C17      1.5483  -7.7674   3.3222   C.3       1 RES1   0.0000
    18 C18      1.8541  -6.3362   3.7847   C.3       1 RES1   0.0000
    19 C19      1.3285  -7.7894   1.7946   C.3       1 RES1   0.0000
    20 C20     -1.1365  -7.4196   2.1707   C.3       1 RES1   0.0000
    21 C21     -1.6101  -7.0355  -1.9130   C.2       1 RES1   0.0000
    22 N22     -2.3151  -8.8675  -6.4975   N.am      1 RES1   1.0000
    23 O23     -2.3571 -10.1115  -6.6376   O.2       1 RES1   0.0000
    24 C24     -1.0708  -8.2316  -6.6002   C.2       1 RES1   0.0000
    25 N25      0.0240  -8.9911  -6.8374   N.am      1 RES1   0.0000
    26 O26     -0.9231  -6.9840  -6.4906   O.2       1 RES1   0.0000
@<TRIPOS>BOND
     1     2     1    1
     2     2     3    1
     3     3     4    3
     4     4     5    1
     5     5     6    2
     6     6     7    1
     7     7     8    2
     8     8     9    1
     9     9    10    1
    10    11    10    1
    11    11    12    1
    12    13    12    1
    13    13    14    1
    14    15    14    1
    15    15    16    1
    16    17    16    1
    17    17    18    1
    18    17    19    1
    19    15    20    1
    20     9    21    2
    21     2    22    1
    22    22    23    2
    23    22    24   am
    24    24    25   am
    25    24    26    2
    26    21     5    1
    27    19    11    1
    28    20    11    1
    29    18    13    1
@<TRIPOS>SUBSTRUCTURE
     1 RES1        1 GROUP             0 ****  ****    0  
@<TRIPOS>MOLECULE
ligand_39
    26    29     1     0     0
SMALL
USER_CHARGES
****
Generated from the CSD

@<TRIPOS>ATOM
     1 C1      -2.5020  -7.5713  -7.2672   C.3       1 RES1   0.0000
     2 C2      -3.5756  -8.1072  -6.2412   C.3       1 RES1   0.0000
     3 C3      -3.3014  -7.5557  -4.9174   C.1       1 RES1   0.0000
     4 C4      -3.0851  -7.1121  -3.8667   C.1       1 RES1   0.0000
     5 C5      -2.7924  -6.5792  -2.5854   C.2       1 RES1   0.0000
     6 C6      -3.6392  -5.5929  -1.9841   C.2       1 RES1   0.0000
     7 C7      -3.3282  -5.0477  -0.7016   C.2       1 RES1   0.0000
     8 C8      -2.1445  -5.4926  -0.0258   C.2       1 RES1   0.0000
     9 C9      -1.2627  -6.5035  -0.6298   C.2       1 RES1   0.0000
    10 O10     -0.1027  -6.9150   0.0255   O.3       1 RES1   0.0000
    11 C11      0.1210  -6.8929   1.4486   C.3       1 RES1   0.0000
    12 C12      0.4063  -5.4480   1.9080   C.3       1 RES1   0.0000
    13 C13      0.6395  -5.4530   3.4401   C.3       1 RES1   0.0000
    14 C14     -0.6146  -5.9678   4.1591   C.3       1 RES1   0.0000
    15 C15     -0.8849  -7.3998   3.6928   C.3       1 RES1   0.0000
    16 C16      0.3046  -8.3031   4.0415   C.3       1 RES1   0.0000
    17 C17      1.5483  -7.7674   3.3222   C.3       1 RES1   0.0000
    18 C18      1.8541  -6.3362   3.7847   C.3       1 RES1   0.0000
    19 C19      1.3285  -7.7894   1.7946   C.3       1 RES1   0.0000
    20 C20     -1.1365  -7.4196   2.1707   C.3       1 RES1   0.0000
    21 C21     -1.6101  -7.0355  -1.9130   C.2       1 RES1   0.0000
    22 N22     -3.4850  -9.5722  -5.9616   N.am      1 RES1   1.0000
    23 O23     -4.4937 -10.2983  -6.1174   O.2       1 RES1   0.0000
    24 C24     -2.2942 -10.1760  -5.5368   C.2       1 RES1   0.0000
    25 N25     -2.2934 -11.5100  -5.3080   N.am      1 RES1   0.0000
    26 O26     -1.2204  -9.5374  -5.3652   O.2       1 RES1   0.0000
@<TRIPOS>BOND
     1     2     1    1
     2     2     3    1
     3     3     4    3
     4     4     5    1
     5     5     6    2
     6     6     7    1
     7     7     8    2
     8     8     9    1
     9     9    10    1
    10    11    10    1
    11    11    12    1
    12    13    12    1
    13    13    14    1
    14    15    14    1
    15    15    16    1
    16    17    16    1
    17    17    18    1
    18    17    19    1
    19    15    20    1
    20     9    21    2
    21     2    22    1
    22    22    23    2
    23    22    24   am
    24    24    25   am
    25    24    26    2
    26    21     5    1
    27    19    11    1
    28    20    11    1
    29    18    13    1
@<TRIPOS>SUBSTRUCTURE
     1 RES1        1 GROUP             0 ****  ****    0  
@<TRIPOS>MOLECULE
ligand_40
    26    29     1     0     0
SMALL
USER_CHARGES
****
Generated from the CSD

@<TRIPOS>ATOM
     1 C1      -2.3317  -8.9484  -6.7287   C.3       1 RES1   0.0000
     2 C2      -3.5756  -8.1072  -6.2412   C.3       1 RES1   0.0000
     3 C3      -3.3014  -7.5557  -4.9174   C.1       1 RES1   0.0000
     4 C4      -3.0851  -7.1121  -3.8667   C.1       1 RES1   0.0000
     5 C5      -2.7924  -6.5792  -2.5854   C.2       1 RES1   0.0000
     6 C6      -3.6392  -5.5929  -1.9841   C.2       1 RES1   0.0000
     7 C7      -3.3282  -5.0477  -0.7016   C.2       1 RES1   0.0000
     8 C8      -2.1445  -5.4926  -0.0258   C.2       1 RES1   0.0000
     9 C9      -1.2627  -6.5035  -0.6298   C.2       1 RES1   0.0000
    10 O10     -0.1027  -6.9150   0.0255   O.3       1 RES1   0.0000
    11 C11      0.1210  -6.8929   1.4486   C.3       1 RES1   0.0000
    12 C12      0.4063  -5.4480   1.9080   C.3       1 RES1   0.0000
    13 C13      0.6395  -5.4530   3.4401   C.3       1 RES1   0.0000
    14 C14     -0.6146  -5.9678   4.1591   C.3       1 RES1   0.0000
    15 C15     -0.8849  -7.3998   3.6928   C.3       1 RES1   0.0000
    16 C16      0.3046  -8.3031   4.0415   C.3       1 RES1   0.0000
    17 C17      1.5483  -7.7674   3.3222   C.3       1 RES1   0.0000
    18 C18      1.8541  -6.3362   3.7847   C.3       1 RES1   0.0000
    19 C19      1.3285  -7.7894   1.7946   C.3       1 RES1   0.0000
    20 C20     -1.1365  -7.4196   2.1707   C.3       1 RES1   0.0000
    21 C21     -1.6101  -7.0355  -1.9130   C.2       1 RES1   0.0000
    22 N22     -4.7986  -8.9187  -5.9619   N.am      1 RES1   1.0000
    23 O23     -5.8789  -8.6293  -6.5259   O.2       1 RES1   0.0000
    24 C24     -4.7806 -10.0147  -5.0891   C.2       1 RES1   0.0000
    25 N25     -5.9302 -10.7012  -4.8919   N.am      1 RES1   0.0000
    26 O26     -3.7422 -10.3977  -4.4845   O.2       1 RES1   0.0000
@<TRIPOS>BOND
     1     2     1    1
     2     2     3    1
     3     3     4    3
     4     4     5    1
     5     5     6    2
     6     6     7    1
     7     7     8    2
     8     8     9    1
     9     9    10    1
    10    11    10    1
    11    11    12    1
    12    13    12    1
    13    13    14    1
    14    15    14    1
    15    15    16    1
    16    17    16    1
    17    17    18    1
    18    17    19    1
    19    15    20    1
    20     9    21    2
    21     2    22    1
    22    22    23    2
    23    22    24   am
    24    24    25   am
    25    24    26    2
    26    21     5    1
    27    19    11    1
    28    20    11    1
    29    18    13    1
@<TRIPOS>SUBSTRUCTURE
     1 RES1        1 GROUP             0 ****  ****    0  
@<TRIPOS>MOLECULE
ligand_41
    26    29     1     0     0
SMALL
USER_CHARGES
****
Generated from the CSD

@<TRIPOS>ATOM
     1 C1      -3.5041  -9.6831  -6.1798   C.3       1 RES1   0.0000
     2 C2      -3.5756  -8.1072  -6.2412   C.3       1 RES1   0.0000
     3 C3      -3.3014  -7.5557  -4.9174   C.1       1 RES1   0.0000
     4 C4      -3.0851  -7.1121  -3.8667   C.1       1 RES1   0.0000
     5 C5      -2.7924  -6.5792  -2.5854   C.2       1 RES1   0.0000
     6 C6      -3.6392  -5.5929  -1.9841   C.2       1 RES1   0.0000
     7 C7      -3.3282  -5.0477  -0.7016   C.2       1 RES1   0.0000
     8 C8      -2.1445  -5.4926  -0.0258   C.2       1 RES1   0.0000
     9 C9      -1.2627  -6.5035  -0.6298   C.2       1 RES1   0.0000
    10 O10     -0.1027  -6.9150   0.0255   O.3       1 RES1   0.0000
    11 C11      0.1210  -6.8929   1.4486   C.3       1 RES1   0.0000
    12 C12      0.4063  -5.4480   1.9080   C.3       1 RES1   0.0000
    13 C13      0.6395  -5.4530   3.4401   C.3       1 RES1   0.0000
    14 C14     -0.6146  -5.9678   4.1591   C.3       1 RES1   0.0000
    15 C15     -0.8849  -7.3998   3.6928   C.3       1 RES1   0.0000
    16 C16      0.3046  -8.3031   4.0415   C.3       1 RES1   0.0000
    17 C17      1.5483  -7.7674   3.3222   C.3       1 RES1   0.0000
    18 C18      1.8541  -6.3362   3.7847   C.3       1 RES1   0.0000
    19 C19      1.3285  -7.7894   1.7946   C.3       1 RES1   0.0000
    20 C20     -1.1365  -7.4196   2.1707   C.3       1 RES1   0.0000
    21 C21     -1.6101  -7.0355  -1.9130   C.2       1 RES1   0.0000
    22 N22     -4.9422  -7.5607  -6.4980   N.am      1 RES1   1.0000
    23 O23     -5.1274  -6.7737  -7.4546   O.2       1 RES1   0.0000
    24 C24     -6.0436  -7.9090  -5.7049   C.2       1 RES1   0.0000
    25 N25     -7.2497  -7.3734  -6.0052   N.am      1 RES1   0.0000
    26 O26     -5.9666  -8.7045  -4.7294   O.2       1 RES1   0.0000
@<TRIPOS>BOND
     1     2     1    1
     2     2     3    1
     3     3     4    3
     4     4     5    1
     5     5     6    2
     6     6     7    1
     7     7     8    2
     8     8     9    1
     9     9    10    1
    10    11    10    1
    11    11    12    1
    12    13    12    1
    13    13    14    1
    14    15    14    1
    15    15    16    1
    16    17    16    1
    17    17    18    1
    18    17    19    1
    19    15    20    1
    20     9    21    2
    21     2    22    1
    22    22    23    2
    23    22    24   am
    24    24    25   am
    25    24    26    2
    26    21     5    1
    27    19    11    1
    28    20    11    1
    29    18    13    1
@<TRIPOS>SUBSTRUCTURE
     1 RES1        1 GROUP             0 ****  ****    0  
@<TRIPOS>MOLECULE
ligand_42
    26    29     1     0     0
SMALL
USER_CHARGES
****
Generated from the CSD

@<TRIPOS>ATOM
     1 C1       1.4326  -6.4861  -7.9030   C.3       1 RES1   0.0000
     2 C2       2.2066  -7.3671  -6.8460   C.3       1 RES1   0.0000
     3 C3       2.0016  -6.8158  -5.5096   C.1       1 RES1   0.0000
     4 C4       1.8440  -6.3760  -4.4470   C.1       1 RES1   0.0000
     5 C5       1.6434  -5.8656  -3.1390   C.2       1 RES1   0.0000
     6 C6       2.2363  -4.6277  -2.7297   C.2       1 RES1   0.0000
     7 C7       2.0447  -4.1292  -1.4054   C.2       1 RES1   0.0000
     8 C8       1.2582  -4.8938  -0.4821   C.2       1 RES1   0.0000
     9 C9       0.6435  -6.1680  -0.8854   C.2       1 RES1   0.0000
    10 O10     -0.1027  -6.9150   0.0255   O.3       1 RES1   0.0000
    11 C11      0.0483  -6.9022   1.4583   C.3       1 RES1   0.0000
    12 C12     -0.5881  -5.6216   2.0371   C.3       1 RES1   0.0000
    13 C13     -0.4144  -5.6353   3.5770   C.3       1 RES1   0.0000
    14 C14     -1.1227  -6.8591   4.1731   C.3       1 RES1   0.0000
    15 C15     -0.4817  -8.1198   3.5893   C.3       1 RES1   0.0000
    16 C16      1.0079  -8.1718   3.9508   C.3       1 RES1   0.0000
    17 C17      1.6955  -6.9375   3.3552   C.3       1 RES1   0.0000
    18 C18      1.0835  -5.6560   3.9374   C.3       1 RES1   0.0000
    19 C19      1.5485  -6.9379   1.8187   C.3       1 RES1   0.0000
    20 C20     -0.6556  -8.1378   2.0564   C.3       1 RES1   0.0000
    21 C21      0.8487  -6.6333  -2.2240   C.2       1 RES1   0.0000
    22 N22      3.6950  -7.2974  -6.9555   N.am      1 RES1   1.0000
    23 O23      4.3593  -8.3520  -7.0795   O.2       1 RES1   0.0000
    24 C24      4.3859  -6.0785  -6.9364   C.2       1 RES1   0.0000
    25 N25      5.7348  -6.1000  -7.0445   N.am      1 RES1   0.0000
    26 O26      3.8102  -4.9613  -6.8316   O.2       1 RES1   0.0000
@<TRIPOS>BOND
     1     2     1    1
     2     2     3    1
     3     3     4    3
     4     4     5    1
     5     5     6    2
     6     6     7    1
     7     7     8    2
     8     8     9    1
     9     9    10    1
    10    11    10    1
    11    11    12    1
    12    13    12    1
    13    13    14    1
    14    15    14    1
    15    15    16    1
    16    17    16    1
    17    17    18    1
    18    17    19    1
    19    15    20    1
    20     9    21    2
    21     2    22    1
    22    22    23    2
    23    22    24   am
    24    24    25   am
    25    24    26    2
    26    21     5    1
    27    19    11    1
    28    20    11    1
    29    18    13    1
@<TRIPOS>SUBSTRUCTURE
     1 RES1        1 GROUP             0 ****  ****    0  
@<TRIPOS>MOLECULE
ligand_43
    26    29     1     0     0
SMALL
USER_CHARGES
****
Generated from the CSD

@<TRIPOS>ATOM
     1 C1       2.9004  -6.2840  -7.7613   C.3       1 RES1   0.0000
     2 C2       2.2066  -7.3671  -6.8460   C.3       1 RES1   0.0000
     3 C3       2.0016  -6.8158  -5.5096   C.1       1 RES1   0.0000
     4 C4       1.8440  -6.3760  -4.4470   C.1       1 RES1   0.0000
     5 C5       1.6434  -5.8656  -3.1390   C.2       1 RES1   0.0000
     6 C6       2.2363  -4.6277  -2.7297   C.2       1 RES1   0.0000
     7 C7       2.0447  -4.1292  -1.4054   C.2       1 RES1   0.0000
     8 C8       1.2582  -4.8938  -0.4821   C.2       1 RES1   0.0000
     9 C9       0.6435  -6.1680  -0.8854   C.2       1 RES1   0.0000
    10 O10     -0.1027  -6.9150   0.0255   O.3       1 RES1   0.0000
    11 C11      0.0483  -6.9022   1.4583   C.3       1 RES1   0.0000
    12 C12     -0.5881  -5.6216   2.0371   C.3       1 RES1   0.0000
    13 C13     -0.4144  -5.6353   3.5770   C.3       1 RES1   0.0000
    14 C14     -1.1227  -6.8591   4.1731   C.3       1 RES1   0.0000
    15 C15     -0.4817  -8.1198   3.5893   C.3       1 RES1   0.0000
    16 C16      1.0079  -8.1718   3.9508   C.3       1 RES1   0.0000
    17 C17      1.6955  -6.9375   3.3552   C.3       1 RES1   0.0000
    18 C18      1.0835  -5.6560   3.9374   C.3       1 RES1   0.0000
    19 C19      1.5485  -6.9379   1.8187   C.3       1 RES1   0.0000
    20 C20     -0.6556  -8.1378   2.0564   C.3       1 RES1   0.0000
    21 C21      0.8487  -6.6333  -2.2240   C.2       1 RES1   0.0000
    22 N22      3.0617  -8.5522  -6.5351   N.am      1 RES1   1.0000
    23 O23      2.6409  -9.7052  -6.7849   O.2       1 RES1   0.0000
    24 C24      4.3403  -8.4208  -5.9772   C.2       1 RES1   0.0000
    25 N25      5.0539  -9.5436  -5.7285   N.am      1 RES1   0.0000
    26 O26      4.8618  -7.3057  -5.7033   O.2       1 RES1   0.0000
@<TRIPOS>BOND
     1     2     1    1
     2     2     3    1
     3     3     4    3
     4     4     5    1
     5     5     6    2
     6     6     7    1
     7     7     8    2
     8     8     9    1
     9     9    10    1
    10    11    10    1
    11    11    12    1
    12    13    12    1
    13    13    14    1
    14    15    14    1
    15    15    16    1
    16    17    16    1
    17    17    18    1
    18    17    19    1
    19    15    20    1
    20     9    21    2
    21     2    22    1
    22    22    23    2
    23    22    24   am
    24    24    25   am
    25    24    26    2
    26    21     5    1
    27    19    11    1
    28    20    11    1
    29    18    13    1
@<TRIPOS>SUBSTRUCTURE
     1 RES1        1 GROUP             0 ****  ****    0  
@<TRIPOS>MOLECULE
ligand_44
    26    29     1     0     0
SMALL
USER_CHARGES
****
Generated from the CSD

@<TRIPOS>ATOM
     1 C1       3.7483  -7.3636  -7.1859   C.3       1 RES1   0.0000
     2 C2       2.2066  -7.3671  -6.8460   C.3       1 RES1   0.0000
     3 C3       2.0016  -6.8158  -5.5096   C.1       1 RES1   0.0000
     4 C4       1.8440  -6.3760  -4.4470   C.1       1 RES1   0.0000
     5 C5       1.6434  -5.8656  -3.1390   C.2       1 RES1   0.0000
     6 C6       2.2363  -4.6277  -2.7297   C.2       1 RES1   0.0000
     7 C7       2.0447  -4.1292  -1.4054   C.2       1 RES1   0.0000
     8 C8       1.2582  -4.8938  -0.4821   C.2       1 RES1   0.0000
     9 C9       0.6435  -6.1680  -0.8854   C.2       1 RES1   0.0000
    10 O10     -0.1027  -6.9150   0.0255   O.3       1 RES1   0.0000
    11 C11      0.0483  -6.9022   1.4583   C.3       1 RES1   0.0000
    12 C12     -0.5881  -5.6216   2.0371   C.3       1 RES1   0.0000
    13 C13     -0.4144  -5.6353   3.5770   C.3       1 RES1   0.0000
    14 C14     -1.1227  -6.8591   4.1731   C.3       1 RES1   0.0000
    15 C15     -0.4817  -8.1198   3.5893   C.3       1 RES1   0.0000
    16 C16      1.0079  -8.1718   3.9508   C.3       1 RES1   0.0000
    17 C17      1.6955  -6.9375   3.3552   C.3       1 RES1   0.0000
    18 C18      1.0835  -5.6560   3.9374   C.3       1 RES1   0.0000
    19 C19      1.5485  -6.9379   1.8187   C.3       1 RES1   0.0000
    20 C20     -0.6556  -8.1378   2.0564   C.3       1 RES1   0.0000
    21 C21      0.8487  -6.6333  -2.2240   C.2       1 RES1   0.0000
    22 N22      1.6130  -8.7287  -6.6845   N.am      1 RES1   1.0000
    23 O23      0.6128  -9.0554  -7.3640   O.2       1 RES1   0.0000
    24 C24      2.1472  -9.6725  -5.7973   C.2       1 RES1   0.0000
    25 N25      1.5536 -10.8857  -5.7117   N.am      1 RES1   0.0000
    26 O26      3.1603  -9.4486  -5.0804   O.2       1 RES1   0.0000
@<TRIPOS>BOND
     1     2     1    1
     2     2     3    1
     3     3     4    3
     4     4     5    1
     5     5     6    2
     6     6     7    1
     7     7     8    2
     8     8     9    1
     9     9    10    1
    10    11    10    1
    11    11    12    1
    12    13    12    1
    13    13    14    1
    14    15    14    1
    15    15    16    1
    16    17    16    1
    17    17    18    1
    18    17    19    1
    19    15    20    1
    20     9    21    2
    21     2    22    1
    22    22    23    2
    23    22    24   am
    24    24    25   am
    25    24    26    2
    26    21     5    1
    27    19    11    1
    28    20    11    1
    29    18    13    1
@<TRIPOS>SUBSTRUCTURE
     1 RES1        1 GROUP             0 ****  ****    0  
@<TRIPOS>MOLECULE
ligand_45
    26    29     1     0     0
SMALL
USER_CHARGES
****
Generated from the CSD

@<TRIPOS>ATOM
     1 C1       3.1283  -8.6454  -6.7523   C.3       1 RES1   0.0000
     2 C2       2.2066  -7.3671  -6.8460   C.3       1 RES1   0.0000
     3 C3       2.0016  -6.8158  -5.5096   C.1       1 RES1   0.0000
     4 C4       1.8440  -6.3760  -4.4470   C.1       1 RES1   0.0000
     5 C5       1.6434  -5.8656  -3.1390   C.2       1 RES1   0.0000
     6 C6       2.2363  -4.6277  -2.7297   C.2       1 RES1   0.0000
     7 C7       2.0447  -4.1292  -1.4054   C.2       1 RES1   0.0000
     8 C8       1.2582  -4.8938  -0.4821   C.2       1 RES1   0.0000
     9 C9       0.6435  -6.1680  -0.8854   C.2       1 RES1   0.0000
    10 O10     -0.1027  -6.9150   0.0255   O.3       1 RES1   0.0000
    11 C11      0.0483  -6.9022   1.4583   C.3       1 RES1   0.0000
    12 C12     -0.5881  -5.6216   2.0371   C.3       1 RES1   0.0000
    13 C13     -0.4144  -5.6353   3.5770   C.3       1 RES1   0.0000
    14 C14     -1.1227  -6.8591   4.1731   C.3       1 RES1   0.0000
    15 C15     -0.4817  -8.1198   3.5893   C.3       1 RES1   0.0000
    16 C16      1.0079  -8.1718   3.9508   C.3       1 RES1   0.0000
    17 C17      1.6955  -6.9375   3.3552   C.3       1 RES1   0.0000
    18 C18      1.0835  -5.6560   3.9374   C.3       1 RES1   0.0000
    19 C19      1.5485  -6.9379   1.8187   C.3       1 RES1   0.0000
    20 C20     -0.6556  -8.1378   2.0564   C.3       1 RES1   0.0000
    21 C21      0.8487  -6.6333  -2.2240   C.2       1 RES1   0.0000
    22 N22      0.7975  -7.6504  -7.2543   N.am      1 RES1   1.0000
    23 O23      0.3030  -7.0525  -8.2376   O.2       1 RES1   0.0000
    24 C24     -0.0002  -8.5818  -6.5765   C.2       1 RES1   0.0000
    25 N25     -1.2659  -8.7842  -7.0110   N.am      1 RES1   0.0000
    26 O26      0.4074  -9.2471  -5.5857   O.2       1 RES1   0.0000
@<TRIPOS>BOND
     1     2     1    1
     2     2     3    1
     3     3     4    3
     4     4     5    1
     5     5     6    2
     6     6     7    1
     7     7     8    2
     8     8     9    1
     9     9    10    1
    10    11    10    1
    11    11    12    1
    12    13    12    1
    13    13    14    1
    14    15    14    1
    15    15    16    1
    16    17    16    1
    17    17    18    1
    18    17    19    1
    19    15    20    1
    20     9    21    2
    21     2    22    1
    22    22    23    2
    23    22    24   am
    24    24    25   am
    25    24    26    2
    26    21     5    1
    27    19    11    1
    28    20    11    1
    29    18    13    1
@<TRIPOS>SUBSTRUCTURE
     1 RES1        1 GROUP             0 ****  ****    0  
@<TRIPOS>MOLECULE
ligand_46
    26    29     1     0     0
SMALL
USER_CHARGES
****
Generated from the CSD

@<TRIPOS>ATOM
     1 C1       1.6604  -8.8476  -6.8940   C.3       1 RES1   0.0000
     2 C2       2.2066  -7.3671  -6.8460   C.3       1 RES1   0.0000
     3 C3       2.0016  -6.8158  -5.5096   C.1       1 RES1   0.0000
     4 C4       1.8440  -6.3760  -4.4470   C.1       1 RES1   0.0000
     5 C5       1.6434  -5.8656  -3.1390   C.2       1 RES1   0.0000
     6 C6       2.2363  -4.6277  -2.7297   C.2       1 RES1   0.0000
     7 C7       2.0447  -4.1292  -1.4054   C.2       1 RES1   0.0000
     8 C8       1.2582  -4.8938  -0.4821   C.2       1 RES1   0.0000
     9 C9       0.6435  -6.1680  -0.8854   C.2       1 RES1   0.0000
    10 O10     -0.1027  -6.9150   0.0255   O.3       1 RES1   0.0000
    11 C11      0.0483  -6.9022   1.4583   C.3       1 RES1   0.0000
    12 C12     -0.5881  -5.6216   2.0371   C.3       1 RES1   0.0000
    13 C13     -0.4144  -5.6353   3.5770   C.3       1 RES1   0.0000
    14 C14     -1.1227  -6.8591   4.1731   C.3       1 RES1   0.0000
    15 C15     -0.4817  -8.1198   3.5893   C.3       1 RES1   0.0000
    16 C16      1.0079  -8.1718   3.9508   C.3       1 RES1   0.0000
    17 C17      1.6955  -6.9375   3.3552   C.3       1 RES1   0.0000
    18 C18      1.0835  -5.6560   3.9374   C.3       1 RES1   0.0000
    19 C19      1.5485  -6.9379   1.8187   C.3       1 RES1   0.0000
    20 C20     -0.6556  -8.1378   2.0564   C.3       1 RES1   0.0000
    21 C21      0.8487  -6.6333  -2.2240   C.2       1 RES1   0.0000
    22 N22      1.4308  -6.3956  -7.6748   N.am      1 RES1   1.0000
    23 O23      2.0215  -5.6994  -8.5322   O.2       1 RES1   0.0000
    24 C24      0.0453  -6.2395  -7.5357   C.2       1 RES1   0.0000
    25 N25     -0.5851  -5.3405  -8.3270   N.am      1 RES1   0.0000
    26 O26     -0.6442  -6.9027  -6.7140   O.2       1 RES1   0.0000
@<TRIPOS>BOND
     1     2     1    1
     2     2     3    1
     3     3     4    3
     4     4     5    1
     5     5     6    2
     6     6     7    1
     7     7     8    2
     8     8     9    1
     9     9    10    1
    10    11    10    1
    11    11    12    1
    12    13    12    1
    13    13    14    1
    14    15    14    1
    15    15    16    1
    16    17    16    1
    17    17    18    1
    18    17    19    1
    19    15    20    1
    20     9    21    2
    21     2    22    1
    22    22    23    2
    23    22    24   am
    24    24    25   am
    25    24    26    2
    26    21     5    1
    27    19    11    1
    28    20    11    1
    29    18    13    1
@<TRIPOS>SUBSTRUCTURE
     1 RES1        1 GROUP             0 ****  ****    0  
@<TRIPOS>MOLECULE
ligand_47
    26    29     1     0     0
SMALL
USER_CHARGES
****
Generated from the CSD

@<TRIPOS>ATOM
     1 C1       0.8126  -7.7680  -7.4694   C.3       1 RES1   0.0000
     2 C2       2.2066  -7.3671  -6.8460   C.3       1 RES1   0.0000
     3 C3       2.0016  -6.8158  -5.5096   C.1       1 RES1   0.0000
     4 C4       1.8440  -6.3760  -4.4470   C.1       1 RES1   0.0000
     5 C5       1.6434  -5.8656  -3.1390   C.2       1 RES1   0.0000
     6 C6       2.2363  -4.6277  -2.7297   C.2       1 RES1   0.0000
     7 C7       2.0447  -4.1292  -1.4054   C.2       1 RES1   0.0000
     8 C8       1.2582  -4.8938  -0.4821   C.2       1 RES1   0.0000
     9 C9       0.6435  -6.1680  -0.8854   C.2       1 RES1   0.0000
    10 O10     -0.1027  -6.9150   0.0255   O.3       1 RES1   0.0000
    11 C11      0.0483  -6.9022   1.4583   C.3       1 RES1   0.0000
    12 C12     -0.5881  -5.6216   2.0371   C.3       1 RES1   0.0000
    13 C13     -0.4144  -5.6353   3.5770   C.3       1 RES1   0.0000
    14 C14     -1.1227  -6.8591   4.1731   C.3       1 RES1   0.0000
    15 C15     -0.4817  -8.1198   3.5893   C.3       1 RES1   0.0000
    16 C16      1.0079  -8.1718   3.9508   C.3       1 RES1   0.0000
    17 C17      1.6955  -6.9375   3.3552   C.3       1 RES1   0.0000
    18 C18      1.0835  -5.6560   3.9374   C.3       1 RES1   0.0000
    19 C19      1.5485  -6.9379   1.8187   C.3       1 RES1   0.0000
    20 C20     -0.6556  -8.1378   2.0564   C.3       1 RES1   0.0000
    21 C21      0.8487  -6.6333  -2.2240   C.2       1 RES1   0.0000
    22 N22      2.8796  -6.2191  -7.5254   N.am      1 RES1   1.0000
    23 O23      4.0496  -6.3491  -7.9532   O.2       1 RES1   0.0000
    24 C24      2.2384  -4.9879  -7.7156   C.2       1 RES1   0.0000
    25 N25      2.9153  -3.9984  -8.3438   N.am      1 RES1   0.0000
    26 O26      1.0573  -4.7598  -7.3370   O.2       1 RES1   0.0000
@<TRIPOS>BOND
     1     2     1    1
     2     2     3    1
     3     3     4    3
     4     4     5    1
     5     5     6    2
     6     6     7    1
     7     7     8    2
     8     8     9    1
     9     9    10    1
    10    11    10    1
    11    11    12    1
    12    13    12    1
    13    13    14    1
    14    15    14    1
    15    15    16    1
    16    17    16    1
    17    17    18    1
    18    17    19    1
    19    15    20    1
    20     9    21    2
    21     2    22    1
    22    22    23    2
    23    22    24   am
    24    24    25   am
    25    24    26    2
    26    21     5    1
    27    19    11    1
    28    20    11    1
    29    18    13    1
@<TRIPOS>SUBSTRUCTURE
     1 RES1        1 GROUP             0 ****  ****    0  
@<TRIPOS>MOLECULE
ligand_48
    26    29     1     0     0
SMALL
USER_CHARGES
****
Generated from the CSD

@<TRIPOS>ATOM
     1 C1       2.7296   0.5843  -1.0420   C.3       1 RES1   0.0000
     2 C2       1.3179   0.0434  -1.4967   C.3       1 RES1   0.0000
     3 C3       1.3647  -1.4124  -1.5999   C.1       1 RES1   0.0000
     4 C4       1.4016  -2.5693  -1.6876   C.1       1 RES1   0.0000
     5 C5       1.4221  -3.9845  -1.7776   C.2       1 RES1   0.0000
     6 C6       2.1518  -4.6485  -2.8159   C.2       1 RES1   0.0000
     7 C7       2.1530  -6.0732  -2.9110   C.2       1 RES1   0.0000
     8 C8       1.4000  -6.8340  -1.9570   C.2       1 RES1   0.0000
     9 C9       0.6435  -6.1680  -0.8854   C.2       1 RES1   0.0000
    10 O10     -0.1027  -6.9150   0.0255   O.3       1 RES1   0.0000
    11 C11      0.1523  -7.0296   1.4389   C.3       1 RES1   0.0000
    12 C12      0.0526  -5.6393   2.0999   C.3       1 RES1   0.0000
    13 C13      0.3275  -5.7920   3.6174   C.3       1 RES1   0.0000
    14 C14     -0.7179  -6.7217   4.2481   C.3       1 RES1   0.0000
    15 C15     -0.6074  -8.0948   3.5821   C.3       1 RES1   0.0000
    16 C16      0.7919  -8.6808   3.8073   C.3       1 RES1   0.0000
    17 C17      1.8218  -7.7341   3.1793   C.3       1 RES1   0.0000
    18 C18      1.7454  -6.3517   3.8416   C.3       1 RES1   0.0000
    19 C19      1.5670  -7.6040   1.6625   C.3       1 RES1   0.0000
    20 C20     -0.8930  -7.9719   2.0709   C.3       1 RES1   0.0000
    21 C21      0.6722  -4.7382  -0.8145   C.2       1 RES1   0.0000
    22 N22      0.9350   0.4138  -2.8926   N.am      1 RES1   1.0000
    23 O23     -0.1511   1.0006  -3.1043   O.2       1 RES1   0.0000
    24 C24      1.7620   0.1362  -3.9891   C.2       1 RES1   0.0000
    25 N25      1.3448   0.5075  -5.2219   N.am      1 RES1   0.0000
    26 O26      2.8808  -0.4358  -3.8815   O.2       1 RES1   0.0000
@<TRIPOS>BOND
     1     2     1    1
     2     2     3    1
     3     3     4    3
     4     4     5    1
     5     5     6    2
     6     6     7    1
     7     7     8    2
     8     8     9    1
     9     9    10    1
    10    11    10    1
    11    11    12    1
    12    13    12    1
    13    13    14    1
    14    15    14    1
    15    15    16    1
    16    17    16    1
    17    17    18    1
    18    17    19    1
    19    15    20    1
    20     9    21    2
    21     2    22    1
    22    22    23    2
    23    22    24   am
    24    24    25   am
    25    24    26    2
    26    21     5    1
    27    19    11    1
    28    20    11    1
    29    18    13    1
@<TRIPOS>SUBSTRUCTURE
     1 RES1        1 GROUP             0 ****  ****    0  
@<TRIPOS>MOLECULE
ligand_49
    26    29     1     0     0
SMALL
USER_CHARGES
****
Generated from the CSD

@<TRIPOS>ATOM
     1 C1       1.7161   0.6824  -2.8843   C.3       1 RES1   0.0000
     2 C2       1.3179   0.0434  -1.4967   C.3       1 RES1   0.0000
     3 C3       1.3647  -1.4124  -1.5999   C.1       1 RES1   0.0000
     4 C4       1.4016  -2.5693  -1.6876   C.1       1 RES1   0.0000
     5 C5       1.4221  -3.9845  -1.7776   C.2       1 RES1   0.0000
     6 C6       2.1518  -4.6485  -2.8159   C.2       1 RES1   0.0000
     7 C7       2.1530  -6.0732  -2.9110   C.2       1 RES1   0.0000
     8 C8       1.4000  -6.8340  -1.9570   C.2       1 RES1   0.0000
     9 C9       0.6435  -6.1680  -0.8854   C.2       1 RES1   0.0000
    10 O10     -0.1027  -6.9150   0.0255   O.3       1 RES1   0.0000
    11 C11      0.1523  -7.0296   1.4389   C.3       1 RES1   0.0000
    12 C12      0.0526  -5.6393   2.0999   C.3       1 RES1   0.0000
    13 C13      0.3275  -5.7920   3.6174   C.3       1 RES1   0.0000
    14 C14     -0.7179  -6.7217   4.2481   C.3       1 RES1   0.0000
    15 C15     -0.6074  -8.0948   3.5821   C.3       1 RES1   0.0000
    16 C16      0.7919  -8.6808   3.8073   C.3       1 RES1   0.0000
    17 C17      1.8218  -7.7341   3.1793   C.3       1 RES1   0.0000
    18 C18      1.7454  -6.3517   3.8416   C.3       1 RES1   0.0000
    19 C19      1.5670  -7.6040   1.6625   C.3       1 RES1   0.0000
    20 C20     -0.8930  -7.9719   2.0709   C.3       1 RES1   0.0000
    21 C21      0.6722  -4.7382  -0.8145   C.2       1 RES1   0.0000
    22 N22     -0.1091   0.2536  -1.1068   N.am      1 RES1   1.0000
    23 O23     -0.3811   0.7731   0.0000   O.2       1 RES1   0.0000
    24 C24     -1.1704  -0.1028  -1.9493   C.2       1 RES1   0.0000
    25 N25     -2.4353   0.1237  -1.5243   N.am      1 RES1   0.0000
    26 O26     -1.0036  -0.6170  -3.0887   O.2       1 RES1   0.0000
@<TRIPOS>BOND
     1     2     1    1
     2     2     3    1
     3     3     4    3
     4     4     5    1
     5     5     6    2
     6     6     7    1
     7     7     8    2
     8     8     9    1
     9     9    10    1
    10    11    10    1
    11    11    12    1
    12    13    12    1
    13    13    14    1
    14    15    14    1
    15    15    16    1
    16    17    16    1
    17    17    18    1
    18    17    19    1
    19    15    20    1
    20     9    21    2
    21     2    22    1
    22    22    23    2
    23    22    24   am
    24    24    25   am
    25    24    26    2
    26    21     5    1
    27    19    11    1
    28    20    11    1
    29    18    13    1
@<TRIPOS>SUBSTRUCTURE
     1 RES1        1 GROUP             0 ****  ****    0  
@<TRIPOS>MOLECULE
ligand_50
    26    29     1     0     0
SMALL
USER_CHARGES
****
Generated from the CSD

@<TRIPOS>ATOM
     1 C1       0.2713   0.6110  -2.5334   C.3       1 RES1   0.0000
     2 C2       1.3179   0.0434  -1.4967   C.3       1 RES1   0.0000
     3 C3       1.3647  -1.4124  -1.5999   C.1       1 RES1   0.0000
     4 C4       1.4016  -2.5693  -1.6876   C.1       1 RES1   0.0000
     5 C5       1.4221  -3.9845  -1.7776   C.2       1 RES1   0.0000
     6 C6       2.1518  -4.6485  -2.8159   C.2       1 RES1   0.0000
     7 C7       2.1530  -6.0732  -2.9110   C.2       1 RES1   0.0000
     8 C8       1.4000  -6.8340  -1.9570   C.2       1 RES1   0.0000
     9 C9       0.6435  -6.1680  -0.8854   C.2       1 RES1   0.0000
    10 O10     -0.1027  -6.9150   0.0255   O.3       1 RES1   0.0000
    11 C11      0.1523  -7.0296   1.4389   C.3       1 RES1   0.0000
    12 C12      0.0526  -5.6393   2.0999   C.3       1 RES1   0.0000
    13 C13      0.3275  -5.7920   3.6174   C.3       1 RES1   0.0000
    14 C14     -0.7179  -6.7217   4.2481   C.3       1 RES1   0.0000
    15 C15     -0.6074  -8.0948   3.5821   C.3       1 RES1   0.0000
    16 C16      0.7919  -8.6808   3.8073   C.3       1 RES1   0.0000
    17 C17      1.8218  -7.7341   3.1793   C.3       1 RES1   0.0000
    18 C18      1.7454  -6.3517   3.8416   C.3       1 RES1   0.0000
    19 C19      1.5670  -7.6040   1.6625   C.3       1 RES1   0.0000
    20 C20     -0.8930  -7.9719   2.0709   C.3       1 RES1   0.0000
    21 C21      0.6722  -4.7382  -0.8145   C.2       1 RES1   0.0000
    22 N22      0.9236   0.2129  -0.0655   N.am      1 RES1   1.0000
    23 O23      1.7017   0.7883   0.7297   O.2       1 RES1   0.0000
    24 C24     -0.3066  -0.2434   0.4261   C.2       1 RES1   0.0000
    25 N25     -0.5906  -0.0480   1.7348   N.am      1 RES1   0.0000
    26 O26     -1.1658  -0.8203  -0.2946   O.2       1 RES1   0.0000
@<TRIPOS>BOND
     1     2     1    1
     2     2     3    1
     3     3     4    3
     4     4     5    1
     5     5     6    2
     6     6     7    1
     7     7     8    2
     8     8     9    1
     9     9    10    1
    10    11    10    1
    11    11    12    1
    12    13    12    1
    13    13    14    1
    14    15    14    1
    15    15    16    1
    16    17    16    1
    17    17    18    1
    18    17    19    1
    19    15    20    1
    20     9    21    2
    21     2    22    1
    22    22    23    2
    23    22    24   am
    24    24    25   am
    25    24    26    2
    26    21     5    1
    27    19    11    1
    28    20    11    1
    29    18    13    1
@<TRIPOS>SUBSTRUCTURE
     1 RES1        1 GROUP             0 ****  ****    0  
@<TRIPOS>MOLECULE
ligand_51
    26    29     1     0     0
SMALL
USER_CHARGES
****
Generated from the CSD

@<TRIPOS>ATOM
     1 C1      -0.1437   0.4966  -1.1086   C.3       1 RES1   0.0000
     2 C2       1.3179   0.0434  -1.4967   C.3       1 RES1   0.0000
     3 C3       1.3647  -1.4124  -1.5999   C.1       1 RES1   0.0000
     4 C4       1.4016  -2.5693  -1.6876   C.1       1 RES1   0.0000
     5 C5       1.4221  -3.9845  -1.7776   C.2       1 RES1   0.0000
     6 C6       2.1518  -4.6485  -2.8159   C.2       1 RES1   0.0000
     7 C7       2.1530  -6.0732  -2.9110   C.2       1 RES1   0.0000
     8 C8       1.4000  -6.8340  -1.9570   C.2       1 RES1   0.0000
     9 C9       0.6435  -6.1680  -0.8854   C.2       1 RES1   0.0000
    10 O10     -0.1027  -6.9150   0.0255   O.3       1 RES1   0.0000
    11 C11      0.1523  -7.0296   1.4389   C.3       1 RES1   0.0000
    12 C12      0.0526  -5.6393   2.0999   C.3       1 RES1   0.0000
    13 C13      0.3275  -5.7920   3.6174   C.3       1 RES1   0.0000
    14 C14     -0.7179  -6.7217   4.2481   C.3       1 RES1   0.0000
    15 C15     -0.6074  -8.0948   3.5821   C.3       1 RES1   0.0000
    16 C16      0.7919  -8.6808   3.8073   C.3       1 RES1   0.0000
    17 C17      1.8218  -7.7341   3.1793   C.3       1 RES1   0.0000
    18 C18      1.7454  -6.3517   3.8416   C.3       1 RES1   0.0000
    19 C19      1.5670  -7.6040   1.6625   C.3       1 RES1   0.0000
    20 C20     -0.8930  -7.9719   2.0709   C.3       1 RES1   0.0000
    21 C21      0.6722  -4.7382  -0.8145   C.2       1 RES1   0.0000
    22 N22      2.3415   0.2848  -0.4354   N.am      1 RES1   1.0000
    23 O23      3.3722   0.9437  -0.7042   O.2       1 RES1   0.0000
    24 C24      2.1849  -0.1949   0.8718   C.2       1 RES1   0.0000
    25 N25      3.1562   0.0695   1.7765   N.am      1 RES1   0.0000
    26 O26      1.1780  -0.8543   1.2482   O.2       1 RES1   0.0000
@<TRIPOS>BOND
     1     2     1    1
     2     2     3    1
     3     3     4    3
     4     4     5    1
     5     5     6    2
     6     6     7    1
     7     7     8    2
     8     8     9    1
     9     9    10    1
    10    11    10    1
    11    11    12    1
    12    13    12    1
    13    13    14    1
    14    15    14    1
    15    15    16    1
    16    17    16    1
    17    17    18    1
    18    17    19    1
    19    15    20    1
    20     9    21    2
    21     2    22    1
    22    22    23    2
    23    22    24   am
    24    24    25   am
    25    24    26    2
    26    21     5    1
    27    19    11    1
    28    20    11    1
    29    18    13    1
@<TRIPOS>SUBSTRUCTURE
     1 RES1        1 GROUP             0 ****  ****    0  
@<TRIPOS>MOLECULE
ligand_52
    26    29     1     0     0
SMALL
USER_CHARGES
****
Generated from the CSD

@<TRIPOS>ATOM
     1 C1       1.6559   0.4771  -0.0168   C.3       1 RES1   0.0000
     2 C2       1.3179   0.0434  -1.4967   C.3       1 RES1   0.0000
     3 C3       1.3647  -1.4124  -1.5999   C.1       1 RES1   0.0000
     4 C4       1.4016  -2.5693  -1.6876   C.1       1 RES1   0.0000
     5 C5       1.4221  -3.9845  -1.7776   C.2       1 RES1   0.0000
     6 C6       2.1518  -4.6485  -2.8159   C.2       1 RES1   0.0000
     7 C7       2.1530  -6.0732  -2.9110   C.2       1 RES1   0.0000
     8 C8       1.4000  -6.8340  -1.9570   C.2       1 RES1   0.0000
     9 C9       0.6435  -6.1680  -0.8854   C.2       1 RES1   0.0000
    10 O10     -0.1027  -6.9150   0.0255   O.3       1 RES1   0.0000
    11 C11      0.1523  -7.0296   1.4389   C.3       1 RES1   0.0000
    12 C12      0.0526  -5.6393   2.0999   C.3       1 RES1   0.0000
    13 C13      0.3275  -5.7920   3.6174   C.3       1 RES1   0.0000
    14 C14     -0.7179  -6.7217   4.2481   C.3       1 RES1   0.0000
    15 C15     -0.6074  -8.0948   3.5821   C.3       1 RES1   0.0000
    16 C16      0.7919  -8.6808   3.8073   C.3       1 RES1   0.0000
    17 C17      1.8218  -7.7341   3.1793   C.3       1 RES1   0.0000
    18 C18      1.7454  -6.3517   3.8416   C.3       1 RES1   0.0000
    19 C19      1.5670  -7.6040   1.6625   C.3       1 RES1   0.0000
    20 C20     -0.8930  -7.9719   2.0709   C.3       1 RES1   0.0000
    21 C21      0.6722  -4.7382  -0.8145   C.2       1 RES1   0.0000
    22 N22      2.3498   0.4318  -2.5049   N.am      1 RES1   1.0000
    23 O23      2.0158   1.0991  -3.5109   O.2       1 RES1   0.0000
    24 C24      3.6992   0.0830  -2.3604   C.2       1 RES1   0.0000
    25 N25      4.5730   0.4762  -3.3162   N.am      1 RES1   0.0000
    26 O26      4.1403  -0.5728  -1.3776   O.2       1 RES1   0.0000
@<TRIPOS>BOND
     1     2     1    1
     2     2     3    1
     3     3     4    3
     4     4     5    1
     5     5     6    2
     6     6     7    1
     7     7     8    2
     8     8     9    1
     9     9    10    1
    10    11    10    1
    11    11    12    1
    12    13    12    1
    13    13    14    1
    14    15    14    1
    15    15    16    1
    16    17    16    1
    17    17    18    1
    18    17    19    1
    19    15    20    1
    20     9    21    2
    21     2    22    1
    22    22    23    2
    23    22    24   am
    24    24    25   am
    25    24    26    2
    26    21     5    1
    27    19    11    1
    28    20    11    1
    29    18    13    1
@<TRIPOS>SUBSTRUCTURE
     1 RES1        1 GROUP             0 ****  ****    0  
@<TRIPOS>MOLECULE
ligand_53
    26    29     1     0     0
SMALL
USER_CHARGES
****
Generated from the CSD

@<TRIPOS>ATOM
     1 C1       4.9450  -6.9718  -6.6505   C.3       1 RES1   0.0000
     2 C2       4.3437  -7.9999  -5.6143   C.3       1 RES1   0.0000
     3 C3       3.5613  -7.2807  -4.6131   C.1       1 RES1   0.0000
     4 C4       2.9436  -6.7053  -3.8163   C.1       1 RES1   0.0000
     5 C5       2.1864  -6.0275  -2.8270   C.2       1 RES1   0.0000
     6 C6       2.2197  -4.5996  -2.7202   C.2       1 RES1   0.0000
     7 C7       1.4689  -3.9254  -1.7100   C.2       1 RES1   0.0000
     8 C8       0.6876  -4.7006  -0.7910   C.2       1 RES1   0.0000
     9 C9       0.6435  -6.1680  -0.8854   C.2       1 RES1   0.0000
    10 O10     -0.1027  -6.9150   0.0255   O.3       1 RES1   0.0000
    11 C11      0.1540  -7.0319   1.4384   C.3       1 RES1   0.0000
    12 C12      0.0540  -5.6428   2.1020   C.3       1 RES1   0.0000
    13 C13      0.3308  -5.7981   3.6189   C.3       1 RES1   0.0000
    14 C14     -0.7132  -6.7297   4.2491   C.3       1 RES1   0.0000
    15 C15     -0.6024  -8.1015   3.5806   C.3       1 RES1   0.0000
    16 C16      0.7976  -8.6869   3.8031   C.3       1 RES1   0.0000
    17 C17      1.8260  -7.7383   3.1756   C.3       1 RES1   0.0000
    18 C18      1.7494  -6.3571   3.8404   C.3       1 RES1   0.0000
    19 C19      1.5694  -7.6056   1.6593   C.3       1 RES1   0.0000
    20 C20     -0.8899  -7.9761   2.0699   C.3       1 RES1   0.0000
    21 C21      1.4014  -6.8104  -1.9165   C.2       1 RES1   0.0000
    22 N22      5.3606  -8.6714  -4.7498   N.am      1 RES1   1.0000
    23 O23      5.4047  -9.9222  -4.6988   O.2       1 RES1   0.0000
    24 C24      6.2882  -7.9451  -3.9913   C.2       1 RES1   0.0000
    25 N25      7.1798  -8.6281  -3.2362   N.am      1 RES1   0.0000
    26 O26      6.3377  -6.6850  -3.9850   O.2       1 RES1   0.0000
@<TRIPOS>BOND
     1     2     1    1
     2     2     3    1
     3     3     4    3
     4     4     5    1
     5     5     6    2
     6     6     7    1
     7     7     8    2
     8     8     9    1
     9     9    10    1
    10    11    10    1
    11    11    12    1
    12    13    12    1
    13    13    14    1
    14    15    14    1
    15    15    16    1
    16    17    16    1
    17    17    18    1
    18    17    19    1
    19    15    20    1
    20     9    21    2
    21     2    22    1
    22    22    23    2
    23    22    24   am
    24    24    25   am
    25    24    26    2
    26    21     5    1
    27    19    11    1
    28    20    11    1
    29    18    13    1
@<TRIPOS>SUBSTRUCTURE
     1 RES1        1 GROUP             0 ****  ****    0  
@<TRIPOS>MOLECULE
ligand_54
    26    29     1     0     0
SMALL
USER_CHARGES
****
Generated from the CSD

@<TRIPOS>ATOM
     1 C1       5.8379  -7.4917  -5.5791   C.3       1 RES1   0.0000
     2 C2       4.3437  -7.9999  -5.6143   C.3       1 RES1   0.0000
     3 C3       3.5613  -7.2807  -4.6131   C.1       1 RES1   0.0000
     4 C4       2.9436  -6.7053  -3.8163   C.1       1 RES1   0.0000
     5 C5       2.1864  -6.0275  -2.8270   C.2       1 RES1   0.0000
     6 C6       2.2197  -4.5996  -2.7202   C.2       1 RES1   0.0000
     7 C7       1.4689  -3.9254  -1.7100   C.2       1 RES1   0.0000
     8 C8       0.6876  -4.7006  -0.7910   C.2       1 RES1   0.0000
     9 C9       0.6435  -6.1680  -0.8854   C.2       1 RES1   0.0000
    10 O10     -0.1027  -6.9150   0.0255   O.3       1 RES1   0.0000
    11 C11      0.1540  -7.0319   1.4384   C.3       1 RES1   0.0000
    12 C12      0.0540  -5.6428   2.1020   C.3       1 RES1   0.0000
    13 C13      0.3308  -5.7981   3.6189   C.3       1 RES1   0.0000
    14 C14     -0.7132  -6.7297   4.2491   C.3       1 RES1   0.0000
    15 C15     -0.6024  -8.1015   3.5806   C.3       1 RES1   0.0000
    16 C16      0.7976  -8.6869   3.8031   C.3       1 RES1   0.0000
    17 C17      1.8260  -7.7383   3.1756   C.3       1 RES1   0.0000
    18 C18      1.7494  -6.3571   3.8404   C.3       1 RES1   0.0000
    19 C19      1.5694  -7.6056   1.6593   C.3       1 RES1   0.0000
    20 C20     -0.8899  -7.9761   2.0699   C.3       1 RES1   0.0000
    21 C21      1.4014  -6.8104  -1.9165   C.2       1 RES1   0.0000
    22 N22      4.1603  -9.4104  -5.1568   N.am      1 RES1   1.0000
    23 O23      3.5800 -10.2347  -5.9003   O.2       1 RES1   0.0000
    24 C24      4.6299  -9.8563  -3.9143   C.2       1 RES1   0.0000
    25 N25      4.4273 -11.1507  -3.5749   N.am      1 RES1   0.0000
    26 O26      5.2399  -9.1111  -3.1000   O.2       1 RES1   0.0000
@<TRIPOS>BOND
     1     2     1    1
     2     2     3    1
     3     3     4    3
     4     4     5    1
     5     5     6    2
     6     6     7    1
     7     7     8    2
     8     8     9    1
     9     9    10    1
    10    11    10    1
    11    11    12    1
    12    13    12    1
    13    13    14    1
    14    15    14    1
    15    15    16    1
    16    17    16    1
    17    17    18    1
    18    17    19    1
    19    15    20    1
    20     9    21    2
    21     2    22    1
    22    22    23    2
    23    22    24   am
    24    24    25   am
    25    24    26    2
    26    21     5    1
    27    19    11    1
    28    20    11    1
    29    18    13    1
@<TRIPOS>SUBSTRUCTURE
     1 RES1        1 GROUP             0 ****  ****    0  
@<TRIPOS>MOLECULE
ligand_55
    26    29     1     0     0
SMALL
USER_CHARGES
****
Generated from the CSD

@<TRIPOS>ATOM
     1 C1       5.5186  -8.7791  -4.9038   C.3       1 RES1   0.0000
     2 C2       4.3437  -7.9999  -5.6143   C.3       1 RES1   0.0000
     3 C3       3.5613  -7.2807  -4.6131   C.1       1 RES1   0.0000
     4 C4       2.9436  -6.7053  -3.8163   C.1       1 RES1   0.0000
     5 C5       2.1864  -6.0275  -2.8270   C.2       1 RES1   0.0000
     6 C6       2.2197  -4.5996  -2.7202   C.2       1 RES1   0.0000
     7 C7       1.4689  -3.9254  -1.7100   C.2       1 RES1   0.0000
     8 C8       0.6876  -4.7006  -0.7910   C.2       1 RES1   0.0000
     9 C9       0.6435  -6.1680  -0.8854   C.2       1 RES1   0.0000
    10 O10     -0.1027  -6.9150   0.0255   O.3       1 RES1   0.0000
    11 C11      0.1540  -7.0319   1.4384   C.3       1 RES1   0.0000
    12 C12      0.0540  -5.6428   2.1020   C.3       1 RES1   0.0000
    13 C13      0.3308  -5.7981   3.6189   C.3       1 RES1   0.0000
    14 C14     -0.7132  -6.7297   4.2491   C.3       1 RES1   0.0000
    15 C15     -0.6024  -8.1015   3.5806   C.3       1 RES1   0.0000
    16 C16      0.7976  -8.6869   3.8031   C.3       1 RES1   0.0000
    17 C17      1.8260  -7.7383   3.1756   C.3       1 RES1   0.0000
    18 C18      1.7494  -6.3571   3.8404   C.3       1 RES1   0.0000
    19 C19      1.5694  -7.6056   1.6593   C.3       1 RES1   0.0000
    20 C20     -0.8899  -7.9761   2.0699   C.3       1 RES1   0.0000
    21 C21      1.4014  -6.8104  -1.9165   C.2       1 RES1   0.0000
    22 N22      3.2951  -8.8783  -6.2153   N.am      1 RES1   1.0000
    23 O23      2.9947  -8.7498  -7.4246   O.2       1 RES1   0.0000
    24 C24      2.6329  -9.8629  -5.4701   C.2       1 RES1   0.0000
    25 N25      1.6976 -10.6203  -6.0891   N.am      1 RES1   0.0000
    26 O26      2.8727 -10.0830  -4.2517   O.2       1 RES1   0.0000
@<TRIPOS>BOND
     1     2     1    1
     2     2     3    1
     3     3     4    3
     4     4     5    1
     5     5     6    2
     6     6     7    1
     7     7     8    2
     8     8     9    1
     9     9    10    1
    10    11    10    1
    11    11    12    1
    12    13    12    1
    13    13    14    1
    14    15    14    1
    15    15    16    1
    16    17    16    1
    17    17    18    1
    18    17    19    1
    19    15    20    1
    20     9    21    2
    21     2    22    1
    22    22    23    2
    23    22    24   am
    24    24    25   am
    25    24    26    2
    26    21     5    1
    27    19    11    1
    28    20    11    1
    29    18    13    1
@<TRIPOS>SUBSTRUCTURE
     1 RES1        1 GROUP             0 ****  ****    0  
@<TRIPOS>MOLECULE
ligand_56
    26    29     1     0     0
SMALL
USER_CHARGES
****
Generated from the CSD

@<TRIPOS>ATOM
     1 C1       4.3063  -9.5466  -5.2998   C.3       1 RES1   0.0000
     2 C2       4.3437  -7.9999  -5.6143   C.3       1 RES1   0.0000
     3 C3       3.5613  -7.2807  -4.6131   C.1       1 RES1   0.0000
     4 C4       2.9436  -6.7053  -3.8163   C.1       1 RES1   0.0000
     5 C5       2.1864  -6.0275  -2.8270   C.2       1 RES1   0.0000
     6 C6       2.2197  -4.5996  -2.7202   C.2       1 RES1   0.0000
     7 C7       1.4689  -3.9254  -1.7100   C.2       1 RES1   0.0000
     8 C8       0.6876  -4.7006  -0.7910   C.2       1 RES1   0.0000
     9 C9       0.6435  -6.1680  -0.8854   C.2       1 RES1   0.0000
    10 O10     -0.1027  -6.9150   0.0255   O.3       1 RES1   0.0000
    11 C11      0.1540  -7.0319   1.4384   C.3       1 RES1   0.0000
    12 C12      0.0540  -5.6428   2.1020   C.3       1 RES1   0.0000
    13 C13      0.3308  -5.7981   3.6189   C.3       1 RES1   0.0000
    14 C14     -0.7132  -6.7297   4.2491   C.3       1 RES1   0.0000
    15 C15     -0.6024  -8.1015   3.5806   C.3       1 RES1   0.0000
    16 C16      0.7976  -8.6869   3.8031   C.3       1 RES1   0.0000
    17 C17      1.8260  -7.7383   3.1756   C.3       1 RES1   0.0000
    18 C18      1.7494  -6.3571   3.8404   C.3       1 RES1   0.0000
    19 C19      1.5694  -7.6056   1.6593   C.3       1 RES1   0.0000
    20 C20     -0.8899  -7.9761   2.0699   C.3       1 RES1   0.0000
    21 C21      1.4014  -6.8104  -1.9165   C.2       1 RES1   0.0000
    22 N22      3.6300  -7.6072  -6.8668   N.am      1 RES1   1.0000
    23 O23      4.2341  -6.9524  -7.7473   O.2       1 RES1   0.0000
    24 C24      2.2943  -7.9583  -7.1030   C.2       1 RES1   0.0000
    25 N25      1.7204  -7.5674  -8.2647   N.am      1 RES1   0.0000
    26 O26      1.6033  -8.6288  -6.2885   O.2       1 RES1   0.0000
@<TRIPOS>BOND
     1     2     1    1
     2     2     3    1
     3     3     4    3
     4     4     5    1
     5     5     6    2
     6     6     7    1
     7     7     8    2
     8     8     9    1
     9     9    10    1
    10    11    10    1
    11    11    12    1
    12    13    12    1
    13    13    14    1
    14    15    14    1
    15    15    16    1
    16    17    16    1
    17    17    18    1
    18    17    19    1
    19    15    20    1
    20     9    21    2
    21     2    22    1
    22    22    23    2
    23    22    24   am
    24    24    25   am
    25    24    26    2
    26    21     5    1
    27    19    11    1
    28    20    11    1
    29    18    13    1
@<TRIPOS>SUBSTRUCTURE
     1 RES1        1 GROUP             0 ****  ****    0  
@<TRIPOS>MOLECULE
ligand_57
    26    29     1     0     0
SMALL
USER_CHARGES
****
Generated from the CSD

@<TRIPOS>ATOM
     1 C1      -6.5277 -10.6902  -1.4592   C.3       1 RES1   0.0000
     2 C2      -6.1686  -9.8143  -2.7227   C.3       1 RES1   0.0000
     3 C3      -5.1931  -8.7950  -2.3469   C.1       1 RES1   0.0000
     4 C4      -4.4182  -7.9822  -2.0531   C.1       1 RES1   0.0000
     5 C5      -3.4509  -7.0104  -1.6904   C.2       1 RES1   0.0000
     6 C6      -3.6253  -5.6305  -2.0322   C.2       1 RES1   0.0000
     7 C7      -2.6385  -4.6607  -1.6795   C.2       1 RES1   0.0000
     8 C8      -1.4587  -5.0899  -0.9870   C.2       1 RES1   0.0000
     9 C9      -1.2627  -6.5035  -0.6298   C.2       1 RES1   0.0000
    10 O10     -0.1027  -6.9150   0.0255   O.3       1 RES1   0.0000
    11 C11      0.0961  -6.9577   1.4518   C.3       1 RES1   0.0000
    12 C12     -0.0735  -5.5431   2.0434   C.3       1 RES1   0.0000
    13 C13      0.1420  -5.6186   3.5762   C.3       1 RES1   0.0000
    14 C14     -0.9001  -6.5524   4.2063   C.3       1 RES1   0.0000
    15 C15     -0.7199  -7.9497   3.6094   C.3       1 RES1   0.0000
    16 C16      0.6859  -8.4795   3.9180   C.3       1 RES1   0.0000
    17 C17      1.7119  -7.5291   3.2891   C.3       1 RES1   0.0000
    18 C18      1.5658  -6.1215   3.8832   C.3       1 RES1   0.0000
    19 C19      1.5171  -7.4754   1.7589   C.3       1 RES1   0.0000
    20 C20     -0.9456  -7.9040   2.0838   C.3       1 RES1   0.0000
    21 C21     -2.2771  -7.4474  -0.9909   C.2       1 RES1   0.0000
    22 N22     -7.2898  -8.9623  -3.2222   N.am      1 RES1   1.0000
    23 O23     -7.3547  -8.6708  -4.4387   O.2       1 RES1   0.0000
    24 C24     -8.2929  -8.4792  -2.3716   C.2       1 RES1   0.0000
    25 N25     -9.3019  -7.7556  -2.9100   N.am      1 RES1   0.0000
    26 O26     -8.3052  -8.6935  -1.1288   O.2       1 RES1   0.0000
@<TRIPOS>BOND
     1     2     1    1
     2     2     3    1
     3     3     4    3
     4     4     5    1
     5     5     6    2
     6     6     7    1
     7     7     8    2
     8     8     9    1
     9     9    10    1
    10    11    10    1
    11    11    12    1
    12    13    12    1
    13    13    14    1
    14    15    14    1
    15    15    16    1
    16    17    16    1
    17    17    18    1
    18    17    19    1
    19    15    20    1
    20     9    21    2
    21     2    22    1
    22    22    23    2
    23    22    24   am
    24    24    25   am
    25    24    26    2
    26    21     5    1
    27    19    11    1
    28    20    11    1
    29    18    13    1
@<TRIPOS>SUBSTRUCTURE
     1 RES1        1 GROUP             0 ****  ****    0  
@<TRIPOS>MOLECULE
ligand_58
    26    29     1     0     0
SMALL
USER_CHARGES
****
Generated from the CSD

@<TRIPOS>ATOM
     1 C1      -2.0080   0.0307  -1.6622   C.3       1 RES1   0.0000
     2 C2      -3.1579  -0.7798  -2.3785   C.3       1 RES1   0.0000
     3 C3      -2.9898  -2.2049  -2.1083   C.1       1 RES1   0.0000
     4 C4      -2.8616  -3.3381  -1.8919   C.1       1 RES1   0.0000
     5 C5      -2.6836  -4.7162  -1.6078   C.2       1 RES1   0.0000
     6 C6      -3.6955  -5.6752  -1.9360   C.2       1 RES1   0.0000
     7 C7      -3.5169  -7.0585  -1.6304   C.2       1 RES1   0.0000
     8 C8      -2.3114  -7.4755  -0.9756   C.2       1 RES1   0.0000
     9 C9      -1.2627  -6.5035  -0.6298   C.2       1 RES1   0.0000
    10 O10     -0.1027  -6.9150   0.0255   O.3       1 RES1   0.0000
    11 C11      0.0961  -6.9577   1.4518   C.3       1 RES1   0.0000
    12 C12     -0.0735  -5.5431   2.0434   C.3       1 RES1   0.0000
    13 C13      0.1420  -5.6186   3.5762   C.3       1 RES1   0.0000
    14 C14     -0.9001  -6.5524   4.2063   C.3       1 RES1   0.0000
    15 C15     -0.7199  -7.9497   3.6094   C.3       1 RES1   0.0000
    16 C16      0.6859  -8.4795   3.9180   C.3       1 RES1   0.0000
    17 C17      1.7119  -7.5291   3.2891   C.3       1 RES1   0.0000
    18 C18      1.5658  -6.1215   3.8832   C.3       1 RES1   0.0000
    19 C19      1.5171  -7.4754   1.7589   C.3       1 RES1   0.0000
    20 C20     -0.9456  -7.9040   2.0838   C.3       1 RES1   0.0000
    21 C21     -1.4712  -5.1257  -0.9594   C.2       1 RES1   0.0000
    22 N22     -3.0868  -0.7645  -3.8708   N.am      1 RES1   1.0000
    23 O23     -4.1387  -0.8595  -4.5442   O.2       1 RES1   0.0000
    24 C24     -1.8717  -0.6343  -4.5562   C.2       1 RES1   0.0000
    25 N25     -1.8966  -0.5785  -5.9083   N.am      1 RES1   0.0000
    26 O26     -0.7560  -0.5582  -3.9732   O.2       1 RES1   0.0000
@<TRIPOS>BOND
     1     2     1    1
     2     2     3    1
     3     3     4    3
     4     4     5    1
     5     5     6    2
     6     6     7    1
     7     7     8    2
     8     8     9    1
     9     9    10    1
    10    11    10    1
    11    11    12    1
    12    13    12    1
    13    13    14    1
    14    15    14    1
    15    15    16    1
    16    17    16    1
    17    17    18    1
    18    17    19    1
    19    15    20    1
    20     9    21    2
    21     2    22    1
    22    22    23    2
    23    22    24   am
    24    24    25   am
    25    24    26    2
    26    21     5    1
    27    19    11    1
    28    20    11    1
    29    18    13    1
@<TRIPOS>SUBSTRUCTURE
     1 RES1        1 GROUP             0 ****  ****    0  
@<TRIPOS>MOLECULE
ligand_59
    26    29     1     0     0
SMALL
USER_CHARGES
****
Generated from the CSD

@<TRIPOS>ATOM
     1 C1      -0.9257  -4.9044  -7.5061   C.3       1 RES1   0.0000
     2 C2       0.3020  -5.8288  -7.1446   C.3       1 RES1   0.0000
     3 C3       0.6132  -5.6914  -5.7247   C.1       1 RES1   0.0000
     4 C4       0.8662  -5.5822  -4.5971   C.1       1 RES1   0.0000
     5 C5       1.1601  -5.4740  -3.2138   C.2       1 RES1   0.0000
     6 C6       2.2386  -4.6540  -2.7493   C.2       1 RES1   0.0000
     7 C7       2.5400  -4.5643  -1.3565   C.2       1 RES1   0.0000
     8 C8       1.7537  -5.3195  -0.4253   C.2       1 RES1   0.0000
     9 C9       0.6435  -6.1680  -0.8854   C.2       1 RES1   0.0000
    10 O10     -0.1027  -6.9150   0.0255   O.3       1 RES1   0.0000
    11 C11      0.0944  -6.9556   1.4521   C.3       1 RES1   0.0000
    12 C12     -0.0813  -5.5411   2.0421   C.3       1 RES1   0.0000
    13 C13      0.1325  -5.6144   3.5753   C.3       1 RES1   0.0000
    14 C14     -0.9069  -6.5514   4.2049   C.3       1 RES1   0.0000
    15 C15     -0.7208  -7.9486   3.6096   C.3       1 RES1   0.0000
    16 C16      0.6866  -8.4728   3.9205   C.3       1 RES1   0.0000
    17 C17      1.7098  -7.5193   3.2921   C.3       1 RES1   0.0000
    18 C18      1.5577  -6.1116   3.8846   C.3       1 RES1   0.0000
    19 C19      1.5169  -7.4678   1.7615   C.3       1 RES1   0.0000
    20 C20     -0.9446  -7.9052   2.0837   C.3       1 RES1   0.0000
    21 C21      0.3634  -6.2271  -2.2884   C.2       1 RES1   0.0000
    22 N22      1.5960  -5.4055  -7.7601   N.am      1 RES1   1.0000
    23 O23      2.2530  -6.2202  -8.4483   O.2       1 RES1   0.0000
    24 C24      2.1047  -4.1093  -7.6045   C.2       1 RES1   0.0000
    25 N25      1.3958  -3.2223  -6.8681   N.am      1 RES1   0.0000
    26 O26      3.1962  -3.7317  -8.1110   O.2       1 RES1   0.0000
@<TRIPOS>BOND
     1     2     1    1
     2     2     3    1
     3     3     4    3
     4     4     5    1
     5     5     6    2
     6     6     7    1
     7     7     8    2
     8     8     9    1
     9     9    10    1
    10    11    10    1
    11    11    12    1
    12    13    12    1
    13    13    14    1
    14    15    14    1
    15    15    16    1
    16    17    16    1
    17    17    18    1
    18    17    19    1
    19    15    20    1
    20     9    21    2
    21     2    22    1
    22    22    23    2
    23    22    24   am
    24    24    25   am
    25    24    26    2
    26    21     5    1
    27    19    11    1
    28    20    11    1
    29    18    13    1
@<TRIPOS>SUBSTRUCTURE
     1 RES1        1 GROUP             0 ****  ****    0  
@<TRIPOS>MOLECULE
ligand_60
    26    29     1     0     0
SMALL
USER_CHARGES
****
Generated from the CSD

@<TRIPOS>ATOM
     1 C1       0.4398  -4.4241  -7.8519   C.3       1 RES1   0.0000
     2 C2       0.3020  -5.8288  -7.1446   C.3       1 RES1   0.0000
     3 C3       0.6132  -5.6914  -5.7247   C.1       1 RES1   0.0000
     4 C4       0.8662  -5.5822  -4.5971   C.1       1 RES1   0.0000
     5 C5       1.1601  -5.4740  -3.2138   C.2       1 RES1   0.0000
     6 C6       2.2386  -4.6540  -2.7493   C.2       1 RES1   0.0000
     7 C7       2.5400  -4.5643  -1.3565   C.2       1 RES1   0.0000
     8 C8       1.7537  -5.3195  -0.4253   C.2       1 RES1   0.0000
     9 C9       0.6435  -6.1680  -0.8854   C.2       1 RES1   0.0000
    10 O10     -0.1027  -6.9150   0.0255   O.3       1 RES1   0.0000
    11 C11      0.0945  -6.9558   1.4521   C.3       1 RES1   0.0000
    12 C12     -0.0811  -5.5413   2.0423   C.3       1 RES1   0.0000
    13 C13      0.1328  -5.6148   3.5754   C.3       1 RES1   0.0000
    14 C14     -0.9066  -6.5519   4.2050   C.3       1 RES1   0.0000
    15 C15     -0.7204  -7.9490   3.6095   C.3       1 RES1   0.0000
    16 C16      0.6870  -8.4732   3.9202   C.3       1 RES1   0.0000
    17 C17      1.7101  -7.5196   3.2918   C.3       1 RES1   0.0000
    18 C18      1.5580  -6.1120   3.8846   C.3       1 RES1   0.0000
    19 C19      1.5171  -7.4679   1.7613   C.3       1 RES1   0.0000
    20 C20     -0.9444  -7.9055   2.0836   C.3       1 RES1   0.0000
    21 C21      0.3634  -6.2271  -2.2884   C.2       1 RES1   0.0000
    22 N22      1.3257  -6.8336  -7.5626   N.am      1 RES1   1.0000
    23 O23      0.9598  -7.9499  -7.9974   O.2       1 RES1   0.0000
    24 C24      2.6997  -6.5671  -7.4969   C.2       1 RES1   0.0000
    25 N25      3.1012  -5.3600  -7.0349   N.am      1 RES1   0.0000
    26 O26      3.5810  -7.4014  -7.8399   O.2       1 RES1   0.0000
@<TRIPOS>BOND
     1     2     1    1
     2     2     3    1
     3     3     4    3
     4     4     5    1
     5     5     6    2
     6     6     7    1
     7     7     8    2
     8     8     9    1
     9     9    10    1
    10    11    10    1
    11    11    12    1
    12    13    12    1
    13    13    14    1
    14    15    14    1
    15    15    16    1
    16    17    16    1
    17    17    18    1
    18    17    19    1
    19    15    20    1
    20     9    21    2
    21     2    22    1
    22    22    23    2
    23    22    24   am
    24    24    25   am
    25    24    26    2
    26    21     5    1
    27    19    11    1
    28    20    11    1
    29    18    13    1
@<TRIPOS>SUBSTRUCTURE
     1 RES1        1 GROUP             0 ****  ****    0  
@<TRIPOS>MOLECULE
ligand_61
    26    29     1     0     0
SMALL
USER_CHARGES
****
Generated from the CSD

@<TRIPOS>ATOM
     1 C1       1.5555  -5.3978  -8.0022   C.3       1 RES1   0.0000
     2 C2       0.3020  -5.8288  -7.1446   C.3       1 RES1   0.0000
     3 C3       0.6132  -5.6914  -5.7247   C.1       1 RES1   0.0000
     4 C4       0.8662  -5.5822  -4.5971   C.1       1 RES1   0.0000
     5 C5       1.1601  -5.4740  -3.2138   C.2       1 RES1   0.0000
     6 C6       2.2386  -4.6540  -2.7493   C.2       1 RES1   0.0000
     7 C7       2.5400  -4.5643  -1.3565   C.2       1 RES1   0.0000
     8 C8       1.7537  -5.3195  -0.4253   C.2       1 RES1   0.0000
     9 C9       0.6435  -6.1680  -0.8854   C.2       1 RES1   0.0000
    10 O10     -0.1027  -6.9150   0.0255   O.3       1 RES1   0.0000
    11 C11      0.0946  -6.9559   1.4521   C.3       1 RES1   0.0000
    12 C12     -0.0809  -5.5415   2.0424   C.3       1 RES1   0.0000
    13 C13      0.1331  -5.6151   3.5755   C.3       1 RES1   0.0000
    14 C14     -0.9062  -6.5522   4.2051   C.3       1 RES1   0.0000
    15 C15     -0.7202  -7.9493   3.6095   C.3       1 RES1   0.0000
    16 C16      0.6873  -8.4736   3.9200   C.3       1 RES1   0.0000
    17 C17      1.7104  -7.5199   3.2916   C.3       1 RES1   0.0000
    18 C18      1.5583  -6.1124   3.8845   C.3       1 RES1   0.0000
    19 C19      1.5172  -7.4681   1.7611   C.3       1 RES1   0.0000
    20 C20     -0.9442  -7.9056   2.0836   C.3       1 RES1   0.0000
    21 C21      0.3634  -6.2271  -2.2884   C.2       1 RES1   0.0000
    22 N22     -0.0285  -7.2839  -7.2222   N.am      1 RES1   1.0000
    23 O23     -1.1807  -7.6426  -7.5579   O.2       1 RES1   0.0000
    24 C24      0.9184  -8.2776  -6.9410   C.2       1 RES1   0.0000
    25 N25      2.1672  -7.8964  -6.5847   N.am      1 RES1   0.0000
    26 O26      0.6605  -9.5109  -6.9959   O.2       1 RES1   0.0000
@<TRIPOS>BOND
     1     2     1    1
     2     2     3    1
     3     3     4    3
     4     4     5    1
     5     5     6    2
     6     6     7    1
     7     7     8    2
     8     8     9    1
     9     9    10    1
    10    11    10    1
    11    11    12    1
    12    13    12    1
    13    13    14    1
    14    15    14    1
    15    15    16    1
    16    17    16    1
    17    17    18    1
    18    17    19    1
    19    15    20    1
    20     9    21    2
    21     2    22    1
    22    22    23    2
    23    22    24   am
    24    24    25   am
    25    24    26    2
    26    21     5    1
    27    19    11    1
    28    20    11    1
    29    18    13    1
@<TRIPOS>SUBSTRUCTURE
     1 RES1        1 GROUP             0 ****  ****    0  
@<TRIPOS>MOLECULE
ligand_62
    26    29     1     0     0
SMALL
USER_CHARGES
****
Generated from the CSD

@<TRIPOS>ATOM
     1 C1       1.3056  -6.8520  -7.8066   C.3       1 RES1   0.0000
     2 C2       0.3020  -5.8288  -7.1446   C.3       1 RES1   0.0000
     3 C3       0.6132  -5.6914  -5.7247   C.1       1 RES1   0.0000
     4 C4       0.8662  -5.5822  -4.5971   C.1       1 RES1   0.0000
     5 C5       1.1601  -5.4740  -3.2138   C.2       1 RES1   0.0000
     6 C6       2.2386  -4.6540  -2.7493   C.2       1 RES1   0.0000
     7 C7       2.5400  -4.5643  -1.3565   C.2       1 RES1   0.0000
     8 C8       1.7537  -5.3195  -0.4253   C.2       1 RES1   0.0000
     9 C9       0.6435  -6.1680  -0.8854   C.2       1 RES1   0.0000
    10 O10     -0.1027  -6.9150   0.0255   O.3       1 RES1   0.0000
    11 C11      0.0945  -6.9558   1.4521   C.3       1 RES1   0.0000
    12 C12     -0.0812  -5.5412   2.0422   C.3       1 RES1   0.0000
    13 C13      0.1327  -5.6147   3.5754   C.3       1 RES1   0.0000
    14 C14     -0.9067  -6.5517   4.2050   C.3       1 RES1   0.0000
    15 C15     -0.7205  -7.9489   3.6095   C.3       1 RES1   0.0000
    16 C16      0.6869  -8.4731   3.9203   C.3       1 RES1   0.0000
    17 C17      1.7100  -7.5195   3.2919   C.3       1 RES1   0.0000
    18 C18      1.5579  -6.1119   3.8846   C.3       1 RES1   0.0000
    19 C19      1.5170  -7.4679   1.7614   C.3       1 RES1   0.0000
    20 C20     -0.9445  -7.9054   2.0836   C.3       1 RES1   0.0000
    21 C21      0.3634  -6.2271  -2.2884   C.2       1 RES1   0.0000
    22 N22     -1.1124  -6.3057  -7.0793   N.am      1 RES1   1.0000
    23 O23     -2.0279  -5.6053  -7.5695   O.2       1 RES1   0.0000
    24 C24     -1.4582  -7.5302  -6.4924   C.2       1 RES1   0.0000
    25 N25     -0.4726  -8.2949  -5.9675   N.am      1 RES1   0.0000
    26 O26     -2.6452  -7.9503  -6.4223   O.2       1 RES1   0.0000
@<TRIPOS>BOND
     1     2     1    1
     2     2     3    1
     3     3     4    3
     4     4     5    1
     5     5     6    2
     6     6     7    1
     7     7     8    2
     8     8     9    1
     9     9    10    1
    10    11    10    1
    11    11    12    1
    12    13    12    1
    13    13    14    1
    14    15    14    1
    15    15    16    1
    16    17    16    1
    17    17    18    1
    18    17    19    1
    19    15    20    1
    20     9    21    2
    21     2    22    1
    22    22    23    2
    23    22    24   am
    24    24    25   am
    25    24    26    2
    26    21     5    1
    27    19    11    1
    28    20    11    1
    29    18    13    1
@<TRIPOS>SUBSTRUCTURE
     1 RES1        1 GROUP             0 ****  ****    0  
@<TRIPOS>MOLECULE
ligand_63
    26    29     1     0     0
SMALL
USER_CHARGES
****
Generated from the CSD

@<TRIPOS>ATOM
     1 C1      -0.0600  -7.3326  -7.4608   C.3       1 RES1   0.0000
     2 C2       0.3020  -5.8288  -7.1446   C.3       1 RES1   0.0000
     3 C3       0.6132  -5.6914  -5.7247   C.1       1 RES1   0.0000
     4 C4       0.8662  -5.5822  -4.5971   C.1       1 RES1   0.0000
     5 C5       1.1601  -5.4740  -3.2138   C.2       1 RES1   0.0000
     6 C6       2.2386  -4.6540  -2.7493   C.2       1 RES1   0.0000
     7 C7       2.5400  -4.5643  -1.3565   C.2       1 RES1   0.0000
     8 C8       1.7537  -5.3195  -0.4253   C.2       1 RES1   0.0000
     9 C9       0.6435  -6.1680  -0.8854   C.2       1 RES1   0.0000
    10 O10     -0.1027  -6.9150   0.0255   O.3       1 RES1   0.0000
    11 C11      0.0945  -6.9557   1.4521   C.3       1 RES1   0.0000
    12 C12     -0.0812  -5.5412   2.0422   C.3       1 RES1   0.0000
    13 C13      0.1327  -5.6146   3.5754   C.3       1 RES1   0.0000
    14 C14     -0.9067  -6.5516   4.2049   C.3       1 RES1   0.0000
    15 C15     -0.7206  -7.9488   3.6095   C.3       1 RES1   0.0000
    16 C16      0.6868  -8.4730   3.9204   C.3       1 RES1   0.0000
    17 C17      1.7100  -7.5194   3.2920   C.3       1 RES1   0.0000
    18 C18      1.5578  -6.1118   3.8846   C.3       1 RES1   0.0000
    19 C19      1.5170  -7.4678   1.7614   C.3       1 RES1   0.0000
    20 C20     -0.9445  -7.9054   2.0837   C.3       1 RES1   0.0000
    21 C21      0.3634  -6.2271  -2.2884   C.2       1 RES1   0.0000
    22 N22     -0.8423  -4.8773  -7.2768   N.am      1 RES1   1.0000
    23 O23     -0.7348  -3.8751  -8.0204   O.2       1 RES1   0.0000
    24 C24     -2.0536  -5.0721  -6.5999   C.2       1 RES1   0.0000
    25 N25     -2.1785  -6.1571  -5.8006   N.am      1 RES1   0.0000
    26 O26     -3.0306  -4.2802  -6.6932   O.2       1 RES1   0.0000
@<TRIPOS>BOND
     1     2     1    1
     2     2     3    1
     3     3     4    3
     4     4     5    1
     5     5     6    2
     6     6     7    1
     7     7     8    2
     8     8     9    1
     9     9    10    1
    10    11    10    1
    11    11    12    1
    12    13    12    1
    13    13    14    1
    14    15    14    1
    15    15    16    1
    16    17    16    1
    17    17    18    1
    18    17    19    1
    19    15    20    1
    20     9    21    2
    21     2    22    1
    22    22    23    2
    23    22    24   am
    24    24    25   am
    25    24    26    2
    26    21     5    1
    27    19    11    1
    28    20    11    1
    29    18    13    1
@<TRIPOS>SUBSTRUCTURE
     1 RES1        1 GROUP             0 ****  ****    0  
@<TRIPOS>MOLECULE
ligand_64
    26    29     1     0     0
SMALL
USER_CHARGES
****
Generated from the CSD

@<TRIPOS>ATOM
     1 C1      -1.1758  -6.3588  -7.3105   C.3       1 RES1   0.0000
     2 C2       0.3020  -5.8288  -7.1446   C.3       1 RES1   0.0000
     3 C3       0.6132  -5.6914  -5.7247   C.1       1 RES1   0.0000
     4 C4       0.8662  -5.5822  -4.5971   C.1       1 RES1   0.0000
     5 C5       1.1601  -5.4740  -3.2138   C.2       1 RES1   0.0000
     6 C6       2.2386  -4.6540  -2.7493   C.2       1 RES1   0.0000
     7 C7       2.5400  -4.5643  -1.3565   C.2       1 RES1   0.0000
     8 C8       1.7537  -5.3195  -0.4253   C.2       1 RES1   0.0000
     9 C9       0.6435  -6.1680  -0.8854   C.2       1 RES1   0.0000
    10 O10     -0.1027  -6.9150   0.0255   O.3       1 RES1   0.0000
    11 C11      0.0945  -6.9557   1.4521   C.3       1 RES1   0.0000
    12 C12     -0.0812  -5.5412   2.0422   C.3       1 RES1   0.0000
    13 C13      0.1327  -5.6146   3.5754   C.3       1 RES1   0.0000
    14 C14     -0.9067  -6.5516   4.2049   C.3       1 RES1   0.0000
    15 C15     -0.7206  -7.9488   3.6095   C.3       1 RES1   0.0000
    16 C16      0.6868  -8.4730   3.9204   C.3       1 RES1   0.0000
    17 C17      1.7100  -7.5194   3.2920   C.3       1 RES1   0.0000
    18 C18      1.5578  -6.1118   3.8846   C.3       1 RES1   0.0000
    19 C19      1.5170  -7.4678   1.7614   C.3       1 RES1   0.0000
    20 C20     -0.9445  -7.9054   2.0837   C.3       1 RES1   0.0000
    21 C21      0.3634  -6.2271  -2.2884   C.2       1 RES1   0.0000
    22 N22      0.5120  -4.4271  -7.6172   N.am      1 RES1   1.0000
    23 O23      1.4059  -4.1824  -8.4598   O.2       1 RES1   0.0000
    24 C24     -0.2721  -3.3614  -7.1560   C.2       1 RES1   0.0000
    25 N25     -1.2444  -3.6204  -6.2509   N.am      1 RES1   0.0000
    26 O26     -0.1098  -2.1704  -7.5377   O.2       1 RES1   0.0000
@<TRIPOS>BOND
     1     2     1    1
     2     2     3    1
     3     3     4    3
     4     4     5    1
     5     5     6    2
     6     6     7    1
     7     7     8    2
     8     8     9    1
     9     9    10    1
    10    11    10    1
    11    11    12    1
    12    13    12    1
    13    13    14    1
    14    15    14    1
    15    15    16    1
    16    17    16    1
    17    17    18    1
    18    17    19    1
    19    15    20    1
    20     9    21    2
    21     2    22    1
    22    22    23    2
    23    22    24   am
    24    24    25   am
    25    24    26    2
    26    21     5    1
    27    19    11    1
    28    20    11    1
    29    18    13    1
@<TRIPOS>SUBSTRUCTURE
     1 RES1        1 GROUP             0 ****  ****    0  
@<TRIPOS>MOLECULE
ligand_65
    26    29     1     0     0
SMALL
USER_CHARGES
****
Generated from the CSD

@<TRIPOS>ATOM
     1 C1       6.6668  -2.9725   0.2983   C.3       1 RES1   0.0000
     2 C2       5.3596  -2.1278   0.0337   C.3       1 RES1   0.0000
     3 C3       4.3128  -3.0016  -0.4883   C.1       1 RES1   0.0000
     4 C4       3.4790  -3.6923  -0.9068   C.1       1 RES1   0.0000
     5 C5       2.4484  -4.5380  -1.3908   C.2       1 RES1   0.0000
     6 C6       2.1329  -4.5941  -2.7868   C.2       1 RES1   0.0000
     7 C7       1.0819  -5.4343  -3.2645   C.2       1 RES1   0.0000
     8 C8       0.3339  -6.2151  -2.3228   C.2       1 RES1   0.0000
     9 C9       0.6435  -6.1680  -0.8854   C.2       1 RES1   0.0000
    10 O10     -0.1027  -6.9150   0.0255   O.3       1 RES1   0.0000
    11 C11      0.0978  -6.9598   1.4515   C.3       1 RES1   0.0000
    12 C12     -0.0807  -5.5477   2.0466   C.3       1 RES1   0.0000
    13 C13      0.1369  -5.6255   3.5791   C.3       1 RES1   0.0000
    14 C14     -0.8984  -6.5676   4.2079   C.3       1 RES1   0.0000
    15 C15     -0.7094  -7.9623   3.6075   C.3       1 RES1   0.0000
    16 C16      0.7002  -8.4834   3.9135   C.3       1 RES1   0.0000
    17 C17      1.7191  -7.5247   3.2859   C.3       1 RES1   0.0000
    18 C18      1.5642  -6.1195   3.8835   C.3       1 RES1   0.0000
    19 C19      1.5226  -7.4687   1.7560   C.3       1 RES1   0.0000
    20 C20     -0.9369  -7.9145   2.0823   C.3       1 RES1   0.0000
    21 C21      1.7102  -5.3215  -0.4426   C.2       1 RES1   0.0000
    22 N22      5.4798  -1.1357  -1.0771   N.am      1 RES1   1.0000
    23 O23      5.2132   0.0697  -0.8655   O.2       1 RES1   0.0000
    24 C24      5.8968  -1.5054  -2.3626   C.2       1 RES1   0.0000
    25 N25      6.1935  -2.8052  -2.5956   N.am      1 RES1   0.0000
    26 O26      6.0011  -0.6863  -3.3158   O.2       1 RES1   0.0000
@<TRIPOS>BOND
     1     2     1    1
     2     2     3    1
     3     3     4    3
     4     4     5    1
     5     5     6    2
     6     6     7    1
     7     7     8    2
     8     8     9    1
     9     9    10    1
    10    11    10    1
    11    11    12    1
    12    13    12    1
    13    13    14    1
    14    15    14    1
    15    15    16    1
    16    17    16    1
    17    17    18    1
    18    17    19    1
    19    15    20    1
    20     9    21    2
    21     2    22    1
    22    22    23    2
    23    22    24   am
    24    24    25   am
    25    24    26    2
    26    21     5    1
    27    19    11    1
    28    20    11    1
    29    18    13    1
@<TRIPOS>SUBSTRUCTURE
     1 RES1        1 GROUP             0 ****  ****    0  
@<TRIPOS>MOLECULE
ligand_66
    26    29     1     0     0
SMALL
USER_CHARGES
****
Generated from the CSD

@<TRIPOS>ATOM
     1 C1       6.6005  -2.1523  -0.9420   C.3       1 RES1   0.0000
     2 C2       5.3596  -2.1278   0.0337   C.3       1 RES1   0.0000
     3 C3       4.3128  -3.0016  -0.4883   C.1       1 RES1   0.0000
     4 C4       3.4790  -3.6923  -0.9068   C.1       1 RES1   0.0000
     5 C5       2.4484  -4.5380  -1.3908   C.2       1 RES1   0.0000
     6 C6       2.1329  -4.5941  -2.7868   C.2       1 RES1   0.0000
     7 C7       1.0819  -5.4343  -3.2645   C.2       1 RES1   0.0000
     8 C8       0.3339  -6.2151  -2.3228   C.2       1 RES1   0.0000
     9 C9       0.6435  -6.1680  -0.8854   C.2       1 RES1   0.0000
    10 O10     -0.1027  -6.9150   0.0255   O.3       1 RES1   0.0000
    11 C11      0.0980  -6.9600   1.4515   C.3       1 RES1   0.0000
    12 C12     -0.0804  -5.5480   2.0468   C.3       1 RES1   0.0000
    13 C13      0.1374  -5.6260   3.5792   C.3       1 RES1   0.0000
    14 C14     -0.8978  -6.5682   4.2080   C.3       1 RES1   0.0000
    15 C15     -0.7090  -7.9628   3.6074   C.3       1 RES1   0.0000
    16 C16      0.7006  -8.4840   3.9131   C.3       1 RES1   0.0000
    17 C17      1.7195  -7.5252   3.2856   C.3       1 RES1   0.0000
    18 C18      1.5647  -6.1201   3.8834   C.3       1 RES1   0.0000
    19 C19      1.5228  -7.4690   1.7557   C.3       1 RES1   0.0000
    20 C20     -0.9367  -7.9148   2.0823   C.3       1 RES1   0.0000
    21 C21      1.7102  -5.3215  -0.4426   C.2       1 RES1   0.0000
    22 N22      4.6383  -0.8202   0.0825   N.am      1 RES1   1.0000
    23 O23      4.4586  -0.2501   1.1833   O.2       1 RES1   0.0000
    24 C24      4.1580  -0.1921  -1.0742   C.2       1 RES1   0.0000
    25 N25      4.3555  -0.7995  -2.2674   N.am      1 RES1   0.0000
    26 O26      3.5428   0.9087  -1.0561   O.2       1 RES1   0.0000
@<TRIPOS>BOND
     1     2     1    1
     2     2     3    1
     3     3     4    3
     4     4     5    1
     5     5     6    2
     6     6     7    1
     7     7     8    2
     8     8     9    1
     9     9    10    1
    10    11    10    1
    11    11    12    1
    12    13    12    1
    13    13    14    1
    14    15    14    1
    15    15    16    1
    16    17    16    1
    17    17    18    1
    18    17    19    1
    19    15    20    1
    20     9    21    2
    21     2    22    1
    22    22    23    2
    23    22    24   am
    24    24    25   am
    25    24    26    2
    26    21     5    1
    27    19    11    1
    28    20    11    1
    29    18    13    1
@<TRIPOS>SUBSTRUCTURE
     1 RES1        1 GROUP             0 ****  ****    0  
@<TRIPOS>MOLECULE
ligand_67
    26    29     1     0     0
SMALL
USER_CHARGES
****
Generated from the CSD

@<TRIPOS>ATOM
     1 C1       5.6705  -0.9926  -1.0185   C.3       1 RES1   0.0000
     2 C2       5.3596  -2.1278   0.0337   C.3       1 RES1   0.0000
     3 C3       4.3128  -3.0016  -0.4883   C.1       1 RES1   0.0000
     4 C4       3.4790  -3.6923  -0.9068   C.1       1 RES1   0.0000
     5 C5       2.4484  -4.5380  -1.3908   C.2       1 RES1   0.0000
     6 C6       2.1329  -4.5941  -2.7868   C.2       1 RES1   0.0000
     7 C7       1.0819  -5.4343  -3.2645   C.2       1 RES1   0.0000
     8 C8       0.3339  -6.2151  -2.3228   C.2       1 RES1   0.0000
     9 C9       0.6435  -6.1680  -0.8854   C.2       1 RES1   0.0000
    10 O10     -0.1027  -6.9150   0.0255   O.3       1 RES1   0.0000
    11 C11      0.0977  -6.9597   1.4516   C.3       1 RES1   0.0000
    12 C12     -0.0807  -5.5476   2.0465   C.3       1 RES1   0.0000
    13 C13      0.1368  -5.6252   3.5790   C.3       1 RES1   0.0000
    14 C14     -0.8985  -6.5673   4.2078   C.3       1 RES1   0.0000
    15 C15     -0.7096  -7.9620   3.6076   C.3       1 RES1   0.0000
    16 C16      0.7000  -8.4832   3.9136   C.3       1 RES1   0.0000
    17 C17      1.7190  -7.5246   3.2860   C.3       1 RES1   0.0000
    18 C18      1.5641  -6.1193   3.8835   C.3       1 RES1   0.0000
    19 C19      1.5225  -7.4687   1.7561   C.3       1 RES1   0.0000
    20 C20     -0.9370  -7.9144   2.0823   C.3       1 RES1   0.0000
    21 C21      1.7102  -5.3215  -0.4426   C.2       1 RES1   0.0000
    22 N22      4.7209  -1.6430   1.2944   N.am      1 RES1   1.0000
    23 O23      5.2423  -1.9157   2.4001   O.2       1 RES1   0.0000
    24 C24      3.5498  -0.8737   1.2867   C.2       1 RES1   0.0000
    25 N25      2.9857  -0.5695   0.0947   N.am      1 RES1   0.0000
    26 O26      2.9913  -0.4578   2.3382   O.2       1 RES1   0.0000
@<TRIPOS>BOND
     1     2     1    1
     2     2     3    1
     3     3     4    3
     4     4     5    1
     5     5     6    2
     6     6     7    1
     7     7     8    2
     8     8     9    1
     9     9    10    1
    10    11    10    1
    11    11    12    1
    12    13    12    1
    13    13    14    1
    14    15    14    1
    15    15    16    1
    16    17    16    1
    17    17    18    1
    18    17    19    1
    19    15    20    1
    20     9    21    2
    21     2    22    1
    22    22    23    2
    23    22    24   am
    24    24    25   am
    25    24    26    2
    26    21     5    1
    27    19    11    1
    28    20    11    1
    29    18    13    1
@<TRIPOS>SUBSTRUCTURE
     1 RES1        1 GROUP             0 ****  ****    0  
@<TRIPOS>MOLECULE
ligand_68
    26    29     1     0     0
SMALL
USER_CHARGES
****
Generated from the CSD

@<TRIPOS>ATOM
     1 C1       4.8069  -0.6532   0.1453   C.3       1 RES1   0.0000
     2 C2       5.3596  -2.1278   0.0337   C.3       1 RES1   0.0000
     3 C3       4.3128  -3.0016  -0.4883   C.1       1 RES1   0.0000
     4 C4       3.4790  -3.6923  -0.9068   C.1       1 RES1   0.0000
     5 C5       2.4484  -4.5380  -1.3908   C.2       1 RES1   0.0000
     6 C6       2.1329  -4.5941  -2.7868   C.2       1 RES1   0.0000
     7 C7       1.0819  -5.4343  -3.2645   C.2       1 RES1   0.0000
     8 C8       0.3339  -6.2151  -2.3228   C.2       1 RES1   0.0000
     9 C9       0.6435  -6.1680  -0.8854   C.2       1 RES1   0.0000
    10 O10     -0.1027  -6.9150   0.0255   O.3       1 RES1   0.0000
    11 C11      0.0981  -6.9601   1.4515   C.3       1 RES1   0.0000
    12 C12     -0.0803  -5.5482   2.0469   C.3       1 RES1   0.0000
    13 C13      0.1375  -5.6263   3.5793   C.3       1 RES1   0.0000
    14 C14     -0.8976  -6.5685   4.2081   C.3       1 RES1   0.0000
    15 C15     -0.7088  -7.9631   3.6074   C.3       1 RES1   0.0000
    16 C16      0.7009  -8.4843   3.9130   C.3       1 RES1   0.0000
    17 C17      1.7197  -7.5254   3.2854   C.3       1 RES1   0.0000
    18 C18      1.5649  -6.1204   3.8833   C.3       1 RES1   0.0000
    19 C19      1.5229  -7.4691   1.7555   C.3       1 RES1   0.0000
    20 C20     -0.9365  -7.9150   2.0822   C.3       1 RES1   0.0000
    21 C21      1.7102  -5.3215  -0.4426   C.2       1 RES1   0.0000
    22 N22      5.6450  -2.7812   1.3466   N.am      1 RES1   1.0000
    23 O23      6.7805  -3.2614   1.5682   O.2       1 RES1   0.0000
    24 C24      4.6805  -2.8685   2.3592   C.2       1 RES1   0.0000
    25 N25      3.4539  -2.3451   2.1285   N.am      1 RES1   0.0000
    26 O26      4.8979  -3.4191   3.4728   O.2       1 RES1   0.0000
@<TRIPOS>BOND
     1     2     1    1
     2     2     3    1
     3     3     4    3
     4     4     5    1
     5     5     6    2
     6     6     7    1
     7     7     8    2
     8     8     9    1
     9     9    10    1
    10    11    10    1
    11    11    12    1
    12    13    12    1
    13    13    14    1
    14    15    14    1
    15    15    16    1
    16    17    16    1
    17    17    18    1
    18    17    19    1
    19    15    20    1
    20     9    21    2
    21     2    22    1
    22    22    23    2
    23    22    24   am
    24    24    25   am
    25    24    26    2
    26    21     5    1
    27    19    11    1
    28    20    11    1
    29    18    13    1
@<TRIPOS>SUBSTRUCTURE
     1 RES1        1 GROUP             0 ****  ****    0  
@<TRIPOS>MOLECULE
ligand_69
    26    29     1     0     0
SMALL
USER_CHARGES
****
Generated from the CSD

@<TRIPOS>ATOM
     1 C1       4.8732  -1.4734   1.3856   C.3       1 RES1   0.0000
     2 C2       5.3596  -2.1278   0.0337   C.3       1 RES1   0.0000
     3 C3       4.3128  -3.0016  -0.4883   C.1       1 RES1   0.0000
     4 C4       3.4790  -3.6923  -0.9068   C.1       1 RES1   0.0000
     5 C5       2.4484  -4.5380  -1.3908   C.2       1 RES1   0.0000
     6 C6       2.1329  -4.5941  -2.7868   C.2       1 RES1   0.0000
     7 C7       1.0819  -5.4343  -3.2645   C.2       1 RES1   0.0000
     8 C8       0.3339  -6.2151  -2.3228   C.2       1 RES1   0.0000
     9 C9       0.6435  -6.1680  -0.8854   C.2       1 RES1   0.0000
    10 O10     -0.1027  -6.9150   0.0255   O.3       1 RES1   0.0000
    11 C11      0.0980  -6.9600   1.4515   C.3       1 RES1   0.0000
    12 C12     -0.0804  -5.5480   2.0468   C.3       1 RES1   0.0000
    13 C13      0.1374  -5.6260   3.5792   C.3       1 RES1   0.0000
    14 C14     -0.8978  -6.5682   4.2081   C.3       1 RES1   0.0000
    15 C15     -0.7090  -7.9628   3.6074   C.3       1 RES1   0.0000
    16 C16      0.7007  -8.4840   3.9131   C.3       1 RES1   0.0000
    17 C17      1.7196  -7.5253   3.2855   C.3       1 RES1   0.0000
    18 C18      1.5648  -6.1202   3.8834   C.3       1 RES1   0.0000
    19 C19      1.5228  -7.4690   1.7556   C.3       1 RES1   0.0000
    20 C20     -0.9367  -7.9148   2.0823   C.3       1 RES1   0.0000
    21 C21      1.7102  -5.3215  -0.4426   C.2       1 RES1   0.0000
    22 N22      6.4865  -3.0967   0.1870   N.am      1 RES1   1.0000
    23 O23      7.5349  -2.9416  -0.4806   O.2       1 RES1   0.0000
    24 C24      6.4193  -4.1818   1.0709   C.2       1 RES1   0.0000
    25 N25      5.2920  -4.3506   1.8004   N.am      1 RES1   0.0000
    26 O26      7.3561  -5.0141   1.2132   O.2       1 RES1   0.0000
@<TRIPOS>BOND
     1     2     1    1
     2     2     3    1
     3     3     4    3
     4     4     5    1
     5     5     6    2
     6     6     7    1
     7     7     8    2
     8     8     9    1
     9     9    10    1
    10    11    10    1
    11    11    12    1
    12    13    12    1
    13    13    14    1
    14    15    14    1
    15    15    16    1
    16    17    16    1
    17    17    18    1
    18    17    19    1
    19    15    20    1
    20     9    21    2
    21     2    22    1
    22    22    23    2
    23    22    24   am
    24    24    25   am
    25    24    26    2
    26    21     5    1
    27    19    11    1
    28    20    11    1
    29    18    13    1
@<TRIPOS>SUBSTRUCTURE
     1 RES1        1 GROUP             0 ****  ****    0  
@<TRIPOS>MOLECULE
ligand_70
    26    29     1     0     0
SMALL
USER_CHARGES
****
Generated from the CSD

@<TRIPOS>ATOM
     1 C1       5.8032  -2.6331   1.4620   C.3       1 RES1   0.0000
     2 C2       5.3596  -2.1278   0.0337   C.3       1 RES1   0.0000
     3 C3       4.3128  -3.0016  -0.4883   C.1       1 RES1   0.0000
     4 C4       3.4790  -3.6923  -0.9068   C.1       1 RES1   0.0000
     5 C5       2.4484  -4.5380  -1.3908   C.2       1 RES1   0.0000
     6 C6       2.1329  -4.5941  -2.7868   C.2       1 RES1   0.0000
     7 C7       1.0819  -5.4343  -3.2645   C.2       1 RES1   0.0000
     8 C8       0.3339  -6.2151  -2.3228   C.2       1 RES1   0.0000
     9 C9       0.6435  -6.1680  -0.8854   C.2       1 RES1   0.0000
    10 O10     -0.1027  -6.9150   0.0255   O.3       1 RES1   0.0000
    11 C11      0.0980  -6.9600   1.4515   C.3       1 RES1   0.0000
    12 C12     -0.0804  -5.5480   2.0468   C.3       1 RES1   0.0000
    13 C13      0.1374  -5.6260   3.5792   C.3       1 RES1   0.0000
    14 C14     -0.8978  -6.5682   4.2081   C.3       1 RES1   0.0000
    15 C15     -0.7090  -7.9628   3.6074   C.3       1 RES1   0.0000
    16 C16      0.7007  -8.4840   3.9131   C.3       1 RES1   0.0000
    17 C17      1.7196  -7.5253   3.2855   C.3       1 RES1   0.0000
    18 C18      1.5648  -6.1201   3.8834   C.3       1 RES1   0.0000
    19 C19      1.5228  -7.4690   1.7556   C.3       1 RES1   0.0000
    20 C20     -0.9367  -7.9148   2.0823   C.3       1 RES1   0.0000
    21 C21      1.7102  -5.3215  -0.4426   C.2       1 RES1   0.0000
    22 N22      6.4039  -2.2739  -1.0248   N.am      1 RES1   1.0000
    23 O23      6.7512  -1.2760  -1.6975   O.2       1 RES1   0.0000
    24 C24      7.0275  -3.5003  -1.2900   C.2       1 RES1   0.0000
    25 N25      6.6618  -4.5807  -0.5616   N.am      1 RES1   0.0000
    26 O26      7.9078  -3.6477  -2.1810   O.2       1 RES1   0.0000
@<TRIPOS>BOND
     1     2     1    1
     2     2     3    1
     3     3     4    3
     4     4     5    1
     5     5     6    2
     6     6     7    1
     7     7     8    2
     8     8     9    1
     9     9    10    1
    10    11    10    1
    11    11    12    1
    12    13    12    1
    13    13    14    1
    14    15    14    1
    15    15    16    1
    16    17    16    1
    17    17    18    1
    18    17    19    1
    19    15    20    1
    20     9    21    2
    21     2    22    1
    22    22    23    2
    23    22    24   am
    24    24    25   am
    25    24    26    2
    26    21     5    1
    27    19    11    1
    28    20    11    1
    29    18    13    1
@<TRIPOS>SUBSTRUCTURE
     1 RES1        1 GROUP             0 ****  ****    0  
@<TRIPOS>MOLECULE
ligand_71
    26    29     1     0     0
SMALL
USER_CHARGES
****
Generated from the CSD

@<TRIPOS>ATOM
     1 C1      -7.0805 -10.1538  -1.4794   C.3       1 RES1   0.0000
     2 C2      -6.1686  -9.8143  -2.7227   C.3       1 RES1   0.0000
     3 C3      -5.1931  -8.7950  -2.3469   C.1       1 RES1   0.0000
     4 C4      -4.4182  -7.9822  -2.0531   C.1       1 RES1   0.0000
     5 C5      -3.4509  -7.0104  -1.6904   C.2       1 RES1   0.0000
     6 C6      -3.6253  -5.6305  -2.0322   C.2       1 RES1   0.0000
     7 C7      -2.6385  -4.6607  -1.6795   C.2       1 RES1   0.0000
     8 C8      -1.4587  -5.0899  -0.9870   C.2       1 RES1   0.0000
     9 C9      -1.2627  -6.5035  -0.6298   C.2       1 RES1   0.0000
    10 O10     -0.1027  -6.9150   0.0255   O.3       1 RES1   0.0000
    11 C11      0.0961  -6.9577   1.4518   C.3       1 RES1   0.0000
    12 C12     -0.0735  -5.5431   2.0434   C.3       1 RES1   0.0000
    13 C13      0.1420  -5.6186   3.5762   C.3       1 RES1   0.0000
    14 C14     -0.9001  -6.5524   4.2063   C.3       1 RES1   0.0000
    15 C15     -0.7199  -7.9497   3.6094   C.3       1 RES1   0.0000
    16 C16      0.6859  -8.4795   3.9180   C.3       1 RES1   0.0000
    17 C17      1.7119  -7.5291   3.2891   C.3       1 RES1   0.0000
    18 C18      1.5658  -6.1215   3.8832   C.3       1 RES1   0.0000
    19 C19      1.5171  -7.4754   1.7589   C.3       1 RES1   0.0000
    20 C20     -0.9456  -7.9040   2.0838   C.3       1 RES1   0.0000
    21 C21     -2.2771  -7.4474  -0.9909   C.2       1 RES1   0.0000
    22 N22     -6.8809  -9.1255  -3.8410   N.am      1 RES1   1.0000
    23 O23     -7.6691  -8.1850  -3.5902   O.2       1 RES1   0.0000
    24 C24     -6.6892  -9.4890  -5.1806   C.2       1 RES1   0.0000
    25 N25     -7.3561  -8.8019  -6.1371   N.am      1 RES1   0.0000
    26 O26     -5.9184 -10.4207  -5.5386   O.2       1 RES1   0.0000
@<TRIPOS>BOND
     1     2     1    1
     2     2     3    1
     3     3     4    3
     4     4     5    1
     5     5     6    2
     6     6     7    1
     7     7     8    2
     8     8     9    1
     9     9    10    1
    10    11    10    1
    11    11    12    1
    12    13    12    1
    13    13    14    1
    14    15    14    1
    15    15    16    1
    16    17    16    1
    17    17    18    1
    18    17    19    1
    19    15    20    1
    20     9    21    2
    21     2    22    1
    22    22    23    2
    23    22    24   am
    24    24    25   am
    25    24    26    2
    26    21     5    1
    27    19    11    1
    28    20    11    1
    29    18    13    1
@<TRIPOS>SUBSTRUCTURE
     1 RES1        1 GROUP             0 ****  ****    0  
@<TRIPOS>MOLECULE
ligand_72
    26    29     1     0     0
SMALL
USER_CHARGES
****
Generated from the CSD

@<TRIPOS>ATOM
     1 C1      -7.6277  -9.2451  -2.5236   C.3       1 RES1   0.0000
     2 C2      -6.1686  -9.8143  -2.7227   C.3       1 RES1   0.0000
     3 C3      -5.1931  -8.7950  -2.3469   C.1       1 RES1   0.0000
     4 C4      -4.4182  -7.9822  -2.0531   C.1       1 RES1   0.0000
     5 C5      -3.4509  -7.0104  -1.6904   C.2       1 RES1   0.0000
     6 C6      -3.6253  -5.6305  -2.0322   C.2       1 RES1   0.0000
     7 C7      -2.6385  -4.6607  -1.6795   C.2       1 RES1   0.0000
     8 C8      -1.4587  -5.0899  -0.9870   C.2       1 RES1   0.0000
     9 C9      -1.2627  -6.5035  -0.6298   C.2       1 RES1   0.0000
    10 O10     -0.1027  -6.9150   0.0255   O.3       1 RES1   0.0000
    11 C11      0.0961  -6.9577   1.4518   C.3       1 RES1   0.0000
    12 C12     -0.0735  -5.5431   2.0434   C.3       1 RES1   0.0000
    13 C13      0.1420  -5.6186   3.5762   C.3       1 RES1   0.0000
    14 C14     -0.9001  -6.5524   4.2063   C.3       1 RES1   0.0000
    15 C15     -0.7199  -7.9497   3.6094   C.3       1 RES1   0.0000
    16 C16      0.6859  -8.4795   3.9180   C.3       1 RES1   0.0000
    17 C17      1.7119  -7.5291   3.2891   C.3       1 RES1   0.0000
    18 C18      1.5658  -6.1215   3.8832   C.3       1 RES1   0.0000
    19 C19      1.5171  -7.4754   1.7589   C.3       1 RES1   0.0000
    20 C20     -0.9456  -7.9040   2.0838   C.3       1 RES1   0.0000
    21 C21     -2.2771  -7.4474  -0.9909   C.2       1 RES1   0.0000
    22 N22     -5.7896 -10.0570  -4.1474   N.am      1 RES1   1.0000
    23 O23     -6.0607  -9.1980  -5.0178   O.2       1 RES1   0.0000
    24 C24     -5.1221 -11.2208  -4.5515   C.2       1 RES1   0.0000
    25 N25     -4.7950 -11.3561  -5.8578   N.am      1 RES1   0.0000
    26 O26     -4.8039 -12.1450  -3.7547   O.2       1 RES1   0.0000
@<TRIPOS>BOND
     1     2     1    1
     2     2     3    1
     3     3     4    3
     4     4     5    1
     5     5     6    2
     6     6     7    1
     7     7     8    2
     8     8     9    1
     9     9    10    1
    10    11    10    1
    11    11    12    1
    12    13    12    1
    13    13    14    1
    14    15    14    1
    15    15    16    1
    16    17    16    1
    17    17    18    1
    18    17    19    1
    19    15    20    1
    20     9    21    2
    21     2    22    1
    22    22    23    2
    23    22    24   am
    24    24    25   am
    25    24    26    2
    26    21     5    1
    27    19    11    1
    28    20    11    1
    29    18    13    1
@<TRIPOS>SUBSTRUCTURE
     1 RES1        1 GROUP             0 ****  ****    0  
@<TRIPOS>MOLECULE
ligand_73
    26    29     1     0     0
SMALL
USER_CHARGES
****
Generated from the CSD

@<TRIPOS>ATOM
     1 C1      -7.0674  -9.2729  -3.9023   C.3       1 RES1   0.0000
     2 C2      -6.1686  -9.8143  -2.7227   C.3       1 RES1   0.0000
     3 C3      -5.1931  -8.7950  -2.3469   C.1       1 RES1   0.0000
     4 C4      -4.4182  -7.9822  -2.0531   C.1       1 RES1   0.0000
     5 C5      -3.4509  -7.0104  -1.6904   C.2       1 RES1   0.0000
     6 C6      -3.6253  -5.6305  -2.0322   C.2       1 RES1   0.0000
     7 C7      -2.6385  -4.6607  -1.6795   C.2       1 RES1   0.0000
     8 C8      -1.4587  -5.0899  -0.9870   C.2       1 RES1   0.0000
     9 C9      -1.2627  -6.5035  -0.6298   C.2       1 RES1   0.0000
    10 O10     -0.1027  -6.9150   0.0255   O.3       1 RES1   0.0000
    11 C11      0.0961  -6.9577   1.4518   C.3       1 RES1   0.0000
    12 C12     -0.0735  -5.5431   2.0434   C.3       1 RES1   0.0000
    13 C13      0.1420  -5.6186   3.5762   C.3       1 RES1   0.0000
    14 C14     -0.9001  -6.5524   4.2063   C.3       1 RES1   0.0000
    15 C15     -0.7199  -7.9497   3.6094   C.3       1 RES1   0.0000
    16 C16      0.6859  -8.4795   3.9180   C.3       1 RES1   0.0000
    17 C17      1.7119  -7.5291   3.2891   C.3       1 RES1   0.0000
    18 C18      1.5658  -6.1215   3.8832   C.3       1 RES1   0.0000
    19 C19      1.5171  -7.4754   1.7589   C.3       1 RES1   0.0000
    20 C20     -0.9456  -7.9040   2.0838   C.3       1 RES1   0.0000
    21 C21     -2.2771  -7.4474  -0.9909   C.2       1 RES1   0.0000
    22 N22     -5.2664 -10.9433  -3.1018   N.am      1 RES1   1.0000
    23 O23     -4.6193 -10.8891  -4.1729   O.2       1 RES1   0.0000
    24 C24     -5.1049 -12.0720  -2.2875   C.2       1 RES1   0.0000
    25 N25     -4.2526 -13.0424  -2.6919   N.am      1 RES1   0.0000
    26 O26     -5.7096 -12.2234  -1.1912   O.2       1 RES1   0.0000
@<TRIPOS>BOND
     1     2     1    1
     2     2     3    1
     3     3     4    3
     4     4     5    1
     5     5     6    2
     6     6     7    1
     7     7     8    2
     8     8     9    1
     9     9    10    1
    10    11    10    1
    11    11    12    1
    12    13    12    1
    13    13    14    1
    14    15    14    1
    15    15    16    1
    16    17    16    1
    17    17    18    1
    18    17    19    1
    19    15    20    1
    20     9    21    2
    21     2    22    1
    22    22    23    2
    23    22    24   am
    24    24    25   am
    25    24    26    2
    26    21     5    1
    27    19    11    1
    28    20    11    1
    29    18    13    1
@<TRIPOS>SUBSTRUCTURE
     1 RES1        1 GROUP             0 ****  ****    0  
@<TRIPOS>MOLECULE
ligand_74
    26    29     1     0     0
SMALL
USER_CHARGES
****
Generated from the CSD

@<TRIPOS>ATOM
     1 C1      -5.9600 -10.2095  -4.2368   C.3       1 RES1   0.0000
     2 C2      -6.1686  -9.8143  -2.7227   C.3       1 RES1   0.0000
     3 C3      -5.1931  -8.7950  -2.3469   C.1       1 RES1   0.0000
     4 C4      -4.4182  -7.9822  -2.0531   C.1       1 RES1   0.0000
     5 C5      -3.4509  -7.0104  -1.6904   C.2       1 RES1   0.0000
     6 C6      -3.6253  -5.6305  -2.0322   C.2       1 RES1   0.0000
     7 C7      -2.6385  -4.6607  -1.6795   C.2       1 RES1   0.0000
     8 C8      -1.4587  -5.0899  -0.9870   C.2       1 RES1   0.0000
     9 C9      -1.2627  -6.5035  -0.6298   C.2       1 RES1   0.0000
    10 O10     -0.1027  -6.9150   0.0255   O.3       1 RES1   0.0000
    11 C11      0.0961  -6.9577   1.4518   C.3       1 RES1   0.0000
    12 C12     -0.0735  -5.5431   2.0434   C.3       1 RES1   0.0000
    13 C13      0.1420  -5.6186   3.5762   C.3       1 RES1   0.0000
    14 C14     -0.9001  -6.5524   4.2063   C.3       1 RES1   0.0000
    15 C15     -0.7199  -7.9497   3.6094   C.3       1 RES1   0.0000
    16 C16      0.6859  -8.4795   3.9180   C.3       1 RES1   0.0000
    17 C17      1.7119  -7.5291   3.2891   C.3       1 RES1   0.0000
    18 C18      1.5658  -6.1215   3.8832   C.3       1 RES1   0.0000
    19 C19      1.5171  -7.4754   1.7589   C.3       1 RES1   0.0000
    20 C20     -0.9456  -7.9040   2.0838   C.3       1 RES1   0.0000
    21 C21     -2.2771  -7.4474  -0.9909   C.2       1 RES1   0.0000
    22 N22     -5.8344 -10.8980  -1.7499   N.am      1 RES1   1.0000
    23 O23     -4.7863 -11.5671  -1.9006   O.2       1 RES1   0.0000
    24 C24     -6.6547 -11.1914  -0.6526   C.2       1 RES1   0.0000
    25 N25     -6.2713 -12.1746   0.1948   N.am      1 RES1   0.0000
    26 O26     -7.7296 -10.5774  -0.4116   O.2       1 RES1   0.0000
@<TRIPOS>BOND
     1     2     1    1
     2     2     3    1
     3     3     4    3
     4     4     5    1
     5     5     6    2
     6     6     7    1
     7     7     8    2
     8     8     9    1
     9     9    10    1
    10    11    10    1
    11    11    12    1
    12    13    12    1
    13    13    14    1
    14    15    14    1
    15    15    16    1
    16    17    16    1
    17    17    18    1
    18    17    19    1
    19    15    20    1
    20     9    21    2
    21     2    22    1
    22    22    23    2
    23    22    24   am
    24    24    25   am
    25    24    26    2
    26    21     5    1
    27    19    11    1
    28    20    11    1
    29    18    13    1
@<TRIPOS>SUBSTRUCTURE
     1 RES1        1 GROUP             0 ****  ****    0  
@<TRIPOS>MOLECULE
ligand_75
    26    29     1     0     0
SMALL
USER_CHARGES
****
Generated from the CSD

@<TRIPOS>ATOM
     1 C1      -5.4128 -11.1182  -3.1926   C.3       1 RES1   0.0000
     2 C2      -6.1686  -9.8143  -2.7227   C.3       1 RES1   0.0000
     3 C3      -5.1931  -8.7950  -2.3469   C.1       1 RES1   0.0000
     4 C4      -4.4182  -7.9822  -2.0531   C.1       1 RES1   0.0000
     5 C5      -3.4509  -7.0104  -1.6904   C.2       1 RES1   0.0000
     6 C6      -3.6253  -5.6305  -2.0322   C.2       1 RES1   0.0000
     7 C7      -2.6385  -4.6607  -1.6795   C.2       1 RES1   0.0000
     8 C8      -1.4587  -5.0899  -0.9870   C.2       1 RES1   0.0000
     9 C9      -1.2627  -6.5035  -0.6298   C.2       1 RES1   0.0000
    10 O10     -0.1027  -6.9150   0.0255   O.3       1 RES1   0.0000
    11 C11      0.0961  -6.9577   1.4518   C.3       1 RES1   0.0000
    12 C12     -0.0735  -5.5431   2.0434   C.3       1 RES1   0.0000
    13 C13      0.1420  -5.6186   3.5762   C.3       1 RES1   0.0000
    14 C14     -0.9001  -6.5524   4.2063   C.3       1 RES1   0.0000
    15 C15     -0.7199  -7.9497   3.6094   C.3       1 RES1   0.0000
    16 C16      0.6859  -8.4795   3.9180   C.3       1 RES1   0.0000
    17 C17      1.7119  -7.5291   3.2891   C.3       1 RES1   0.0000
    18 C18      1.5658  -6.1215   3.8832   C.3       1 RES1   0.0000
    19 C19      1.5171  -7.4754   1.7589   C.3       1 RES1   0.0000
    20 C20     -0.9456  -7.9040   2.0838   C.3       1 RES1   0.0000
    21 C21     -2.2771  -7.4474  -0.9909   C.2       1 RES1   0.0000
    22 N22     -6.9257  -9.9666  -1.4436   N.am      1 RES1   1.0000
    23 O23     -6.3947 -10.5540  -0.4731   O.2       1 RES1   0.0000
    24 C24     -8.2218  -9.4596  -1.2816   C.2       1 RES1   0.0000
    25 N25     -8.8324  -9.6204  -0.0845   N.am      1 RES1   0.0000
    26 O26     -8.8441  -8.8530  -2.1956   O.2       1 RES1   0.0000
@<TRIPOS>BOND
     1     2     1    1
     2     2     3    1
     3     3     4    3
     4     4     5    1
     5     5     6    2
     6     6     7    1
     7     7     8    2
     8     8     9    1
     9     9    10    1
    10    11    10    1
    11    11    12    1
    12    13    12    1
    13    13    14    1
    14    15    14    1
    15    15    16    1
    16    17    16    1
    17    17    18    1
    18    17    19    1
    19    15    20    1
    20     9    21    2
    21     2    22    1
    22    22    23    2
    23    22    24   am
    24    24    25   am
    25    24    26    2
    26    21     5    1
    27    19    11    1
    28    20    11    1
    29    18    13    1
@<TRIPOS>SUBSTRUCTURE
     1 RES1        1 GROUP             0 ****  ****    0  
@<TRIPOS>MOLECULE
ligand_76
    26    29     1     0     0
SMALL
USER_CHARGES
****
Generated from the CSD

@<TRIPOS>ATOM
     1 C1      -5.9730 -11.0903  -1.8139   C.3       1 RES1   0.0000
     2 C2      -6.1686  -9.8143  -2.7227   C.3       1 RES1   0.0000
     3 C3      -5.1931  -8.7950  -2.3469   C.1       1 RES1   0.0000
     4 C4      -4.4182  -7.9822  -2.0531   C.1       1 RES1   0.0000
     5 C5      -3.4509  -7.0104  -1.6904   C.2       1 RES1   0.0000
     6 C6      -3.6253  -5.6305  -2.0322   C.2       1 RES1   0.0000
     7 C7      -2.6385  -4.6607  -1.6795   C.2       1 RES1   0.0000
     8 C8      -1.4587  -5.0899  -0.9870   C.2       1 RES1   0.0000
     9 C9      -1.2627  -6.5035  -0.6298   C.2       1 RES1   0.0000
    10 O10     -0.1027  -6.9150   0.0255   O.3       1 RES1   0.0000
    11 C11      0.0961  -6.9577   1.4518   C.3       1 RES1   0.0000
    12 C12     -0.0735  -5.5431   2.0434   C.3       1 RES1   0.0000
    13 C13      0.1420  -5.6186   3.5762   C.3       1 RES1   0.0000
    14 C14     -0.9001  -6.5524   4.2063   C.3       1 RES1   0.0000
    15 C15     -0.7199  -7.9497   3.6094   C.3       1 RES1   0.0000
    16 C16      0.6859  -8.4795   3.9180   C.3       1 RES1   0.0000
    17 C17      1.7119  -7.5291   3.2891   C.3       1 RES1   0.0000
    18 C18      1.5658  -6.1215   3.8832   C.3       1 RES1   0.0000
    19 C19      1.5171  -7.4754   1.7589   C.3       1 RES1   0.0000
    20 C20     -0.9456  -7.9040   2.0838   C.3       1 RES1   0.0000
    21 C21     -2.2771  -7.4474  -0.9909   C.2       1 RES1   0.0000
    22 N22     -7.4489  -9.0803  -2.4891   N.am      1 RES1   1.0000
    23 O23     -7.8361  -8.8629  -1.3179   O.2       1 RES1   0.0000
    24 C24     -8.2391  -8.6084  -3.5456   C.2       1 RES1   0.0000
    25 N25     -9.3748  -7.9341  -3.2504   N.am      1 RES1   0.0000
    26 O26     -7.9385  -8.7747  -4.7590   O.2       1 RES1   0.0000
@<TRIPOS>BOND
     1     2     1    1
     2     2     3    1
     3     3     4    3
     4     4     5    1
     5     5     6    2
     6     6     7    1
     7     7     8    2
     8     8     9    1
     9     9    10    1
    10    11    10    1
    11    11    12    1
    12    13    12    1
    13    13    14    1
    14    15    14    1
    15    15    16    1
    16    17    16    1
    17    17    18    1
    18    17    19    1
    19    15    20    1
    20     9    21    2
    21     2    22    1
    22    22    23    2
    23    22    24   am
    24    24    25   am
    25    24    26    2
    26    21     5    1
    27    19    11    1
    28    20    11    1
    29    18    13    1
@<TRIPOS>SUBSTRUCTURE
     1 RES1        1 GROUP             0 ****  ****    0  
@<TRIPOS>MOLECULE
ligand_77
    26    29     1     0     0
SMALL
USER_CHARGES
****
Generated from the CSD

@<TRIPOS>ATOM
     1 C1      -2.3694  -0.3966  -3.6914   C.3       1 RES1   0.0000
     2 C2      -3.1579  -0.7798  -2.3785   C.3       1 RES1   0.0000
     3 C3      -2.9898  -2.2049  -2.1083   C.1       1 RES1   0.0000
     4 C4      -2.8616  -3.3381  -1.8919   C.1       1 RES1   0.0000
     5 C5      -2.6836  -4.7162  -1.6078   C.2       1 RES1   0.0000
     6 C6      -3.6955  -5.6752  -1.9360   C.2       1 RES1   0.0000
     7 C7      -3.5169  -7.0585  -1.6304   C.2       1 RES1   0.0000
     8 C8      -2.3114  -7.4755  -0.9756   C.2       1 RES1   0.0000
     9 C9      -1.2627  -6.5035  -0.6298   C.2       1 RES1   0.0000
    10 O10     -0.1027  -6.9150   0.0255   O.3       1 RES1   0.0000
    11 C11      0.0961  -6.9577   1.4518   C.3       1 RES1   0.0000
    12 C12     -0.0735  -5.5431   2.0434   C.3       1 RES1   0.0000
    13 C13      0.1420  -5.6186   3.5762   C.3       1 RES1   0.0000
    14 C14     -0.9001  -6.5524   4.2063   C.3       1 RES1   0.0000
    15 C15     -0.7199  -7.9497   3.6094   C.3       1 RES1   0.0000
    16 C16      0.6859  -8.4795   3.9180   C.3       1 RES1   0.0000
    17 C17      1.7119  -7.5291   3.2891   C.3       1 RES1   0.0000
    18 C18      1.5658  -6.1215   3.8832   C.3       1 RES1   0.0000
    19 C19      1.5171  -7.4754   1.7589   C.3       1 RES1   0.0000
    20 C20     -0.9456  -7.9040   2.0838   C.3       1 RES1   0.0000
    21 C21     -1.4712  -5.1257  -0.9594   C.2       1 RES1   0.0000
    22 N22     -4.6441  -0.6887  -2.5019   N.am      1 RES1   1.0000
    23 O23     -5.2127  -1.1478  -3.5191   O.2       1 RES1   0.0000
    24 C24     -5.4393  -0.1111  -1.5033   C.2       1 RES1   0.0000
    25 N25     -6.7807  -0.0857  -1.6811   N.am      1 RES1   0.0000
    26 O26     -4.9656   0.3791  -0.4422   O.2       1 RES1   0.0000
@<TRIPOS>BOND
     1     2     1    1
     2     2     3    1
     3     3     4    3
     4     4     5    1
     5     5     6    2
     6     6     7    1
     7     7     8    2
     8     8     9    1
     9     9    10    1
    10    11    10    1
    11    11    12    1
    12    13    12    1
    13    13    14    1
    14    15    14    1
    15    15    16    1
    16    17    16    1
    17    17    18    1
    18    17    19    1
    19    15    20    1
    20     9    21    2
    21     2    22    1
    22    22    23    2
    23    22    24   am
    24    24    25   am
    25    24    26    2
    26    21     5    1
    27    19    11    1
    28    20    11    1
    29    18    13    1
@<TRIPOS>SUBSTRUCTURE
     1 RES1        1 GROUP             0 ****  ****    0  
@<TRIPOS>MOLECULE
ligand_78
    26    29     1     0     0
SMALL
USER_CHARGES
****
Generated from the CSD

@<TRIPOS>ATOM
     1 C1      -3.8423  -0.5886  -3.7882   C.3       1 RES1   0.0000
     2 C2      -3.1579  -0.7798  -2.3785   C.3       1 RES1   0.0000
     3 C3      -2.9898  -2.2049  -2.1083   C.1       1 RES1   0.0000
     4 C4      -2.8616  -3.3381  -1.8919   C.1       1 RES1   0.0000
     5 C5      -2.6836  -4.7162  -1.6078   C.2       1 RES1   0.0000
     6 C6      -3.6955  -5.6752  -1.9360   C.2       1 RES1   0.0000
     7 C7      -3.5169  -7.0585  -1.6304   C.2       1 RES1   0.0000
     8 C8      -2.3114  -7.4755  -0.9756   C.2       1 RES1   0.0000
     9 C9      -1.2627  -6.5035  -0.6298   C.2       1 RES1   0.0000
    10 O10     -0.1027  -6.9150   0.0255   O.3       1 RES1   0.0000
    11 C11      0.0961  -6.9577   1.4518   C.3       1 RES1   0.0000
    12 C12     -0.0735  -5.5431   2.0434   C.3       1 RES1   0.0000
    13 C13      0.1420  -5.6186   3.5762   C.3       1 RES1   0.0000
    14 C14     -0.9001  -6.5524   4.2063   C.3       1 RES1   0.0000
    15 C15     -0.7199  -7.9497   3.6094   C.3       1 RES1   0.0000
    16 C16      0.6859  -8.4795   3.9180   C.3       1 RES1   0.0000
    17 C17      1.7119  -7.5291   3.2891   C.3       1 RES1   0.0000
    18 C18      1.5658  -6.1215   3.8832   C.3       1 RES1   0.0000
    19 C19      1.5171  -7.4754   1.7589   C.3       1 RES1   0.0000
    20 C20     -0.9456  -7.9040   2.0838   C.3       1 RES1   0.0000
    21 C21     -1.4712  -5.1257  -0.9594   C.2       1 RES1   0.0000
    22 N22     -4.0070  -0.3703  -1.2193   N.am      1 RES1   1.0000
    23 O23     -5.2135  -0.7051  -1.1835   O.2       1 RES1   0.0000
    24 C24     -3.4951   0.3750  -0.1489   C.2       1 RES1   0.0000
    25 N25     -4.3242   0.6884   0.8738   N.am      1 RES1   0.0000
    26 O26     -2.2959   0.7610  -0.0887   O.2       1 RES1   0.0000
@<TRIPOS>BOND
     1     2     1    1
     2     2     3    1
     3     3     4    3
     4     4     5    1
     5     5     6    2
     6     6     7    1
     7     7     8    2
     8     8     9    1
     9     9    10    1
    10    11    10    1
    11    11    12    1
    12    13    12    1
    13    13    14    1
    14    15    14    1
    15    15    16    1
    16    17    16    1
    17    17    18    1
    18    17    19    1
    19    15    20    1
    20     9    21    2
    21     2    22    1
    22    22    23    2
    23    22    24   am
    24    24    25   am
    25    24    26    2
    26    21     5    1
    27    19    11    1
    28    20    11    1
    29    18    13    1
@<TRIPOS>SUBSTRUCTURE
     1 RES1        1 GROUP             0 ****  ****    0  
@<TRIPOS>MOLECULE
ligand_79
    26    29     1     0     0
SMALL
USER_CHARGES
****
Generated from the CSD

@<TRIPOS>ATOM
     1 C1      -4.6913  -0.4583  -2.5726   C.3       1 RES1   0.0000
     2 C2      -3.1579  -0.7798  -2.3785   C.3       1 RES1   0.0000
     3 C3      -2.9898  -2.2049  -2.1083   C.1       1 RES1   0.0000
     4 C4      -2.8616  -3.3381  -1.8919   C.1       1 RES1   0.0000
     5 C5      -2.6836  -4.7162  -1.6078   C.2       1 RES1   0.0000
     6 C6      -3.6955  -5.6752  -1.9360   C.2       1 RES1   0.0000
     7 C7      -3.5169  -7.0585  -1.6304   C.2       1 RES1   0.0000
     8 C8      -2.3114  -7.4755  -0.9756   C.2       1 RES1   0.0000
     9 C9      -1.2627  -6.5035  -0.6298   C.2       1 RES1   0.0000
    10 O10     -0.1027  -6.9150   0.0255   O.3       1 RES1   0.0000
    11 C11      0.0961  -6.9577   1.4518   C.3       1 RES1   0.0000
    12 C12     -0.0735  -5.5431   2.0434   C.3       1 RES1   0.0000
    13 C13      0.1420  -5.6186   3.5762   C.3       1 RES1   0.0000
    14 C14     -0.9001  -6.5524   4.2063   C.3       1 RES1   0.0000
    15 C15     -0.7199  -7.9497   3.6094   C.3       1 RES1   0.0000
    16 C16      0.6859  -8.4795   3.9180   C.3       1 RES1   0.0000
    17 C17      1.7119  -7.5291   3.2891   C.3       1 RES1   0.0000
    18 C18      1.5658  -6.1215   3.8832   C.3       1 RES1   0.0000
    19 C19      1.5171  -7.4754   1.7589   C.3       1 RES1   0.0000
    20 C20     -0.9456  -7.9040   2.0838   C.3       1 RES1   0.0000
    21 C21     -1.4712  -5.1257  -0.9594   C.2       1 RES1   0.0000
    22 N22     -2.5533  -0.1854  -1.1482   N.am      1 RES1   1.0000
    23 O23     -3.1688  -0.2508  -0.0592   O.2       1 RES1   0.0000
    24 C24     -1.3003   0.4415  -1.1635   C.2       1 RES1   0.0000
    25 N25     -0.8125   0.9365  -0.0022   N.am      1 RES1   0.0000
    26 O26     -0.6011   0.5593  -2.2064   O.2       1 RES1   0.0000
@<TRIPOS>BOND
     1     2     1    1
     2     2     3    1
     3     3     4    3
     4     4     5    1
     5     5     6    2
     6     6     7    1
     7     7     8    2
     8     8     9    1
     9     9    10    1
    10    11    10    1
    11    11    12    1
    12    13    12    1
    13    13    14    1
    14    15    14    1
    15    15    16    1
    16    17    16    1
    17    17    18    1
    18    17    19    1
    19    15    20    1
    20     9    21    2
    21     2    22    1
    22    22    23    2
    23    22    24   am
    24    24    25   am
    25    24    26    2
    26    21     5    1
    27    19    11    1
    28    20    11    1
    29    18    13    1
@<TRIPOS>SUBSTRUCTURE
     1 RES1        1 GROUP             0 ****  ****    0  
@<TRIPOS>MOLECULE
ligand_80
    26    29     1     0     0
SMALL
USER_CHARGES
****
Generated from the CSD

@<TRIPOS>ATOM
     1 C1      -4.0675  -0.1359  -1.2602   C.3       1 RES1   0.0000
     2 C2      -3.1579  -0.7798  -2.3785   C.3       1 RES1   0.0000
     3 C3      -2.9898  -2.2049  -2.1083   C.1       1 RES1   0.0000
     4 C4      -2.8616  -3.3381  -1.8919   C.1       1 RES1   0.0000
     5 C5      -2.6836  -4.7162  -1.6078   C.2       1 RES1   0.0000
     6 C6      -3.6955  -5.6752  -1.9360   C.2       1 RES1   0.0000
     7 C7      -3.5169  -7.0585  -1.6304   C.2       1 RES1   0.0000
     8 C8      -2.3114  -7.4755  -0.9756   C.2       1 RES1   0.0000
     9 C9      -1.2627  -6.5035  -0.6298   C.2       1 RES1   0.0000
    10 O10     -0.1027  -6.9150   0.0255   O.3       1 RES1   0.0000
    11 C11      0.0961  -6.9577   1.4518   C.3       1 RES1   0.0000
    12 C12     -0.0735  -5.5431   2.0434   C.3       1 RES1   0.0000
    13 C13      0.1420  -5.6186   3.5762   C.3       1 RES1   0.0000
    14 C14     -0.9001  -6.5524   4.2063   C.3       1 RES1   0.0000
    15 C15     -0.7199  -7.9497   3.6094   C.3       1 RES1   0.0000
    16 C16      0.6859  -8.4795   3.9180   C.3       1 RES1   0.0000
    17 C17      1.7119  -7.5291   3.2891   C.3       1 RES1   0.0000
    18 C18      1.5658  -6.1215   3.8832   C.3       1 RES1   0.0000
    19 C19      1.5171  -7.4754   1.7589   C.3       1 RES1   0.0000
    20 C20     -0.9456  -7.9040   2.0838   C.3       1 RES1   0.0000
    21 C21     -1.4712  -5.1257  -0.9594   C.2       1 RES1   0.0000
    22 N22     -1.7368  -0.3188  -2.3597   N.am      1 RES1   1.0000
    23 O23     -1.1234  -0.2393  -1.2705   O.2       1 RES1   0.0000
    24 C24     -1.0499   0.0219  -3.5324   C.2       1 RES1   0.0000
    25 N25      0.2427   0.4105  -3.4330   N.am      1 RES1   0.0000
    26 O26     -1.5760  -0.0241  -4.6777   O.2       1 RES1   0.0000
@<TRIPOS>BOND
     1     2     1    1
     2     2     3    1
     3     3     4    3
     4     4     5    1
     5     5     6    2
     6     6     7    1
     7     7     8    2
     8     8     9    1
     9     9    10    1
    10    11    10    1
    11    11    12    1
    12    13    12    1
    13    13    14    1
    14    15    14    1
    15    15    16    1
    16    17    16    1
    17    17    18    1
    18    17    19    1
    19    15    20    1
    20     9    21    2
    21     2    22    1
    22    22    23    2
    23    22    24   am
    24    24    25   am
    25    24    26    2
    26    21     5    1
    27    19    11    1
    28    20    11    1
    29    18    13    1
@<TRIPOS>SUBSTRUCTURE
     1 RES1        1 GROUP             0 ****  ****    0  
@<TRIPOS>MOLECULE
ligand_81
    26    29     1     0     0
SMALL
USER_CHARGES
****
Generated from the CSD

@<TRIPOS>ATOM
     1 C1      -2.5946   0.0561  -1.1634   C.3       1 RES1   0.0000
     2 C2      -3.1579  -0.7798  -2.3785   C.3       1 RES1   0.0000
     3 C3      -2.9898  -2.2049  -2.1083   C.1       1 RES1   0.0000
     4 C4      -2.8616  -3.3381  -1.8919   C.1       1 RES1   0.0000
     5 C5      -2.6836  -4.7162  -1.6078   C.2       1 RES1   0.0000
     6 C6      -3.6955  -5.6752  -1.9360   C.2       1 RES1   0.0000
     7 C7      -3.5169  -7.0585  -1.6304   C.2       1 RES1   0.0000
     8 C8      -2.3114  -7.4755  -0.9756   C.2       1 RES1   0.0000
     9 C9      -1.2627  -6.5035  -0.6298   C.2       1 RES1   0.0000
    10 O10     -0.1027  -6.9150   0.0255   O.3       1 RES1   0.0000
    11 C11      0.0961  -6.9577   1.4518   C.3       1 RES1   0.0000
    12 C12     -0.0735  -5.5431   2.0434   C.3       1 RES1   0.0000
    13 C13      0.1420  -5.6186   3.5762   C.3       1 RES1   0.0000
    14 C14     -0.9001  -6.5524   4.2063   C.3       1 RES1   0.0000
    15 C15     -0.7199  -7.9497   3.6094   C.3       1 RES1   0.0000
    16 C16      0.6859  -8.4795   3.9180   C.3       1 RES1   0.0000
    17 C17      1.7119  -7.5291   3.2891   C.3       1 RES1   0.0000
    18 C18      1.5658  -6.1215   3.8832   C.3       1 RES1   0.0000
    19 C19      1.5171  -7.4754   1.7589   C.3       1 RES1   0.0000
    20 C20     -0.9456  -7.9040   2.0838   C.3       1 RES1   0.0000
    21 C21     -1.4712  -5.1257  -0.9594   C.2       1 RES1   0.0000
    22 N22     -2.3739  -0.6371  -3.6423   N.am      1 RES1   1.0000
    23 O23     -1.1227  -0.6820  -3.6061   O.2       1 RES1   0.0000
    24 C24     -2.9941  -0.4642  -4.8868   C.2       1 RES1   0.0000
    25 N25     -2.2138  -0.3636  -5.9880   N.am      1 RES1   0.0000
    26 O26     -4.2456  -0.4060  -5.0312   O.2       1 RES1   0.0000
@<TRIPOS>BOND
     1     2     1    1
     2     2     3    1
     3     3     4    3
     4     4     5    1
     5     5     6    2
     6     6     7    1
     7     7     8    2
     8     8     9    1
     9     9    10    1
    10    11    10    1
    11    11    12    1
    12    13    12    1
    13    13    14    1
    14    15    14    1
    15    15    16    1
    16    17    16    1
    17    17    18    1
    18    17    19    1
    19    15    20    1
    20     9    21    2
    21     2    22    1
    22    22    23    2
    23    22    24   am
    24    24    25   am
    25    24    26    2
    26    21     5    1
    27    19    11    1
    28    20    11    1
    29    18    13    1
@<TRIPOS>SUBSTRUCTURE
     1 RES1        1 GROUP             0 ****  ****    0  
@<TRIPOS>MOLECULE
ligand_82
    26    29     1     0     0
SMALL
USER_CHARGES
****
Generated from the CSD

@<TRIPOS>ATOM
     1 C1      -1.7456  -0.0742  -2.3790   C.3       1 RES1   0.0000
     2 C2      -3.1579  -0.7798  -2.3785   C.3       1 RES1   0.0000
     3 C3      -2.9898  -2.2049  -2.1083   C.1       1 RES1   0.0000
     4 C4      -2.8616  -3.3381  -1.8919   C.1       1 RES1   0.0000
     5 C5      -2.6836  -4.7162  -1.6078   C.2       1 RES1   0.0000
     6 C6      -3.6955  -5.6752  -1.9360   C.2       1 RES1   0.0000
     7 C7      -3.5169  -7.0585  -1.6304   C.2       1 RES1   0.0000
     8 C8      -2.3114  -7.4755  -0.9756   C.2       1 RES1   0.0000
     9 C9      -1.2627  -6.5035  -0.6298   C.2       1 RES1   0.0000
    10 O10     -0.1027  -6.9150   0.0255   O.3       1 RES1   0.0000
    11 C11      0.0961  -6.9577   1.4518   C.3       1 RES1   0.0000
    12 C12     -0.0735  -5.5431   2.0434   C.3       1 RES1   0.0000
    13 C13      0.1420  -5.6186   3.5762   C.3       1 RES1   0.0000
    14 C14     -0.9001  -6.5524   4.2063   C.3       1 RES1   0.0000
    15 C15     -0.7199  -7.9497   3.6094   C.3       1 RES1   0.0000
    16 C16      0.6859  -8.4795   3.9180   C.3       1 RES1   0.0000
    17 C17      1.7119  -7.5291   3.2891   C.3       1 RES1   0.0000
    18 C18      1.5658  -6.1215   3.8832   C.3       1 RES1   0.0000
    19 C19      1.5171  -7.4754   1.7589   C.3       1 RES1   0.0000
    20 C20     -0.9456  -7.9040   2.0838   C.3       1 RES1   0.0000
    21 C21     -1.4712  -5.1257  -0.9594   C.2       1 RES1   0.0000
    22 N22     -3.8275  -0.8220  -3.7134   N.am      1 RES1   1.0000
    23 O23     -3.1673  -1.1363  -4.7304   O.2       1 RES1   0.0000
    24 C24     -5.1888  -0.5306  -3.8722   C.2       1 RES1   0.0000
    25 N25     -5.7255  -0.6117  -5.1120   N.am      1 RES1   0.0000
    26 O26     -5.9404  -0.2044  -2.9135   O.2       1 RES1   0.0000
@<TRIPOS>BOND
     1     2     1    1
     2     2     3    1
     3     3     4    3
     4     4     5    1
     5     5     6    2
     6     6     7    1
     7     7     8    2
     8     8     9    1
     9     9    10    1
    10    11    10    1
    11    11    12    1
    12    13    12    1
    13    13    14    1
    14    15    14    1
    15    15    16    1
    16    17    16    1
    17    17    18    1
    18    17    19    1
    19    15    20    1
    20     9    21    2
    21     2    22    1
    22    22    23    2
    23    22    24   am
    24    24    25   am
    25    24    26    2
    26    21     5    1
    27    19    11    1
    28    20    11    1
    29    18    13    1
@<TRIPOS>SUBSTRUCTURE
     1 RES1        1 GROUP             0 ****  ****    0  
@<TRIPOS>MOLECULE
ligand_83
    26    29     1     0     0
SMALL
USER_CHARGES
****
Generated from the CSD

@<TRIPOS>ATOM
     1 C1      -7.4830  -9.6248  -1.8690   C.3       1 RES1   0.0000
     2 C2      -6.1686  -9.8143  -2.7227   C.3       1 RES1   0.0000
     3 C3      -5.1931  -8.7950  -2.3469   C.1       1 RES1   0.0000
     4 C4      -4.4182  -7.9822  -2.0531   C.1       1 RES1   0.0000
     5 C5      -3.4509  -7.0104  -1.6904   C.2       1 RES1   0.0000
     6 C6      -3.6253  -5.6305  -2.0322   C.2       1 RES1   0.0000
     7 C7      -2.6385  -4.6607  -1.6795   C.2       1 RES1   0.0000
     8 C8      -1.4587  -5.0899  -0.9870   C.2       1 RES1   0.0000
     9 C9      -1.2627  -6.5035  -0.6298   C.2       1 RES1   0.0000
    10 O10     -0.1027  -6.9150   0.0255   O.3       1 RES1   0.0000
    11 C11      0.0961  -6.9577   1.4518   C.3       1 RES1   0.0000
    12 C12     -0.0735  -5.5431   2.0434   C.3       1 RES1   0.0000
    13 C13      0.1420  -5.6186   3.5762   C.3       1 RES1   0.0000
    14 C14     -0.9001  -6.5524   4.2063   C.3       1 RES1   0.0000
    15 C15     -0.7199  -7.9497   3.6094   C.3       1 RES1   0.0000
    16 C16      0.6859  -8.4795   3.9180   C.3       1 RES1   0.0000
    17 C17      1.7119  -7.5291   3.2891   C.3       1 RES1   0.0000
    18 C18      1.5658  -6.1215   3.8832   C.3       1 RES1   0.0000
    19 C19      1.5171  -7.4754   1.7589   C.3       1 RES1   0.0000
    20 C20     -0.9456  -7.9040   2.0838   C.3       1 RES1   0.0000
    21 C21     -2.2771  -7.4474  -0.9909   C.2       1 RES1   0.0000
    22 N22     -6.3318  -9.5262  -4.1796   N.am      1 RES1   1.0000
    23 O23     -6.2575  -8.3458  -4.5920   O.2       1 RES1   0.0000
    24 C24     -6.5564 -10.5421  -5.1181   C.2       1 RES1   0.0000
    25 N25     -6.6726 -10.2010  -6.4226   N.am      1 RES1   0.0000
    26 O26     -6.6473 -11.7608  -4.8064   O.2       1 RES1   0.0000
@<TRIPOS>BOND
     1     2     1    1
     2     2     3    1
     3     3     4    3
     4     4     5    1
     5     5     6    2
     6     6     7    1
     7     7     8    2
     8     8     9    1
     9     9    10    1
    10    11    10    1
    11    11    12    1
    12    13    12    1
    13    13    14    1
    14    15    14    1
    15    15    16    1
    16    17    16    1
    17    17    18    1
    18    17    19    1
    19    15    20    1
    20     9    21    2
    21     2    22    1
    22    22    23    2
    23    22    24   am
    24    24    25   am
    25    24    26    2
    26    21     5    1
    27    19    11    1
    28    20    11    1
    29    18    13    1
@<TRIPOS>SUBSTRUCTURE
     1 RES1        1 GROUP             0 ****  ****    0  
@<TRIPOS>MOLECULE
ligand_84
    26    29     1     0     0
SMALL
USER_CHARGES
****
Generated from the CSD

@<TRIPOS>ATOM
     1 C1      -7.4755  -9.1163  -3.2678   C.3       1 RES1   0.0000
     2 C2      -6.1686  -9.8143  -2.7227   C.3       1 RES1   0.0000
     3 C3      -5.1931  -8.7950  -2.3469   C.1       1 RES1   0.0000
     4 C4      -4.4182  -7.9822  -2.0531   C.1       1 RES1   0.0000
     5 C5      -3.4509  -7.0104  -1.6904   C.2       1 RES1   0.0000
     6 C6      -3.6253  -5.6305  -2.0322   C.2       1 RES1   0.0000
     7 C7      -2.6385  -4.6607  -1.6795   C.2       1 RES1   0.0000
     8 C8      -1.4587  -5.0899  -0.9870   C.2       1 RES1   0.0000
     9 C9      -1.2627  -6.5035  -0.6298   C.2       1 RES1   0.0000
    10 O10     -0.1027  -6.9150   0.0255   O.3       1 RES1   0.0000
    11 C11      0.0961  -6.9577   1.4518   C.3       1 RES1   0.0000
    12 C12     -0.0735  -5.5431   2.0434   C.3       1 RES1   0.0000
    13 C13      0.1420  -5.6186   3.5762   C.3       1 RES1   0.0000
    14 C14     -0.9001  -6.5524   4.2063   C.3       1 RES1   0.0000
    15 C15     -0.7199  -7.9497   3.6094   C.3       1 RES1   0.0000
    16 C16      0.6859  -8.4795   3.9180   C.3       1 RES1   0.0000
    17 C17      1.7119  -7.5291   3.2891   C.3       1 RES1   0.0000
    18 C18      1.5658  -6.1215   3.8832   C.3       1 RES1   0.0000
    19 C19      1.5171  -7.4754   1.7589   C.3       1 RES1   0.0000
    20 C20     -0.9456  -7.9040   2.0838   C.3       1 RES1   0.0000
    21 C21     -2.2771  -7.4474  -0.9909   C.2       1 RES1   0.0000
    22 N22     -5.3997 -10.5757  -3.7529   N.am      1 RES1   1.0000
    23 O23     -4.5937  -9.9728  -4.4984   O.2       1 RES1   0.0000
    24 C24     -5.5389 -11.9608  -3.9117   C.2       1 RES1   0.0000
    25 N25     -4.7908 -12.5804  -4.8542   N.am      1 RES1   0.0000
    26 O26     -6.3220 -12.6597  -3.2127   O.2       1 RES1   0.0000
@<TRIPOS>BOND
     1     2     1    1
     2     2     3    1
     3     3     4    3
     4     4     5    1
     5     5     6    2
     6     6     7    1
     7     7     8    2
     8     8     9    1
     9     9    10    1
    10    11    10    1
    11    11    12    1
    12    13    12    1
    13    13    14    1
    14    15    14    1
    15    15    16    1
    16    17    16    1
    17    17    18    1
    18    17    19    1
    19    15    20    1
    20     9    21    2
    21     2    22    1
    22    22    23    2
    23    22    24   am
    24    24    25   am
    25    24    26    2
    26    21     5    1
    27    19    11    1
    28    20    11    1
    29    18    13    1
@<TRIPOS>SUBSTRUCTURE
     1 RES1        1 GROUP             0 ****  ****    0  
@<TRIPOS>MOLECULE
ligand_85
    26    29     1     0     0
SMALL
USER_CHARGES
****
Generated from the CSD

@<TRIPOS>ATOM
     1 C1      -5.5649 -11.2470  -2.4484   C.3       1 RES1   0.0000
     2 C2      -6.1686  -9.8143  -2.7227   C.3       1 RES1   0.0000
     3 C3      -5.1931  -8.7950  -2.3469   C.1       1 RES1   0.0000
     4 C4      -4.4182  -7.9822  -2.0531   C.1       1 RES1   0.0000
     5 C5      -3.4509  -7.0104  -1.6904   C.2       1 RES1   0.0000
     6 C6      -3.6253  -5.6305  -2.0322   C.2       1 RES1   0.0000
     7 C7      -2.6385  -4.6607  -1.6795   C.2       1 RES1   0.0000
     8 C8      -1.4587  -5.0899  -0.9870   C.2       1 RES1   0.0000
     9 C9      -1.2627  -6.5035  -0.6298   C.2       1 RES1   0.0000
    10 O10     -0.1027  -6.9150   0.0255   O.3       1 RES1   0.0000
    11 C11      0.0961  -6.9577   1.4518   C.3       1 RES1   0.0000
    12 C12     -0.0735  -5.5431   2.0434   C.3       1 RES1   0.0000
    13 C13      0.1420  -5.6186   3.5762   C.3       1 RES1   0.0000
    14 C14     -0.9001  -6.5524   4.2063   C.3       1 RES1   0.0000
    15 C15     -0.7199  -7.9497   3.6094   C.3       1 RES1   0.0000
    16 C16      0.6859  -8.4795   3.9180   C.3       1 RES1   0.0000
    17 C17      1.7119  -7.5291   3.2891   C.3       1 RES1   0.0000
    18 C18      1.5658  -6.1215   3.8832   C.3       1 RES1   0.0000
    19 C19      1.5171  -7.4754   1.7589   C.3       1 RES1   0.0000
    20 C20     -0.9456  -7.9040   2.0838   C.3       1 RES1   0.0000
    21 C21     -2.2771  -7.4474  -0.9909   C.2       1 RES1   0.0000
    22 N22     -7.3156  -9.4479  -1.8381   N.am      1 RES1   1.0000
    23 O23     -7.0960  -8.9792  -0.6974   O.2       1 RES1   0.0000
    24 C24     -8.6475  -9.5997  -2.2459   C.2       1 RES1   0.0000
    25 N25     -9.6298  -9.2248  -1.3936   N.am      1 RES1   0.0000
    26 O26     -8.9751 -10.0614  -3.3728   O.2       1 RES1   0.0000
@<TRIPOS>BOND
     1     2     1    1
     2     2     3    1
     3     3     4    3
     4     4     5    1
     5     5     6    2
     6     6     7    1
     7     7     8    2
     8     8     9    1
     9     9    10    1
    10    11    10    1
    11    11    12    1
    12    13    12    1
    13    13    14    1
    14    15    14    1
    15    15    16    1
    16    17    16    1
    17    17    18    1
    18    17    19    1
    19    15    20    1
    20     9    21    2
    21     2    22    1
    22    22    23    2
    23    22    24   am
    24    24    25   am
    25    24    26    2
    26    21     5    1
    27    19    11    1
    28    20    11    1
    29    18    13    1
@<TRIPOS>SUBSTRUCTURE
     1 RES1        1 GROUP             0 ****  ****    0  
@<TRIPOS>MOLECULE
ligand_86
    26    29     1     0     0
SMALL
USER_CHARGES
****
Generated from the CSD

@<TRIPOS>ATOM
     1 C1      -6.5277 -10.6902  -1.4592   C.3       1 RES1   0.0000
     2 C2      -6.1686  -9.8143  -2.7227   C.3       1 RES1   0.0000
     3 C3      -5.1931  -8.7950  -2.3469   C.1       1 RES1   0.0000
     4 C4      -4.4182  -7.9822  -2.0531   C.1       1 RES1   0.0000
     5 C5      -3.4509  -7.0104  -1.6904   C.2       1 RES1   0.0000
     6 C6      -3.6253  -5.6305  -2.0322   C.2       1 RES1   0.0000
     7 C7      -2.6385  -4.6607  -1.6795   C.2       1 RES1   0.0000
     8 C8      -1.4587  -5.0899  -0.9870   C.2       1 RES1   0.0000
     9 C9      -1.2627  -6.5035  -0.6298   C.2       1 RES1   0.0000
    10 O10     -0.1027  -6.9150   0.0255   O.3       1 RES1   0.0000
    11 C11      0.0961  -6.9577   1.4518   C.3       1 RES1   0.0000
    12 C12     -0.0735  -5.5431   2.0434   C.3       1 RES1   0.0000
    13 C13      0.1420  -5.6186   3.5762   C.3       1 RES1   0.0000
    14 C14     -0.9001  -6.5524   4.2063   C.3       1 RES1   0.0000
    15 C15     -0.7199  -7.9497   3.6094   C.3       1 RES1   0.0000
    16 C16      0.6859  -8.4795   3.9180   C.3       1 RES1   0.0000
    17 C17      1.7119  -7.5291   3.2891   C.3       1 RES1   0.0000
    18 C18      1.5658  -6.1215   3.8832   C.3       1 RES1   0.0000
    19 C19      1.5171  -7.4754   1.7589   C.3       1 RES1   0.0000
    20 C20     -0.9456  -7.9040   2.0838   C.3       1 RES1   0.0000
    21 C21     -2.2771  -7.4474  -0.9909   C.2       1 RES1   0.0000
    22 N22     -7.2898  -8.9623  -3.2222   N.am      1 RES1   1.0000
    23 O23     -7.5087  -7.8490  -2.6916   O.2       1 RES1   0.0000
    24 C24     -8.1108  -9.3616  -4.2851   C.2       1 RES1   0.0000
    25 N25     -9.0921  -8.5232  -4.6923   N.am      1 RES1   0.0000
    26 O26     -7.9738 -10.4616  -4.8865   O.2       1 RES1   0.0000
@<TRIPOS>BOND
     1     2     1    1
     2     2     3    1
     3     3     4    3
     4     4     5    1
     5     5     6    2
     6     6     7    1
     7     7     8    2
     8     8     9    1
     9     9    10    1
    10    11    10    1
    11    11    12    1
    12    13    12    1
    13    13    14    1
    14    15    14    1
    15    15    16    1
    16    17    16    1
    17    17    18    1
    18    17    19    1
    19    15    20    1
    20     9    21    2
    21     2    22    1
    22    22    23    2
    23    22    24   am
    24    24    25   am
    25    24    26    2
    26    21     5    1
    27    19    11    1
    28    20    11    1
    29    18    13    1
@<TRIPOS>SUBSTRUCTURE
     1 RES1        1 GROUP             0 ****  ****    0  
@<TRIPOS>MOLECULE
ligand_87
    26    29     1     0     0
SMALL
USER_CHARGES
****
Generated from the CSD

@<TRIPOS>ATOM
     1 C1      -3.0884  -0.5276  -3.9354   C.3       1 RES1   0.0000
     2 C2      -3.1579  -0.7798  -2.3785   C.3       1 RES1   0.0000
     3 C3      -2.9898  -2.2049  -2.1083   C.1       1 RES1   0.0000
     4 C4      -2.8616  -3.3381  -1.8919   C.1       1 RES1   0.0000
     5 C5      -2.6836  -4.7162  -1.6078   C.2       1 RES1   0.0000
     6 C6      -3.6955  -5.6752  -1.9360   C.2       1 RES1   0.0000
     7 C7      -3.5169  -7.0585  -1.6304   C.2       1 RES1   0.0000
     8 C8      -2.3114  -7.4755  -0.9756   C.2       1 RES1   0.0000
     9 C9      -1.2627  -6.5035  -0.6298   C.2       1 RES1   0.0000
    10 O10     -0.1027  -6.9150   0.0255   O.3       1 RES1   0.0000
    11 C11      0.0961  -6.9577   1.4518   C.3       1 RES1   0.0000
    12 C12     -0.0735  -5.5431   2.0434   C.3       1 RES1   0.0000
    13 C13      0.1420  -5.6186   3.5762   C.3       1 RES1   0.0000
    14 C14     -0.9001  -6.5524   4.2063   C.3       1 RES1   0.0000
    15 C15     -0.7199  -7.9497   3.6094   C.3       1 RES1   0.0000
    16 C16      0.6859  -8.4795   3.9180   C.3       1 RES1   0.0000
    17 C17      1.7119  -7.5291   3.2891   C.3       1 RES1   0.0000
    18 C18      1.5658  -6.1215   3.8832   C.3       1 RES1   0.0000
    19 C19      1.5171  -7.4754   1.7589   C.3       1 RES1   0.0000
    20 C20     -0.9456  -7.9040   2.0838   C.3       1 RES1   0.0000
    21 C21     -1.4712  -5.1257  -0.9594   C.2       1 RES1   0.0000
    22 N22     -4.5011  -0.5335  -1.7724   N.am      1 RES1   1.0000
    23 O23     -5.3747  -1.4303  -1.8114   O.2       1 RES1   0.0000
    24 C24     -4.8223   0.6761  -1.1422   C.2       1 RES1   0.0000
    25 N25     -6.0544   0.8133  -0.5992   N.am      1 RES1   0.0000
    26 O26     -4.0151   1.6406  -1.0493   O.2       1 RES1   0.0000
@<TRIPOS>BOND
     1     2     1    1
     2     2     3    1
     3     3     4    3
     4     4     5    1
     5     5     6    2
     6     6     7    1
     7     7     8    2
     8     8     9    1
     9     9    10    1
    10    11    10    1
    11    11    12    1
    12    13    12    1
    13    13    14    1
    14    15    14    1
    15    15    16    1
    16    17    16    1
    17    17    18    1
    18    17    19    1
    19    15    20    1
    20     9    21    2
    21     2    22    1
    22    22    23    2
    23    22    24   am
    24    24    25   am
    25    24    26    2
    26    21     5    1
    27    19    11    1
    28    20    11    1
    29    18    13    1
@<TRIPOS>SUBSTRUCTURE
     1 RES1        1 GROUP             0 ****  ****    0  
@<TRIPOS>MOLECULE
ligand_88
    26    29     1     0     0
SMALL
USER_CHARGES
****
Generated from the CSD

@<TRIPOS>ATOM
     1 C1      -4.4289  -0.5633  -3.2894   C.3       1 RES1   0.0000
     2 C2      -3.1579  -0.7798  -2.3785   C.3       1 RES1   0.0000
     3 C3      -2.9898  -2.2049  -2.1083   C.1       1 RES1   0.0000
     4 C4      -2.8616  -3.3381  -1.8919   C.1       1 RES1   0.0000
     5 C5      -2.6836  -4.7162  -1.6078   C.2       1 RES1   0.0000
     6 C6      -3.6955  -5.6752  -1.9360   C.2       1 RES1   0.0000
     7 C7      -3.5169  -7.0585  -1.6304   C.2       1 RES1   0.0000
     8 C8      -2.3114  -7.4755  -0.9756   C.2       1 RES1   0.0000
     9 C9      -1.2627  -6.5035  -0.6298   C.2       1 RES1   0.0000
    10 O10     -0.1027  -6.9150   0.0255   O.3       1 RES1   0.0000
    11 C11      0.0961  -6.9577   1.4518   C.3       1 RES1   0.0000
    12 C12     -0.0735  -5.5431   2.0434   C.3       1 RES1   0.0000
    13 C13      0.1420  -5.6186   3.5762   C.3       1 RES1   0.0000
    14 C14     -0.9001  -6.5524   4.2063   C.3       1 RES1   0.0000
    15 C15     -0.7199  -7.9497   3.6094   C.3       1 RES1   0.0000
    16 C16      0.6859  -8.4795   3.9180   C.3       1 RES1   0.0000
    17 C17      1.7119  -7.5291   3.2891   C.3       1 RES1   0.0000
    18 C18      1.5658  -6.1215   3.8832   C.3       1 RES1   0.0000
    19 C19      1.5171  -7.4754   1.7589   C.3       1 RES1   0.0000
    20 C20     -0.9456  -7.9040   2.0838   C.3       1 RES1   0.0000
    21 C21     -1.4712  -5.1257  -0.9594   C.2       1 RES1   0.0000
    22 N22     -3.2940  -0.2430  -0.9908   N.am      1 RES1   1.0000
    23 O23     -3.8634  -0.9298  -0.1116   O.2       1 RES1   0.0000
    24 C24     -2.7915   1.0133  -0.6267   C.2       1 RES1   0.0000
    25 N25     -2.9367   1.4190   0.6563   N.am      1 RES1   0.0000
    26 O26     -2.2026   1.7811  -1.4355   O.2       1 RES1   0.0000
@<TRIPOS>BOND
     1     2     1    1
     2     2     3    1
     3     3     4    3
     4     4     5    1
     5     5     6    2
     6     6     7    1
     7     7     8    2
     8     8     9    1
     9     9    10    1
    10    11    10    1
    11    11    12    1
    12    13    12    1
    13    13    14    1
    14    15    14    1
    15    15    16    1
    16    17    16    1
    17    17    18    1
    18    17    19    1
    19    15    20    1
    20     9    21    2
    21     2    22    1
    22    22    23    2
    23    22    24   am
    24    24    25   am
    25    24    26    2
    26    21     5    1
    27    19    11    1
    28    20    11    1
    29    18    13    1
@<TRIPOS>SUBSTRUCTURE
     1 RES1        1 GROUP             0 ****  ****    0  
@<TRIPOS>MOLECULE
ligand_89
    26    29     1     0     0
SMALL
USER_CHARGES
****
Generated from the CSD

@<TRIPOS>ATOM
     1 C1      -3.3485  -0.0049  -1.0163   C.3       1 RES1   0.0000
     2 C2      -3.1579  -0.7798  -2.3785   C.3       1 RES1   0.0000
     3 C3      -2.9898  -2.2049  -2.1083   C.1       1 RES1   0.0000
     4 C4      -2.8616  -3.3381  -1.8919   C.1       1 RES1   0.0000
     5 C5      -2.6836  -4.7162  -1.6078   C.2       1 RES1   0.0000
     6 C6      -3.6955  -5.6752  -1.9360   C.2       1 RES1   0.0000
     7 C7      -3.5169  -7.0585  -1.6304   C.2       1 RES1   0.0000
     8 C8      -2.3114  -7.4755  -0.9756   C.2       1 RES1   0.0000
     9 C9      -1.2627  -6.5035  -0.6298   C.2       1 RES1   0.0000
    10 O10     -0.1027  -6.9150   0.0255   O.3       1 RES1   0.0000
    11 C11      0.0961  -6.9577   1.4518   C.3       1 RES1   0.0000
    12 C12     -0.0735  -5.5431   2.0434   C.3       1 RES1   0.0000
    13 C13      0.1420  -5.6186   3.5762   C.3       1 RES1   0.0000
    14 C14     -0.9001  -6.5524   4.2063   C.3       1 RES1   0.0000
    15 C15     -0.7199  -7.9497   3.6094   C.3       1 RES1   0.0000
    16 C16      0.6859  -8.4795   3.9180   C.3       1 RES1   0.0000
    17 C17      1.7119  -7.5291   3.2891   C.3       1 RES1   0.0000
    18 C18      1.5658  -6.1215   3.8832   C.3       1 RES1   0.0000
    19 C19      1.5171  -7.4754   1.7589   C.3       1 RES1   0.0000
    20 C20     -0.9456  -7.9040   2.0838   C.3       1 RES1   0.0000
    21 C21     -1.4712  -5.1257  -0.9594   C.2       1 RES1   0.0000
    22 N22     -1.8797  -0.4740  -3.0892   N.am      1 RES1   1.0000
    23 O23     -0.8295  -1.0753  -2.7661   O.2       1 RES1   0.0000
    24 C24     -1.8120   0.4652  -4.1268   C.2       1 RES1   0.0000
    25 N25     -0.6203   0.6701  -4.7346   N.am      1 RES1   0.0000
    26 O26     -2.8106   1.1232  -4.5273   O.2       1 RES1   0.0000
@<TRIPOS>BOND
     1     2     1    1
     2     2     3    1
     3     3     4    3
     4     4     5    1
     5     5     6    2
     6     6     7    1
     7     7     8    2
     8     8     9    1
     9     9    10    1
    10    11    10    1
    11    11    12    1
    12    13    12    1
    13    13    14    1
    14    15    14    1
    15    15    16    1
    16    17    16    1
    17    17    18    1
    18    17    19    1
    19    15    20    1
    20     9    21    2
    21     2    22    1
    22    22    23    2
    23    22    24   am
    24    24    25   am
    25    24    26    2
    26    21     5    1
    27    19    11    1
    28    20    11    1
    29    18    13    1
@<TRIPOS>SUBSTRUCTURE
     1 RES1        1 GROUP             0 ****  ****    0  
@<TRIPOS>MOLECULE
ligand_90
    26    29     1     0     0
SMALL
USER_CHARGES
****
Generated from the CSD

@<TRIPOS>ATOM
     1 C1      -2.0080   0.0307  -1.6622   C.3       1 RES1   0.0000
     2 C2      -3.1579  -0.7798  -2.3785   C.3       1 RES1   0.0000
     3 C3      -2.9898  -2.2049  -2.1083   C.1       1 RES1   0.0000
     4 C4      -2.8616  -3.3381  -1.8919   C.1       1 RES1   0.0000
     5 C5      -2.6836  -4.7162  -1.6078   C.2       1 RES1   0.0000
     6 C6      -3.6955  -5.6752  -1.9360   C.2       1 RES1   0.0000
     7 C7      -3.5169  -7.0585  -1.6304   C.2       1 RES1   0.0000
     8 C8      -2.3114  -7.4755  -0.9756   C.2       1 RES1   0.0000
     9 C9      -1.2627  -6.5035  -0.6298   C.2       1 RES1   0.0000
    10 O10     -0.1027  -6.9150   0.0255   O.3       1 RES1   0.0000
    11 C11      0.0961  -6.9577   1.4518   C.3       1 RES1   0.0000
    12 C12     -0.0735  -5.5431   2.0434   C.3       1 RES1   0.0000
    13 C13      0.1420  -5.6186   3.5762   C.3       1 RES1   0.0000
    14 C14     -0.9001  -6.5524   4.2063   C.3       1 RES1   0.0000
    15 C15     -0.7199  -7.9497   3.6094   C.3       1 RES1   0.0000
    16 C16      0.6859  -8.4795   3.9180   C.3       1 RES1   0.0000
    17 C17      1.7119  -7.5291   3.2891   C.3       1 RES1   0.0000
    18 C18      1.5658  -6.1215   3.8832   C.3       1 RES1   0.0000
    19 C19      1.5171  -7.4754   1.7589   C.3       1 RES1   0.0000
    20 C20     -0.9456  -7.9040   2.0838   C.3       1 RES1   0.0000
    21 C21     -1.4712  -5.1257  -0.9594   C.2       1 RES1   0.0000
    22 N22     -3.0868  -0.7645  -3.8708   N.am      1 RES1   1.0000
    23 O23     -2.3408  -1.5758  -4.4660   O.2       1 RES1   0.0000
    24 C24     -3.8428   0.1280  -4.6423   C.2       1 RES1   0.0000
    25 N25     -3.7379   0.0644  -5.9901   N.am      1 RES1   0.0000
    26 O26     -4.6230   0.9827  -4.1411   O.2       1 RES1   0.0000
@<TRIPOS>BOND
     1     2     1    1
     2     2     3    1
     3     3     4    3
     4     4     5    1
     5     5     6    2
     6     6     7    1
     7     7     8    2
     8     8     9    1
     9     9    10    1
    10    11    10    1
    11    11    12    1
    12    13    12    1
    13    13    14    1
    14    15    14    1
    15    15    16    1
    16    17    16    1
    17    17    18    1
    18    17    19    1
    19    15    20    1
    20     9    21    2
    21     2    22    1
    22    22    23    2
    23    22    24   am
    24    24    25   am
    25    24    26    2
    26    21     5    1
    27    19    11    1
    28    20    11    1
    29    18    13    1
@<TRIPOS>SUBSTRUCTURE
     1 RES1        1 GROUP             0 ****  ****    0  
@<TRIPOS>MOLECULE
ligand_91
    26    29     1     0     0
SMALL
USER_CHARGES
****
Generated from the CSD

@<TRIPOS>ATOM
     1 C1      -1.8779  -0.2306  -3.1217   C.3       1 RES1   0.0000
     2 C2      -3.1579  -0.7798  -2.3785   C.3       1 RES1   0.0000
     3 C3      -2.9898  -2.2049  -2.1083   C.1       1 RES1   0.0000
     4 C4      -2.8616  -3.3381  -1.8919   C.1       1 RES1   0.0000
     5 C5      -2.6836  -4.7162  -1.6078   C.2       1 RES1   0.0000
     6 C6      -3.6955  -5.6752  -1.9360   C.2       1 RES1   0.0000
     7 C7      -3.5169  -7.0585  -1.6304   C.2       1 RES1   0.0000
     8 C8      -2.3114  -7.4755  -0.9756   C.2       1 RES1   0.0000
     9 C9      -1.2627  -6.5035  -0.6298   C.2       1 RES1   0.0000
    10 O10     -0.1027  -6.9150   0.0255   O.3       1 RES1   0.0000
    11 C11      0.0961  -6.9577   1.4518   C.3       1 RES1   0.0000
    12 C12     -0.0735  -5.5431   2.0434   C.3       1 RES1   0.0000
    13 C13      0.1420  -5.6186   3.5762   C.3       1 RES1   0.0000
    14 C14     -0.9001  -6.5524   4.2063   C.3       1 RES1   0.0000
    15 C15     -0.7199  -7.9497   3.6094   C.3       1 RES1   0.0000
    16 C16      0.6859  -8.4795   3.9180   C.3       1 RES1   0.0000
    17 C17      1.7119  -7.5291   3.2891   C.3       1 RES1   0.0000
    18 C18      1.5658  -6.1215   3.8832   C.3       1 RES1   0.0000
    19 C19      1.5171  -7.4754   1.7589   C.3       1 RES1   0.0000
    20 C20     -0.9456  -7.9040   2.0838   C.3       1 RES1   0.0000
    21 C21     -1.4712  -5.1257  -0.9594   C.2       1 RES1   0.0000
    22 N22     -4.3975  -0.7943  -3.2124   N.am      1 RES1   1.0000
    23 O23     -4.6134  -1.7533  -3.9886   O.2       1 RES1   0.0000
    24 C24     -5.3479   0.2334  -3.1500   C.2       1 RES1   0.0000
    25 N25     -6.4549   0.1360  -3.9224   N.am      1 RES1   0.0000
    26 O26     -5.2253   1.2414  -2.4020   O.2       1 RES1   0.0000
@<TRIPOS>BOND
     1     2     1    1
     2     2     3    1
     3     3     4    3
     4     4     5    1
     5     5     6    2
     6     6     7    1
     7     7     8    2
     8     8     9    1
     9     9    10    1
    10    11    10    1
    11    11    12    1
    12    13    12    1
    13    13    14    1
    14    15    14    1
    15    15    16    1
    16    17    16    1
    17    17    18    1
    18    17    19    1
    19    15    20    1
    20     9    21    2
    21     2    22    1
    22    22    23    2
    23    22    24   am
    24    24    25   am
    25    24    26    2
    26    21     5    1
    27    19    11    1
    28    20    11    1
    29    18    13    1
@<TRIPOS>SUBSTRUCTURE
     1 RES1        1 GROUP             0 ****  ****    0  
@<TRIPOS>MOLECULE
ligand_92
    26    29     1     0     0
SMALL
USER_CHARGES
****
Generated from the CSD

@<TRIPOS>ATOM
     1 C1       7.1998  -6.5050  -3.6543   C.3       1 RES1   0.0000
     2 C2       6.0060  -7.5179  -3.8572   C.3       1 RES1   0.0000
     3 C3       4.7760  -6.9319  -3.3320   C.1       1 RES1   0.0000
     4 C4       3.8008  -6.4612  -2.9139   C.1       1 RES1   0.0000
     5 C5       2.6093  -5.9062  -2.3811   C.2       1 RES1   0.0000
     6 C6       2.1944  -4.5790  -2.7240   C.2       1 RES1   0.0000
     7 C7       1.0031  -4.0203  -2.1694   C.2       1 RES1   0.0000
     8 C8       0.2308  -4.8039  -1.2500   C.2       1 RES1   0.0000
     9 C9       0.6435  -6.1680  -0.8854   C.2       1 RES1   0.0000
    10 O10     -0.1027  -6.9150   0.0255   O.3       1 RES1   0.0000
    11 C11      0.0961  -6.9577   1.4518   C.3       1 RES1   0.0000
    12 C12     -0.0735  -5.5431   2.0434   C.3       1 RES1   0.0000
    13 C13      0.1420  -5.6186   3.5762   C.3       1 RES1   0.0000
    14 C14     -0.9001  -6.5524   4.2063   C.3       1 RES1   0.0000
    15 C15     -0.7199  -7.9497   3.6094   C.3       1 RES1   0.0000
    16 C16      0.6859  -8.4795   3.9180   C.3       1 RES1   0.0000
    17 C17      1.7119  -7.5291   3.2891   C.3       1 RES1   0.0000
    18 C18      1.5658  -6.1215   3.8832   C.3       1 RES1   0.0000
    19 C19      1.5171  -7.4754   1.7589   C.3       1 RES1   0.0000
    20 C20     -0.9456  -7.9040   2.0838   C.3       1 RES1   0.0000
    21 C21      1.8386  -6.7000  -1.4678   C.2       1 RES1   0.0000
    22 N22      6.1027  -8.7596  -3.0319   N.am      1 RES1   1.0000
    23 O23      5.7032  -8.7497  -1.8448   O.2       1 RES1   0.0000
    24 C24      6.6201  -9.9559  -3.5461   C.2       1 RES1   0.0000
    25 N25      6.6544 -11.0428  -2.7403   N.am      1 RES1   0.0000
    26 O26      7.0479 -10.0709  -4.7268   O.2       1 RES1   0.0000
@<TRIPOS>BOND
     1     2     1    1
     2     2     3    1
     3     3     4    3
     4     4     5    1
     5     5     6    2
     6     6     7    1
     7     7     8    2
     8     8     9    1
     9     9    10    1
    10    11    10    1
    11    11    12    1
    12    13    12    1
    13    13    14    1
    14    15    14    1
    15    15    16    1
    16    17    16    1
    17    17    18    1
    18    17    19    1
    19    15    20    1
    20     9    21    2
    21     2    22    1
    22    22    23    2
    23    22    24   am
    24    24    25   am
    25    24    26    2
    26    21     5    1
    27    19    11    1
    28    20    11    1
    29    18    13    1
@<TRIPOS>SUBSTRUCTURE
     1 RES1        1 GROUP             0 ****  ****    0  
@<TRIPOS>MOLECULE
ligand_93
    26    29     1     0     0
SMALL
USER_CHARGES
****
Generated from the CSD

@<TRIPOS>ATOM
     1 C1      -7.4830  -9.6248  -1.8690   C.3       1 RES1   0.0000
     2 C2      -6.1686  -9.8143  -2.7227   C.3       1 RES1   0.0000
     3 C3      -5.1931  -8.7950  -2.3469   C.1       1 RES1   0.0000
     4 C4      -4.4182  -7.9822  -2.0531   C.1       1 RES1   0.0000
     5 C5      -3.4509  -7.0104  -1.6904   C.2       1 RES1   0.0000
     6 C6      -3.6253  -5.6305  -2.0322   C.2       1 RES1   0.0000
     7 C7      -2.6385  -4.6607  -1.6795   C.2       1 RES1   0.0000
     8 C8      -1.4587  -5.0899  -0.9870   C.2       1 RES1   0.0000
     9 C9      -1.2627  -6.5035  -0.6298   C.2       1 RES1   0.0000
    10 O10     -0.1027  -6.9150   0.0255   O.3       1 RES1   0.0000
    11 C11      0.0961  -6.9577   1.4518   C.3       1 RES1   0.0000
    12 C12     -0.0735  -5.5431   2.0434   C.3       1 RES1   0.0000
    13 C13      0.1420  -5.6186   3.5762   C.3       1 RES1   0.0000
    14 C14     -0.9001  -6.5524   4.2063   C.3       1 RES1   0.0000
    15 C15     -0.7199  -7.9497   3.6094   C.3       1 RES1   0.0000
    16 C16      0.6859  -8.4795   3.9180   C.3       1 RES1   0.0000
    17 C17      1.7119  -7.5291   3.2891   C.3       1 RES1   0.0000
    18 C18      1.5658  -6.1215   3.8832   C.3       1 RES1   0.0000
    19 C19      1.5171  -7.4754   1.7589   C.3       1 RES1   0.0000
    20 C20     -0.9456  -7.9040   2.0838   C.3       1 RES1   0.0000
    21 C21     -2.2771  -7.4474  -0.9909   C.2       1 RES1   0.0000
    22 N22     -6.3318  -9.5262  -4.1796   N.am      1 RES1   1.0000
    23 O23     -7.4421  -9.1465  -4.6177   O.2       1 RES1   0.0000
    24 C24     -5.2715  -9.6551  -5.0865   C.2       1 RES1   0.0000
    25 N25     -5.4906  -9.3388  -6.3841   N.am      1 RES1   0.0000
    26 O26     -4.1200 -10.0440  -4.7501   O.2       1 RES1   0.0000
@<TRIPOS>BOND
     1     2     1    1
     2     2     3    1
     3     3     4    3
     4     4     5    1
     5     5     6    2
     6     6     7    1
     7     7     8    2
     8     8     9    1
     9     9    10    1
    10    11    10    1
    11    11    12    1
    12    13    12    1
    13    13    14    1
    14    15    14    1
    15    15    16    1
    16    17    16    1
    17    17    18    1
    18    17    19    1
    19    15    20    1
    20     9    21    2
    21     2    22    1
    22    22    23    2
    23    22    24   am
    24    24    25   am
    25    24    26    2
    26    21     5    1
    27    19    11    1
    28    20    11    1
    29    18    13    1
@<TRIPOS>SUBSTRUCTURE
     1 RES1        1 GROUP             0 ****  ****    0  
@<TRIPOS>MOLECULE
ligand_94
    26    29     1     0     0
SMALL
USER_CHARGES
****
Generated from the CSD

@<TRIPOS>ATOM
     1 C1      -7.4755  -9.1163  -3.2678   C.3       1 RES1   0.0000
     2 C2      -6.1686  -9.8143  -2.7227   C.3       1 RES1   0.0000
     3 C3      -5.1931  -8.7950  -2.3469   C.1       1 RES1   0.0000
     4 C4      -4.4182  -7.9822  -2.0531   C.1       1 RES1   0.0000
     5 C5      -3.4509  -7.0104  -1.6904   C.2       1 RES1   0.0000
     6 C6      -3.6253  -5.6305  -2.0322   C.2       1 RES1   0.0000
     7 C7      -2.6385  -4.6607  -1.6795   C.2       1 RES1   0.0000
     8 C8      -1.4587  -5.0899  -0.9870   C.2       1 RES1   0.0000
     9 C9      -1.2627  -6.5035  -0.6298   C.2       1 RES1   0.0000
    10 O10     -0.1027  -6.9150   0.0255   O.3       1 RES1   0.0000
    11 C11      0.0961  -6.9577   1.4518   C.3       1 RES1   0.0000
    12 C12     -0.0735  -5.5431   2.0434   C.3       1 RES1   0.0000
    13 C13      0.1420  -5.6186   3.5762   C.3       1 RES1   0.0000
    14 C14     -0.9001  -6.5524   4.2063   C.3       1 RES1   0.0000
    15 C15     -0.7199  -7.9497   3.6094   C.3       1 RES1   0.0000
    16 C16      0.6859  -8.4795   3.9180   C.3       1 RES1   0.0000
    17 C17      1.7119  -7.5291   3.2891   C.3       1 RES1   0.0000
    18 C18      1.5658  -6.1215   3.8832   C.3       1 RES1   0.0000
    19 C19      1.5171  -7.4754   1.7589   C.3       1 RES1   0.0000
    20 C20     -0.9456  -7.9040   2.0838   C.3       1 RES1   0.0000
    21 C21     -2.2771  -7.4474  -0.9909   C.2       1 RES1   0.0000
    22 N22     -5.3997 -10.5757  -3.7529   N.am      1 RES1   1.0000
    23 O23     -5.8023 -10.5976  -4.9388   O.2       1 RES1   0.0000
    24 C24     -4.2214 -11.2669  -3.4412   C.2       1 RES1   0.0000
    25 N25     -3.5626 -11.9012  -4.4388   N.am      1 RES1   0.0000
    26 O26     -3.7404 -11.3193  -2.2766   O.2       1 RES1   0.0000
@<TRIPOS>BOND
     1     2     1    1
     2     2     3    1
     3     3     4    3
     4     4     5    1
     5     5     6    2
     6     6     7    1
     7     7     8    2
     8     8     9    1
     9     9    10    1
    10    11    10    1
    11    11    12    1
    12    13    12    1
    13    13    14    1
    14    15    14    1
    15    15    16    1
    16    17    16    1
    17    17    18    1
    18    17    19    1
    19    15    20    1
    20     9    21    2
    21     2    22    1
    22    22    23    2
    23    22    24   am
    24    24    25   am
    25    24    26    2
    26    21     5    1
    27    19    11    1
    28    20    11    1
    29    18    13    1
@<TRIPOS>SUBSTRUCTURE
     1 RES1        1 GROUP             0 ****  ****    0  
@<TRIPOS>MOLECULE
ligand_95
    26    29     1     0     0
SMALL
USER_CHARGES
****
Generated from the CSD

@<TRIPOS>ATOM
     1 C1      -6.5127  -9.6731  -4.2570   C.3       1 RES1   0.0000
     2 C2      -6.1686  -9.8143  -2.7227   C.3       1 RES1   0.0000
     3 C3      -5.1931  -8.7950  -2.3469   C.1       1 RES1   0.0000
     4 C4      -4.4182  -7.9822  -2.0531   C.1       1 RES1   0.0000
     5 C5      -3.4509  -7.0104  -1.6904   C.2       1 RES1   0.0000
     6 C6      -3.6253  -5.6305  -2.0322   C.2       1 RES1   0.0000
     7 C7      -2.6385  -4.6607  -1.6795   C.2       1 RES1   0.0000
     8 C8      -1.4587  -5.0899  -0.9870   C.2       1 RES1   0.0000
     9 C9      -1.2627  -6.5035  -0.6298   C.2       1 RES1   0.0000
    10 O10     -0.1027  -6.9150   0.0255   O.3       1 RES1   0.0000
    11 C11      0.0961  -6.9577   1.4518   C.3       1 RES1   0.0000
    12 C12     -0.0735  -5.5431   2.0434   C.3       1 RES1   0.0000
    13 C13      0.1420  -5.6186   3.5762   C.3       1 RES1   0.0000
    14 C14     -0.9001  -6.5524   4.2063   C.3       1 RES1   0.0000
    15 C15     -0.7199  -7.9497   3.6094   C.3       1 RES1   0.0000
    16 C16      0.6859  -8.4795   3.9180   C.3       1 RES1   0.0000
    17 C17      1.7119  -7.5291   3.2891   C.3       1 RES1   0.0000
    18 C18      1.5658  -6.1215   3.8832   C.3       1 RES1   0.0000
    19 C19      1.5171  -7.4754   1.7589   C.3       1 RES1   0.0000
    20 C20     -0.9456  -7.9040   2.0838   C.3       1 RES1   0.0000
    21 C21     -2.2771  -7.4474  -0.9909   C.2       1 RES1   0.0000
    22 N22     -5.4255 -11.0612  -2.3687   N.am      1 RES1   1.0000
    23 O23     -5.1117 -11.8745  -3.2682   O.2       1 RES1   0.0000
    24 C24     -5.0503 -11.3547  -1.0510   C.2       1 RES1   0.0000
    25 N25     -4.3458 -12.4866  -0.8179   N.am      1 RES1   0.0000
    26 O26     -5.3303 -10.6103  -0.0724   O.2       1 RES1   0.0000
@<TRIPOS>BOND
     1     2     1    1
     2     2     3    1
     3     3     4    3
     4     4     5    1
     5     5     6    2
     6     6     7    1
     7     7     8    2
     8     8     9    1
     9     9    10    1
    10    11    10    1
    11    11    12    1
    12    13    12    1
    13    13    14    1
    14    15    14    1
    15    15    16    1
    16    17    16    1
    17    17    18    1
    18    17    19    1
    19    15    20    1
    20     9    21    2
    21     2    22    1
    22    22    23    2
    23    22    24   am
    24    24    25   am
    25    24    26    2
    26    21     5    1
    27    19    11    1
    28    20    11    1
    29    18    13    1
@<TRIPOS>SUBSTRUCTURE
     1 RES1        1 GROUP             0 ****  ****    0  
@<TRIPOS>MOLECULE
ligand_96
    26    29     1     0     0
SMALL
USER_CHARGES
****
Generated from the CSD

@<TRIPOS>ATOM
     1 C1      -5.5649 -11.2470  -2.4484   C.3       1 RES1   0.0000
     2 C2      -6.1686  -9.8143  -2.7227   C.3       1 RES1   0.0000
     3 C3      -5.1931  -8.7950  -2.3469   C.1       1 RES1   0.0000
     4 C4      -4.4182  -7.9822  -2.0531   C.1       1 RES1   0.0000
     5 C5      -3.4509  -7.0104  -1.6904   C.2       1 RES1   0.0000
     6 C6      -3.6253  -5.6305  -2.0322   C.2       1 RES1   0.0000
     7 C7      -2.6385  -4.6607  -1.6795   C.2       1 RES1   0.0000
     8 C8      -1.4587  -5.0899  -0.9870   C.2       1 RES1   0.0000
     9 C9      -1.2627  -6.5035  -0.6298   C.2       1 RES1   0.0000
    10 O10     -0.1027  -6.9150   0.0255   O.3       1 RES1   0.0000
    11 C11      0.0961  -6.9577   1.4518   C.3       1 RES1   0.0000
    12 C12     -0.0735  -5.5431   2.0434   C.3       1 RES1   0.0000
    13 C13      0.1420  -5.6186   3.5762   C.3       1 RES1   0.0000
    14 C14     -0.9001  -6.5524   4.2063   C.3       1 RES1   0.0000
    15 C15     -0.7199  -7.9497   3.6094   C.3       1 RES1   0.0000
    16 C16      0.6859  -8.4795   3.9180   C.3       1 RES1   0.0000
    17 C17      1.7119  -7.5291   3.2891   C.3       1 RES1   0.0000
    18 C18      1.5658  -6.1215   3.8832   C.3       1 RES1   0.0000
    19 C19      1.5171  -7.4754   1.7589   C.3       1 RES1   0.0000
    20 C20     -0.9456  -7.9040   2.0838   C.3       1 RES1   0.0000
    21 C21     -2.2771  -7.4474  -0.9909   C.2       1 RES1   0.0000
    22 N22     -7.3156  -9.4479  -1.8381   N.am      1 RES1   1.0000
    23 O23     -7.7008 -10.2491  -0.9557   O.2       1 RES1   0.0000
    24 C24     -7.9795  -8.2192  -1.9516   C.2       1 RES1   0.0000
    25 N25     -8.9850  -7.9471  -1.0875   N.am      1 RES1   0.0000
    26 O26     -7.6794  -7.3507  -2.8153   O.2       1 RES1   0.0000
@<TRIPOS>BOND
     1     2     1    1
     2     2     3    1
     3     3     4    3
     4     4     5    1
     5     5     6    2
     6     6     7    1
     7     7     8    2
     8     8     9    1
     9     9    10    1
    10    11    10    1
    11    11    12    1
    12    13    12    1
    13    13    14    1
    14    15    14    1
    15    15    16    1
    16    17    16    1
    17    17    18    1
    18    17    19    1
    19    15    20    1
    20     9    21    2
    21     2    22    1
    22    22    23    2
    23    22    24   am
    24    24    25   am
    25    24    26    2
    26    21     5    1
    27    19    11    1
    28    20    11    1
    29    18    13    1
@<TRIPOS>SUBSTRUCTURE
     1 RES1        1 GROUP             0 ****  ****    0  
@<TRIPOS>MOLECULE
ligand_97
    26    29     1     0     0
SMALL
USER_CHARGES
****
Generated from the CSD

@<TRIPOS>ATOM
     1 C1      -6.5277 -10.6902  -1.4592   C.3       1 RES1   0.0000
     2 C2      -6.1686  -9.8143  -2.7227   C.3       1 RES1   0.0000
     3 C3      -5.1931  -8.7950  -2.3469   C.1       1 RES1   0.0000
     4 C4      -4.4182  -7.9822  -2.0531   C.1       1 RES1   0.0000
     5 C5      -3.4509  -7.0104  -1.6904   C.2       1 RES1   0.0000
     6 C6      -3.6253  -5.6305  -2.0322   C.2       1 RES1   0.0000
     7 C7      -2.6385  -4.6607  -1.6795   C.2       1 RES1   0.0000
     8 C8      -1.4587  -5.0899  -0.9870   C.2       1 RES1   0.0000
     9 C9      -1.2627  -6.5035  -0.6298   C.2       1 RES1   0.0000
    10 O10     -0.1027  -6.9150   0.0255   O.3       1 RES1   0.0000
    11 C11      0.0961  -6.9577   1.4518   C.3       1 RES1   0.0000
    12 C12     -0.0735  -5.5431   2.0434   C.3       1 RES1   0.0000
    13 C13      0.1420  -5.6186   3.5762   C.3       1 RES1   0.0000
    14 C14     -0.9001  -6.5524   4.2063   C.3       1 RES1   0.0000
    15 C15     -0.7199  -7.9497   3.6094   C.3       1 RES1   0.0000
    16 C16      0.6859  -8.4795   3.9180   C.3       1 RES1   0.0000
    17 C17      1.7119  -7.5291   3.2891   C.3       1 RES1   0.0000
    18 C18      1.5658  -6.1215   3.8832   C.3       1 RES1   0.0000
    19 C19      1.5171  -7.4754   1.7589   C.3       1 RES1   0.0000
    20 C20     -0.9456  -7.9040   2.0838   C.3       1 RES1   0.0000
    21 C21     -2.2771  -7.4474  -0.9909   C.2       1 RES1   0.0000
    22 N22     -7.2898  -8.9623  -3.2222   N.am      1 RES1   1.0000
    23 O23     -8.3914  -8.9722  -2.6262   O.2       1 RES1   0.0000
    24 C24     -7.1506  -8.1313  -4.3417   C.2       1 RES1   0.0000
    25 N25     -8.2018  -7.3617  -4.7084   N.am      1 RES1   0.0000
    26 O26     -6.0895  -8.0597  -5.0195   O.2       1 RES1   0.0000
@<TRIPOS>BOND
     1     2     1    1
     2     2     3    1
     3     3     4    3
     4     4     5    1
     5     5     6    2
     6     6     7    1
     7     7     8    2
     8     8     9    1
     9     9    10    1
    10    11    10    1
    11    11    12    1
    12    13    12    1
    13    13    14    1
    14    15    14    1
    15    15    16    1
    16    17    16    1
    17    17    18    1
    18    17    19    1
    19    15    20    1
    20     9    21    2
    21     2    22    1
    22    22    23    2
    23    22    24   am
    24    24    25   am
    25    24    26    2
    26    21     5    1
    27    19    11    1
    28    20    11    1
    29    18    13    1
@<TRIPOS>SUBSTRUCTURE
     1 RES1        1 GROUP             0 ****  ****    0  
@<TRIPOS>MOLECULE
ligand_98
    26    29     1     0     0
SMALL
USER_CHARGES
****
Generated from the CSD

@<TRIPOS>ATOM
     1 C1      -3.0884  -0.5276  -3.9354   C.3       1 RES1   0.0000
     2 C2      -3.1579  -0.7798  -2.3785   C.3       1 RES1   0.0000
     3 C3      -2.9898  -2.2049  -2.1083   C.1       1 RES1   0.0000
     4 C4      -2.8616  -3.3381  -1.8919   C.1       1 RES1   0.0000
     5 C5      -2.6836  -4.7162  -1.6078   C.2       1 RES1   0.0000
     6 C6      -3.6955  -5.6752  -1.9360   C.2       1 RES1   0.0000
     7 C7      -3.5169  -7.0585  -1.6304   C.2       1 RES1   0.0000
     8 C8      -2.3114  -7.4755  -0.9756   C.2       1 RES1   0.0000
     9 C9      -1.2627  -6.5035  -0.6298   C.2       1 RES1   0.0000
    10 O10     -0.1027  -6.9150   0.0255   O.3       1 RES1   0.0000
    11 C11      0.0961  -6.9577   1.4518   C.3       1 RES1   0.0000
    12 C12     -0.0735  -5.5431   2.0434   C.3       1 RES1   0.0000
    13 C13      0.1420  -5.6186   3.5762   C.3       1 RES1   0.0000
    14 C14     -0.9001  -6.5524   4.2063   C.3       1 RES1   0.0000
    15 C15     -0.7199  -7.9497   3.6094   C.3       1 RES1   0.0000
    16 C16      0.6859  -8.4795   3.9180   C.3       1 RES1   0.0000
    17 C17      1.7119  -7.5291   3.2891   C.3       1 RES1   0.0000
    18 C18      1.5658  -6.1215   3.8832   C.3       1 RES1   0.0000
    19 C19      1.5171  -7.4754   1.7589   C.3       1 RES1   0.0000
    20 C20     -0.9456  -7.9040   2.0838   C.3       1 RES1   0.0000
    21 C21     -1.4712  -5.1257  -0.9594   C.2       1 RES1   0.0000
    22 N22     -4.5011  -0.5335  -1.7724   N.am      1 RES1   1.0000
    23 O23     -5.4567  -0.1803  -2.5012   O.2       1 RES1   0.0000
    24 C24     -4.7396  -0.6961  -0.4013   C.2       1 RES1   0.0000
    25 N25     -5.9936  -0.4899   0.0643   N.am      1 RES1   0.0000
    26 O26     -3.8432  -1.0338   0.4191   O.2       1 RES1   0.0000
@<TRIPOS>BOND
     1     2     1    1
     2     2     3    1
     3     3     4    3
     4     4     5    1
     5     5     6    2
     6     6     7    1
     7     7     8    2
     8     8     9    1
     9     9    10    1
    10    11    10    1
    11    11    12    1
    12    13    12    1
    13    13    14    1
    14    15    14    1
    15    15    16    1
    16    17    16    1
    17    17    18    1
    18    17    19    1
    19    15    20    1
    20     9    21    2
    21     2    22    1
    22    22    23    2
    23    22    24   am
    24    24    25   am
    25    24    26    2
    26    21     5    1
    27    19    11    1
    28    20    11    1
    29    18    13    1
@<TRIPOS>SUBSTRUCTURE
     1 RES1        1 GROUP             0 ****  ****    0  
@<TRIPOS>MOLECULE
ligand_99
    26    29     1     0     0
SMALL
USER_CHARGES
****
Generated from the CSD

@<TRIPOS>ATOM
     1 C1      -4.4289  -0.5633  -3.2894   C.3       1 RES1   0.0000
     2 C2      -3.1579  -0.7798  -2.3785   C.3       1 RES1   0.0000
     3 C3      -2.9898  -2.2049  -2.1083   C.1       1 RES1   0.0000
     4 C4      -2.8616  -3.3381  -1.8919   C.1       1 RES1   0.0000
     5 C5      -2.6836  -4.7162  -1.6078   C.2       1 RES1   0.0000
     6 C6      -3.6955  -5.6752  -1.9360   C.2       1 RES1   0.0000
     7 C7      -3.5169  -7.0585  -1.6304   C.2       1 RES1   0.0000
     8 C8      -2.3114  -7.4755  -0.9756   C.2       1 RES1   0.0000
     9 C9      -1.2627  -6.5035  -0.6298   C.2       1 RES1   0.0000
    10 O10     -0.1027  -6.9150   0.0255   O.3       1 RES1   0.0000
    11 C11      0.0961  -6.9577   1.4518   C.3       1 RES1   0.0000
    12 C12     -0.0735  -5.5431   2.0434   C.3       1 RES1   0.0000
    13 C13      0.1420  -5.6186   3.5762   C.3       1 RES1   0.0000
    14 C14     -0.9001  -6.5524   4.2063   C.3       1 RES1   0.0000
    15 C15     -0.7199  -7.9497   3.6094   C.3       1 RES1   0.0000
    16 C16      0.6859  -8.4795   3.9180   C.3       1 RES1   0.0000
    17 C17      1.7119  -7.5291   3.2891   C.3       1 RES1   0.0000
    18 C18      1.5658  -6.1215   3.8832   C.3       1 RES1   0.0000
    19 C19      1.5171  -7.4754   1.7589   C.3       1 RES1   0.0000
    20 C20     -0.9456  -7.9040   2.0838   C.3       1 RES1   0.0000
    21 C21     -1.4712  -5.1257  -0.9594   C.2       1 RES1   0.0000
    22 N22     -3.2940  -0.2430  -0.9908   N.am      1 RES1   1.0000
    23 O23     -4.3651   0.3018  -0.6373   O.2       1 RES1   0.0000
    24 C24     -2.2583  -0.3373  -0.0519   C.2       1 RES1   0.0000
    25 N25     -2.4737   0.1398   1.1962   N.am      1 RES1   0.0000
    26 O26     -1.1372  -0.8532  -0.3116   O.2       1 RES1   0.0000
@<TRIPOS>BOND
     1     2     1    1
     2     2     3    1
     3     3     4    3
     4     4     5    1
     5     5     6    2
     6     6     7    1
     7     7     8    2
     8     8     9    1
     9     9    10    1
    10    11    10    1
    11    11    12    1
    12    13    12    1
    13    13    14    1
    14    15    14    1
    15    15    16    1
    16    17    16    1
    17    17    18    1
    18    17    19    1
    19    15    20    1
    20     9    21    2
    21     2    22    1
    22    22    23    2
    23    22    24   am
    24    24    25   am
    25    24    26    2
    26    21     5    1
    27    19    11    1
    28    20    11    1
    29    18    13    1
@<TRIPOS>SUBSTRUCTURE
     1 RES1        1 GROUP             0 ****  ****    0  
