@<TRIPOS>MOLECULE
native
    29    32     1     0     0
SMALL
NO_CHARGES
****
Generated from the CSD

@<TRIPOS>ATOM
     1 C1       0.3690  -7.6770  -6.5640   C.3       1 RES1   0.0000
     2 C2       1.6770  -7.7360  -5.7750   C.2       1 RES1   0.0000
     3 O3       2.6020  -6.9730  -6.0520   O.2       1 RES1   0.0000
     4 N4       1.6930  -8.6600  -4.8080   N.am      1 RES1   0.0000
     5 C5       2.7050  -8.9160  -3.9660   C.2       1 RES1   0.0000
     6 C6       3.9640  -8.3180  -4.0850   C.2       1 RES1   0.0000
     7 C7       4.9780  -8.6210  -3.1770   C.2       1 RES1   0.0000
     8 C8       4.7450  -9.5300  -2.1420   C.2       1 RES1   0.0000
     9 C9       5.7420  -9.8450  -1.2160   C.2       1 RES1   0.0000
    10 C10      6.9870  -9.2220  -1.2470   C.2       1 RES1   0.0000
    11 C11      7.9290  -9.5790  -0.2880   C.2       1 RES1   0.0000
    12 N12      7.6340 -10.4910   0.6270   N.2       1 RES1   0.0000
    13 C13      6.4270 -11.0880   0.6560   C.2       1 RES1   0.0000
    14 N14      6.1890 -12.0030   1.6080   N.2       1 RES1   0.0000
    15 C15      5.0140 -12.5920   1.8910   C.2       1 RES1   0.0000
    16 C16      5.0250 -13.6820   2.7600   C.2       1 RES1   0.0000
    17 C17      3.8440 -14.3390   3.0970   C.2       1 RES1   0.0000
    18 C18      2.6230 -13.9130   2.5700   C.2       1 RES1   0.0000
    19 N19      1.4280 -14.5830   2.9250   N.pl3     1 RES1   0.0000
    20 C20      1.3720 -15.3760   4.1890   C.3       1 RES1   0.0000
    21 C21      0.5050 -16.6310   4.0280   C.3       1 RES1   0.0000
    22 O22     -0.7680 -16.2520   3.4610   O.3       1 RES1   0.0000
    23 C23     -0.6210 -15.7790   2.1030   C.3       1 RES1   0.0000
    24 C24      0.2190 -14.4920   2.0540   C.3       1 RES1   0.0000
    25 C25      2.6060 -12.8170   1.7010   C.2       1 RES1   0.0000
    26 C26      3.7910 -12.1610   1.3670   C.2       1 RES1   0.0000
    27 N27      5.4970 -10.7610  -0.2620   N.2       1 RES1   0.0000
    28 C28      3.4870 -10.1240  -2.0230   C.2       1 RES1   0.0000
    29 C29      2.4740  -9.8200  -2.9300   C.2       1 RES1   0.0000
@<TRIPOS>BOND
     1     1     2    1
     2     2     3    2
     3     2     4   am
     4     4     5    1
     5     5     6    2
     6     6     7    1
     7     7     8    2
     8     8     9    1
     9     9    10    2
    10    10    11    1
    11    11    12    2
    12    12    13    1
    13    13    14    1
    14    14    15    1
    15    15    16    2
    16    16    17    1
    17    17    18    2
    18    18    19    1
    19    19    20    1
    20    20    21    1
    21    21    22    1
    22    22    23    1
    23    23    24    1
    24    18    25    1
    25    25    26    2
    26    13    27    2
    27     8    28    1
    28    28    29    2
    29    29     5    1
    30    27     9    1
    31    26    15    1
    32    24    19    1
@<TRIPOS>SUBSTRUCTURE
     1 RES1        1 GROUP             0 ****  ****    0  
@<TRIPOS>MOLECULE
ligand_0
    29    32     1     0     0
SMALL
NO_CHARGES
****
Generated from the CSD

@<TRIPOS>ATOM
     1 C1       1.9021  -6.8309  19.6081   C.3       1 RES1   0.0000
     2 C2       1.2931  -7.0235  18.2192   C.2       1 RES1   0.0000
     3 O3       0.5469  -7.9766  17.9972   O.2       1 RES1   0.0000
     4 N4       1.6478  -6.0890  17.3304   N.am      1 RES1   0.0000
     5 C5       1.2605  -6.0196  16.0483   C.2       1 RES1   0.0000
     6 C6       0.4031  -6.9557  15.4605   C.2       1 RES1   0.0000
     7 C7       0.0321  -6.8303  14.1222   C.2       1 RES1   0.0000
     8 C8       0.5190  -5.7689  13.3552   C.2       1 RES1   0.0000
     9 C9       0.1570  -5.6176  12.0148   C.2       1 RES1   0.0000
    10 C10     -0.7168  -6.5054  11.3923   C.2       1 RES1   0.0000
    11 C11     -1.0400  -6.2881  10.0571   C.2       1 RES1   0.0000
    12 N12     -0.5217  -5.2566   9.4066   N.2       1 RES1   0.0000
    13 C13      0.3197  -4.3978  10.0137   C.2       1 RES1   0.0000
    14 N14      0.8105  -3.3722   9.3013   N.2       1 RES1   0.0000
    15 C15      1.6268  -2.3978   9.7391   C.2       1 RES1   0.0000
    16 C16      2.5529  -1.8715   8.8398   C.2       1 RES1   0.0000
    17 C17      3.4287  -0.8598   9.2262   C.2       1 RES1   0.0000
    18 C18      3.3916  -0.3511  10.5262   C.2       1 RES1   0.0000
    19 N19      4.2809   0.6822  10.9061   N.pl3     1 RES1   0.0000
    20 C20      4.2458   1.3271  12.2262   C.3       1 RES1   0.0000
    21 C21      4.6382   2.7815  12.0783   C.3       1 RES1   0.0000
    22 O22      5.9318   2.9010  11.4818   O.3       1 RES1   0.0000
    23 C23      5.9393   2.2975  10.1942   C.3       1 RES1   0.0000
    24 C24      5.5852   0.8192  10.2598   C.3       1 RES1   0.0000
    25 C25      2.4613  -0.8727  11.4312   C.2       1 RES1   0.0000
    26 C26      1.5850  -1.8852  11.0397   C.2       1 RES1   0.0000
    27 N27      0.6497  -4.5860  11.3061   N.2       1 RES1   0.0000
    28 C28      1.3725  -4.8339  13.9441   C.2       1 RES1   0.0000
    29 C29      1.7420  -4.9593  15.2817   C.2       1 RES1   0.0000
@<TRIPOS>BOND
     1     1     2    1
     2     2     3    2
     3     2     4   am
     4     4     5    1
     5     5     6    2
     6     6     7    1
     7     7     8    2
     8     8     9    1
     9     9    10    2
    10    10    11    1
    11    11    12    2
    12    12    13    1
    13    13    14    1
    14    14    15    1
    15    15    16    2
    16    16    17    1
    17    17    18    2
    18    18    19    1
    19    19    20    1
    20    20    21    1
    21    21    22    1
    22    22    23    1
    23    23    24    1
    24    18    25    1
    25    25    26    2
    26    13    27    2
    27     8    28    1
    28    28    29    2
    29    29     5    1
    30    27     9    1
    31    26    15    1
    32    24    19    1
@<TRIPOS>SUBSTRUCTURE
     1 RES1        1 GROUP             0 ****  ****    0  
@<TRIPOS>MOLECULE
ligand_1
    29    32     1     0     0
SMALL
NO_CHARGES
****
Generated from the CSD

@<TRIPOS>ATOM
     1 C1       2.4890  -6.1071  19.5313   C.3       1 RES1   0.0000
     2 C2       2.3328  -5.5939  18.0998   C.2       1 RES1   0.0000
     3 O3       2.9126  -4.5687  17.7430   O.2       1 RES1   0.0000
     4 N4       1.5388  -6.3471  17.3307   N.am      1 RES1   0.0000
     5 C5       1.2316  -6.1260  16.0441   C.2       1 RES1   0.0000
     6 C6       1.7243  -5.0349  15.3205   C.2       1 RES1   0.0000
     7 C7       1.3723  -4.8581  13.9829   C.2       1 RES1   0.0000
     8 C8       0.5190  -5.7689  13.3552   C.2       1 RES1   0.0000
     9 C9       0.1570  -5.6176  12.0148   C.2       1 RES1   0.0000
    10 C10     -0.7168  -6.5054  11.3923   C.2       1 RES1   0.0000
    11 C11     -1.0400  -6.2881  10.0571   C.2       1 RES1   0.0000
    12 N12     -0.5217  -5.2566   9.4066   N.2       1 RES1   0.0000
    13 C13      0.3197  -4.3978  10.0137   C.2       1 RES1   0.0000
    14 N14      0.8105  -3.3722   9.3013   N.2       1 RES1   0.0000
    15 C15      1.6267  -2.3977   9.7392   C.2       1 RES1   0.0000
    16 C16      2.5530  -1.8716   8.8400   C.2       1 RES1   0.0000
    17 C17      3.4287  -0.8597   9.2265   C.2       1 RES1   0.0000
    18 C18      3.3912  -0.3508  10.5263   C.2       1 RES1   0.0000
    19 N19      4.2804   0.6826  10.9063   N.pl3     1 RES1   0.0000
    20 C20      4.2448   1.3278  12.2262   C.3       1 RES1   0.0000
    21 C21      4.6373   2.7822  12.0780   C.3       1 RES1   0.0000
    22 O22      5.9311   2.9015  11.4820   O.3       1 RES1   0.0000
    23 C23      5.9391   2.2976  10.1946   C.3       1 RES1   0.0000
    24 C24      5.5849   0.8194  10.2604   C.3       1 RES1   0.0000
    25 C25      2.4606  -0.8723  11.4312   C.2       1 RES1   0.0000
    26 C26      1.5845  -1.8849  11.0397   C.2       1 RES1   0.0000
    27 N27      0.6497  -4.5860  11.3061   N.2       1 RES1   0.0000
    28 C28      0.0302  -6.8589  14.0780   C.2       1 RES1   0.0000
    29 C29      0.3831  -7.0355  15.4143   C.2       1 RES1   0.0000
@<TRIPOS>BOND
     1     1     2    1
     2     2     3    2
     3     2     4   am
     4     4     5    1
     5     5     6    2
     6     6     7    1
     7     7     8    2
     8     8     9    1
     9     9    10    2
    10    10    11    1
    11    11    12    2
    12    12    13    1
    13    13    14    1
    14    14    15    1
    15    15    16    2
    16    16    17    1
    17    17    18    2
    18    18    19    1
    19    19    20    1
    20    20    21    1
    21    21    22    1
    22    22    23    1
    23    23    24    1
    24    18    25    1
    25    25    26    2
    26    13    27    2
    27     8    28    1
    28    28    29    2
    29    29     5    1
    30    27     9    1
    31    26    15    1
    32    24    19    1
@<TRIPOS>SUBSTRUCTURE
     1 RES1        1 GROUP             0 ****  ****    0  
@<TRIPOS>MOLECULE
ligand_2
    29    32     1     0     0
SMALL
NO_CHARGES
****
Generated from the CSD

@<TRIPOS>ATOM
     1 C1      -5.9271 -11.7109   7.1901   C.3       1 RES1   0.0000
     2 C2      -5.0492 -10.9565   8.1886   C.2       1 RES1   0.0000
     3 O3      -4.9495 -11.3541   9.3490   O.2       1 RES1   0.0000
     4 N4      -4.4411  -9.8792   7.6798   N.am      1 RES1   0.0000
     5 C5      -3.6205  -9.0434   8.3331   C.2       1 RES1   0.0000
     6 C6      -3.2878  -9.2033   9.6824   C.2       1 RES1   0.0000
     7 C7      -2.4261  -8.3033  10.3084   C.2       1 RES1   0.0000
     8 C8      -1.8911  -7.2297   9.5921   C.2       1 RES1   0.0000
     9 C9      -1.0206  -6.3186  10.1944   C.2       1 RES1   0.0000
    10 C10     -0.6354  -6.4515  11.5260   C.2       1 RES1   0.0000
    11 C11      0.2416  -5.5118  12.0575   C.2       1 RES1   0.0000
    12 N12      0.6915  -4.5201  11.3025   N.2       1 RES1   0.0000
    13 C13      0.3197  -4.3978  10.0137   C.2       1 RES1   0.0000
    14 N14      0.8105  -3.3722   9.3013   N.2       1 RES1   0.0000
    15 C15      1.6132  -2.3884   9.7433   C.2       1 RES1   0.0000
    16 C16      2.5660  -1.8803   8.8616   C.2       1 RES1   0.0000
    17 C17      3.4297  -0.8602   9.2532   C.2       1 RES1   0.0000
    18 C18      3.3534  -0.3247  10.5406   C.2       1 RES1   0.0000
    19 N19      4.2308   0.7169  10.9257   N.pl3     1 RES1   0.0000
    20 C20      4.1557   1.3890  12.2304   C.3       1 RES1   0.0000
    21 C21      4.5524   2.8403  12.0641   C.3       1 RES1   0.0000
    22 O22      5.8636   2.9482  11.5048   O.3       1 RES1   0.0000
    23 C23      5.9101   2.3179  10.2309   C.3       1 RES1   0.0000
    24 C24      5.5541   0.8411  10.3165   C.3       1 RES1   0.0000
    25 C25      2.3961  -0.8280  11.4277   C.2       1 RES1   0.0000
    26 C26      1.5321  -1.8490  11.0311   C.2       1 RES1   0.0000
    27 N27     -0.5294  -5.2940   9.4747   N.2       1 RES1   0.0000
    28 C28     -2.2221  -7.0730   8.2447   C.2       1 RES1   0.0000
    29 C29     -3.0823  -7.9733   7.6197   C.2       1 RES1   0.0000
@<TRIPOS>BOND
     1     1     2    1
     2     2     3    2
     3     2     4   am
     4     4     5    1
     5     5     6    2
     6     6     7    1
     7     7     8    2
     8     8     9    1
     9     9    10    2
    10    10    11    1
    11    11    12    2
    12    12    13    1
    13    13    14    1
    14    14    15    1
    15    15    16    2
    16    16    17    1
    17    17    18    2
    18    18    19    1
    19    19    20    1
    20    20    21    1
    21    21    22    1
    22    22    23    1
    23    23    24    1
    24    18    25    1
    25    25    26    2
    26    13    27    2
    27     8    28    1
    28    28    29    2
    29    29     5    1
    30    27     9    1
    31    26    15    1
    32    24    19    1
@<TRIPOS>SUBSTRUCTURE
     1 RES1        1 GROUP             0 ****  ****    0  
@<TRIPOS>MOLECULE
ligand_3
    29    32     1     0     0
SMALL
NO_CHARGES
****
Generated from the CSD

@<TRIPOS>ATOM
     1 C1      -5.9222 -11.1985   6.4080   C.3       1 RES1   0.0000
     2 C2      -4.9648 -10.0374   6.6763   C.2       1 RES1   0.0000
     3 O3      -4.6775  -9.2508   5.7745   O.2       1 RES1   0.0000
     4 N4      -4.5057  -9.9839   7.9315   N.am      1 RES1   0.0000
     5 C5      -3.6573  -9.0741   8.4325   C.2       1 RES1   0.0000
     6 C6      -3.1269  -8.0274   7.6710   C.2       1 RES1   0.0000
     7 C7      -2.2506  -7.1086   8.2475   C.2       1 RES1   0.0000
     8 C8      -1.8911  -7.2297   9.5921   C.2       1 RES1   0.0000
     9 C9      -1.0206  -6.3186  10.1944   C.2       1 RES1   0.0000
    10 C10     -0.6354  -6.4515  11.5260   C.2       1 RES1   0.0000
    11 C11      0.2416  -5.5118  12.0575   C.2       1 RES1   0.0000
    12 N12      0.6915  -4.5201  11.3025   N.2       1 RES1   0.0000
    13 C13      0.3197  -4.3978  10.0137   C.2       1 RES1   0.0000
    14 N14      0.8105  -3.3722   9.3013   N.2       1 RES1   0.0000
    15 C15      1.6131  -2.3884   9.7433   C.2       1 RES1   0.0000
    16 C16      2.5660  -1.8802   8.8617   C.2       1 RES1   0.0000
    17 C17      3.4296  -0.8601   9.2533   C.2       1 RES1   0.0000
    18 C18      3.3531  -0.3245  10.5407   C.2       1 RES1   0.0000
    19 N19      4.2304   0.7171  10.9258   N.pl3     1 RES1   0.0000
    20 C20      4.1552   1.3893  12.2305   C.3       1 RES1   0.0000
    21 C21      4.5519   2.8406  12.0642   C.3       1 RES1   0.0000
    22 O22      5.8631   2.9485  11.5049   O.3       1 RES1   0.0000
    23 C23      5.9097   2.3183  10.2311   C.3       1 RES1   0.0000
    24 C24      5.5538   0.8414  10.3167   C.3       1 RES1   0.0000
    25 C25      2.3958  -0.8279  11.4278   C.2       1 RES1   0.0000
    26 C26      1.5319  -1.8489  11.0311   C.2       1 RES1   0.0000
    27 N27     -0.5294  -5.2940   9.4747   N.2       1 RES1   0.0000
    28 C28     -2.4235  -8.2735  10.3516   C.2       1 RES1   0.0000
    29 C29     -3.2998  -9.1905   9.7751   C.2       1 RES1   0.0000
@<TRIPOS>BOND
     1     1     2    1
     2     2     3    2
     3     2     4   am
     4     4     5    1
     5     5     6    2
     6     6     7    1
     7     7     8    2
     8     8     9    1
     9     9    10    2
    10    10    11    1
    11    11    12    2
    12    12    13    1
    13    13    14    1
    14    14    15    1
    15    15    16    2
    16    16    17    1
    17    17    18    2
    18    18    19    1
    19    19    20    1
    20    20    21    1
    21    21    22    1
    22    22    23    1
    23    23    24    1
    24    18    25    1
    25    25    26    2
    26    13    27    2
    27     8    28    1
    28    28    29    2
    29    29     5    1
    30    27     9    1
    31    26    15    1
    32    24    19    1
@<TRIPOS>SUBSTRUCTURE
     1 RES1        1 GROUP             0 ****  ****    0  
@<TRIPOS>MOLECULE
ligand_4
    29    32     1     0     0
SMALL
NO_CHARGES
****
Generated from the CSD

@<TRIPOS>ATOM
     1 C1      -5.7336   1.2315  16.7421   C.3       1 RES1   0.0000
     2 C2      -5.5104   0.1528  15.6821   C.2       1 RES1   0.0000
     3 O3      -6.3983  -0.6614  15.4310   O.2       1 RES1   0.0000
     4 N4      -4.3081   0.1985  15.0978   N.am      1 RES1   0.0000
     5 C5      -3.8539  -0.6253  14.1419   C.2       1 RES1   0.0000
     6 C6      -4.6142  -1.6766  13.6188   C.2       1 RES1   0.0000
     7 C7      -4.0896  -2.4996  12.6228   C.2       1 RES1   0.0000
     8 C8      -2.7959  -2.2828  12.1421   C.2       1 RES1   0.0000
     9 C9      -2.2504  -3.0888  11.1404   C.2       1 RES1   0.0000
    10 C10     -2.9775  -4.1286  10.5666   C.2       1 RES1   0.0000
    11 C11     -2.3737  -4.8849   9.5676   C.2       1 RES1   0.0000
    12 N12     -1.1362  -4.6102   9.1814   N.2       1 RES1   0.0000
    13 C13     -0.4381  -3.6007   9.7361   C.2       1 RES1   0.0000
    14 N14      0.8105  -3.3722   9.3013   N.2       1 RES1   0.0000
    15 C15      1.6636  -2.4317   9.7430   C.2       1 RES1   0.0000
    16 C16      2.4880  -1.8094   8.8068   C.2       1 RES1   0.0000
    17 C17      3.3947  -0.8260   9.1950   C.2       1 RES1   0.0000
    18 C18      3.4915  -0.4428  10.5344   C.2       1 RES1   0.0000
    19 N19      4.4109   0.5629  10.9169   N.pl3     1 RES1   0.0000
    20 C20      4.5110   1.0797  12.2889   C.3       1 RES1   0.0000
    21 C21      4.8791   2.5472  12.2404   C.3       1 RES1   0.0000
    22 O22      6.1027   2.7413  11.5271   O.3       1 RES1   0.0000
    23 C23      5.9782   2.2621  10.1941   C.3       1 RES1   0.0000
    24 C24      5.6398   0.7792  10.1548   C.3       1 RES1   0.0000
    25 C25      2.6635  -1.0611  11.4771   C.2       1 RES1   0.0000
    26 C26      1.7558  -2.0448  11.0839   C.2       1 RES1   0.0000
    27 N27     -0.9993  -2.8535  10.7063   N.2       1 RES1   0.0000
    28 C28     -2.0393  -1.2313  12.6634   C.2       1 RES1   0.0000
    29 C29     -2.5645  -0.4088  13.6578   C.2       1 RES1   0.0000
@<TRIPOS>BOND
     1     1     2    1
     2     2     3    2
     3     2     4   am
     4     4     5    1
     5     5     6    2
     6     6     7    1
     7     7     8    2
     8     8     9    1
     9     9    10    2
    10    10    11    1
    11    11    12    2
    12    12    13    1
    13    13    14    1
    14    14    15    1
    15    15    16    2
    16    16    17    1
    17    17    18    2
    18    18    19    1
    19    19    20    1
    20    20    21    1
    21    21    22    1
    22    22    23    1
    23    23    24    1
    24    18    25    1
    25    25    26    2
    26    13    27    2
    27     8    28    1
    28    28    29    2
    29    29     5    1
    30    27     9    1
    31    26    15    1
    32    24    19    1
@<TRIPOS>SUBSTRUCTURE
     1 RES1        1 GROUP             0 ****  ****    0  
@<TRIPOS>MOLECULE
ligand_5
    29    32     1     0     0
SMALL
NO_CHARGES
****
Generated from the CSD

@<TRIPOS>ATOM
     1 C1      -4.9171   1.6792  16.8264   C.3       1 RES1   0.0000
     2 C2      -3.9936   1.0637  15.7751   C.2       1 RES1   0.0000
     3 O3      -2.8731   1.5350  15.5833   O.2       1 RES1   0.0000
     4 N4      -4.5188   0.0166  15.1294   N.am      1 RES1   0.0000
     5 C5      -3.9278  -0.7039  14.1649   C.2       1 RES1   0.0000
     6 C6      -2.6370  -0.4359  13.6972   C.2       1 RES1   0.0000
     7 C7      -2.0727  -1.2220  12.6932   C.2       1 RES1   0.0000
     8 C8      -2.7959  -2.2828  12.1421   C.2       1 RES1   0.0000
     9 C9      -2.2504  -3.0888  11.1404   C.2       1 RES1   0.0000
    10 C10     -2.9775  -4.1286  10.5666   C.2       1 RES1   0.0000
    11 C11     -2.3737  -4.8849   9.5676   C.2       1 RES1   0.0000
    12 N12     -1.1362  -4.6102   9.1814   N.2       1 RES1   0.0000
    13 C13     -0.4381  -3.6007   9.7361   C.2       1 RES1   0.0000
    14 N14      0.8105  -3.3722   9.3013   N.2       1 RES1   0.0000
    15 C15      1.6636  -2.4317   9.7430   C.2       1 RES1   0.0000
    16 C16      2.4880  -1.8094   8.8068   C.2       1 RES1   0.0000
    17 C17      3.3947  -0.8260   9.1950   C.2       1 RES1   0.0000
    18 C18      3.4915  -0.4428  10.5343   C.2       1 RES1   0.0000
    19 N19      4.4108   0.5629  10.9168   N.pl3     1 RES1   0.0000
    20 C20      4.5109   1.0798  12.2888   C.3       1 RES1   0.0000
    21 C21      4.8790   2.5473  12.2403   C.3       1 RES1   0.0000
    22 O22      6.1026   2.7413  11.5270   O.3       1 RES1   0.0000
    23 C23      5.9782   2.2621  10.1940   C.3       1 RES1   0.0000
    24 C24      5.6398   0.7792  10.1548   C.3       1 RES1   0.0000
    25 C25      2.6634  -1.0610  11.4771   C.2       1 RES1   0.0000
    26 C26      1.7558  -2.0447  11.0839   C.2       1 RES1   0.0000
    27 N27     -0.9993  -2.8535  10.7063   N.2       1 RES1   0.0000
    28 C28     -4.0832  -2.5506  12.6119   C.2       1 RES1   0.0000
    29 C29     -4.6460  -1.7654  13.6159   C.2       1 RES1   0.0000
@<TRIPOS>BOND
     1     1     2    1
     2     2     3    2
     3     2     4   am
     4     4     5    1
     5     5     6    2
     6     6     7    1
     7     7     8    2
     8     8     9    1
     9     9    10    2
    10    10    11    1
    11    11    12    2
    12    12    13    1
    13    13    14    1
    14    14    15    1
    15    15    16    2
    16    16    17    1
    17    17    18    2
    18    18    19    1
    19    19    20    1
    20    20    21    1
    21    21    22    1
    22    22    23    1
    23    23    24    1
    24    18    25    1
    25    25    26    2
    26    13    27    2
    27     8    28    1
    28    28    29    2
    29    29     5    1
    30    27     9    1
    31    26    15    1
    32    24    19    1
@<TRIPOS>SUBSTRUCTURE
     1 RES1        1 GROUP             0 ****  ****    0  
@<TRIPOS>MOLECULE
ligand_6
    29    32     1     0     0
SMALL
NO_CHARGES
****
Generated from the CSD

@<TRIPOS>ATOM
     1 C1      -7.0081 -10.6047   6.8630   C.3       1 RES1   0.0000
     2 C2      -6.5473  -9.4009   7.6848   C.2       1 RES1   0.0000
     3 O3      -7.3037  -8.8877   8.5088   O.2       1 RES1   0.0000
     4 N4      -5.3004  -8.9982   7.4159   N.am      1 RES1   0.0000
     5 C5      -4.6526  -7.9727   7.9880   C.2       1 RES1   0.0000
     6 C6      -5.2266  -7.1658   8.9760   C.2       1 RES1   0.0000
     7 C7      -4.5027  -6.1143   9.5372   C.2       1 RES1   0.0000
     8 C8      -3.1973  -5.8553   9.1124   C.2       1 RES1   0.0000
     9 C9      -2.4493  -4.8125   9.6636   C.2       1 RES1   0.0000
    10 C10     -2.9649  -4.0001  10.6702   C.2       1 RES1   0.0000
    11 C11     -2.1602  -2.9860  11.1786   C.2       1 RES1   0.0000
    12 N12     -0.9344  -2.8099  10.7069   N.2       1 RES1   0.0000
    13 C13     -0.4381  -3.6007   9.7361   C.2       1 RES1   0.0000
    14 N14      0.8105  -3.3722   9.3013   N.2       1 RES1   0.0000
    15 C15      1.6688  -2.4412   9.7530   C.2       1 RES1   0.0000
    16 C16      2.4740  -1.7907   8.8193   C.2       1 RES1   0.0000
    17 C17      3.3848  -0.8151   9.2178   C.2       1 RES1   0.0000
    18 C18      3.5052  -0.4686  10.5652   C.2       1 RES1   0.0000
    19 N19      4.4285   0.5294  10.9582   N.pl3     1 RES1   0.0000
    20 C20      4.5522   1.0089  12.3418   C.3       1 RES1   0.0000
    21 C21      4.9151   2.4783  12.3269   C.3       1 RES1   0.0000
    22 O22      6.1248   2.6960  11.5971   O.3       1 RES1   0.0000
    23 C23      5.9774   2.2530  10.2539   C.3       1 RES1   0.0000
    24 C24      5.6426   0.7706  10.1801   C.3       1 RES1   0.0000
    25 C25      2.6964  -1.1154  11.5055   C.2       1 RES1   0.0000
    26 C26      1.7846  -2.0910  11.1021   C.2       1 RES1   0.0000
    27 N27     -1.1971  -4.5897   9.2258   N.2       1 RES1   0.0000
    28 C28     -2.6248  -6.6632   8.1280   C.2       1 RES1   0.0000
    29 C29     -3.3483  -7.7143   7.5684   C.2       1 RES1   0.0000
@<TRIPOS>BOND
     1     1     2    1
     2     2     3    2
     3     2     4   am
     4     4     5    1
     5     5     6    2
     6     6     7    1
     7     7     8    2
     8     8     9    1
     9     9    10    2
    10    10    11    1
    11    11    12    2
    12    12    13    1
    13    13    14    1
    14    14    15    1
    15    15    16    2
    16    16    17    1
    17    17    18    2
    18    18    19    1
    19    19    20    1
    20    20    21    1
    21    21    22    1
    22    22    23    1
    23    23    24    1
    24    18    25    1
    25    25    26    2
    26    13    27    2
    27     8    28    1
    28    28    29    2
    29    29     5    1
    30    27     9    1
    31    26    15    1
    32    24    19    1
@<TRIPOS>SUBSTRUCTURE
     1 RES1        1 GROUP             0 ****  ****    0  
@<TRIPOS>MOLECULE
ligand_7
    29    32     1     0     0
SMALL
NO_CHARGES
****
Generated from the CSD

@<TRIPOS>ATOM
     1 C1      -6.3195 -10.7769   6.2544   C.3       1 RES1   0.0000
     2 C2      -5.2046  -9.7883   6.5957   C.2       1 RES1   0.0000
     3 O3      -4.1194  -9.8559   6.0193   O.2       1 RES1   0.0000
     4 N4      -5.5314  -8.8971   7.5381   N.am      1 RES1   0.0000
     5 C5      -4.7455  -7.9246   8.0231   C.2       1 RES1   0.0000
     6 C6      -3.4336  -7.7163   7.5843   C.2       1 RES1   0.0000
     7 C7      -2.6641  -6.6860   8.1238   C.2       1 RES1   0.0000
     8 C8      -3.1973  -5.8553   9.1124   C.2       1 RES1   0.0000
     9 C9      -2.4493  -4.8125   9.6636   C.2       1 RES1   0.0000
    10 C10     -2.9649  -4.0001  10.6702   C.2       1 RES1   0.0000
    11 C11     -2.1602  -2.9860  11.1786   C.2       1 RES1   0.0000
    12 N12     -0.9344  -2.8099  10.7069   N.2       1 RES1   0.0000
    13 C13     -0.4381  -3.6007   9.7361   C.2       1 RES1   0.0000
    14 N14      0.8105  -3.3722   9.3013   N.2       1 RES1   0.0000
    15 C15      1.6689  -2.4413   9.7531   C.2       1 RES1   0.0000
    16 C16      2.4740  -1.7906   8.8194   C.2       1 RES1   0.0000
    17 C17      3.3848  -0.8151   9.2180   C.2       1 RES1   0.0000
    18 C18      3.5053  -0.4688  10.5654   C.2       1 RES1   0.0000
    19 N19      4.4286   0.5291  10.9586   N.pl3     1 RES1   0.0000
    20 C20      4.5526   1.0082  12.3423   C.3       1 RES1   0.0000
    21 C21      4.9154   2.4777  12.3277   C.3       1 RES1   0.0000
    22 O22      6.1251   2.6956  11.5977   O.3       1 RES1   0.0000
    23 C23      5.9774   2.2530  10.2544   C.3       1 RES1   0.0000
    24 C24      5.6426   0.7706  10.1803   C.3       1 RES1   0.0000
    25 C25      2.6966  -1.1157  11.5058   C.2       1 RES1   0.0000
    26 C26      1.7847  -2.0913  11.1022   C.2       1 RES1   0.0000
    27 N27     -1.1971  -4.5897   9.2258   N.2       1 RES1   0.0000
    28 C28     -4.5078  -6.0628   9.5473   C.2       1 RES1   0.0000
    29 C29     -5.2764  -7.0918   9.0072   C.2       1 RES1   0.0000
@<TRIPOS>BOND
     1     1     2    1
     2     2     3    2
     3     2     4   am
     4     4     5    1
     5     5     6    2
     6     6     7    1
     7     7     8    2
     8     8     9    1
     9     9    10    2
    10    10    11    1
    11    11    12    2
    12    12    13    1
    13    13    14    1
    14    14    15    1
    15    15    16    2
    16    16    17    1
    17    17    18    2
    18    18    19    1
    19    19    20    1
    20    20    21    1
    21    21    22    1
    22    22    23    1
    23    23    24    1
    24    18    25    1
    25    25    26    2
    26    13    27    2
    27     8    28    1
    28    28    29    2
    29    29     5    1
    30    27     9    1
    31    26    15    1
    32    24    19    1
@<TRIPOS>SUBSTRUCTURE
     1 RES1        1 GROUP             0 ****  ****    0  
@<TRIPOS>MOLECULE
ligand_8
    29    32     1     0     0
SMALL
NO_CHARGES
****
Generated from the CSD

@<TRIPOS>ATOM
     1 C1      -5.8710   7.1181   4.8689   C.3       1 RES1   0.0000
     2 C2      -4.9424   7.1607   3.6553   C.2       1 RES1   0.0000
     3 O3      -5.3309   7.6509   2.5955   O.2       1 RES1   0.0000
     4 N4      -3.7325   6.6330   3.8717   N.am      1 RES1   0.0000
     5 C5      -2.7316   6.5418   2.9837   C.2       1 RES1   0.0000
     6 C6      -2.8364   7.0062   1.6683   C.2       1 RES1   0.0000
     7 C7      -1.7602   6.8868   0.7898   C.2       1 RES1   0.0000
     8 C8      -0.5679   6.2966   1.2163   C.2       1 RES1   0.0000
     9 C9       0.5265   6.1715   0.3576   C.2       1 RES1   0.0000
    10 C10      0.4825   6.6451  -0.9511   C.2       1 RES1   0.0000
    11 C11      1.6130   6.4943  -1.7472   C.2       1 RES1   0.0000
    12 N12      2.6984   5.9125  -1.2578   N.2       1 RES1   0.0000
    13 C13      2.7381   5.4597   0.0100   C.2       1 RES1   0.0000
    14 N14      3.8668   4.8805   0.4470   N.2       1 RES1   0.0000
    15 C15      4.1091   4.4051   1.6810   C.2       1 RES1   0.0000
    16 C16      4.9416   3.2931   1.7982   C.2       1 RES1   0.0000
    17 C17      5.2354   2.7489   3.0462   C.2       1 RES1   0.0000
    18 C18      4.7011   3.3127   4.2067   C.2       1 RES1   0.0000
    19 N19      5.0122   2.7565   5.4703   N.pl3     1 RES1   0.0000
    20 C20      5.9708   1.6548   5.6074   C.3       1 RES1   0.0000
    21 C21      5.2081   0.3729   5.8840   C.3       1 RES1   0.0000
    22 O22      4.3994   0.4966   7.0560   O.3       1 RES1   0.0000
    23 C23      3.4682   1.5648   6.9305   C.3       1 RES1   0.0000
    24 C24      4.1664   2.8881   6.6646   C.3       1 RES1   0.0000
    25 C25      3.8686   4.4312   4.0949   C.2       1 RES1   0.0000
    26 C26      3.5778   4.9739   2.8430   C.2       1 RES1   0.0000
    27 N27      1.6565   5.5926   0.8018   N.2       1 RES1   0.0000
    28 C28     -0.4640   5.8360   2.5303   C.2       1 RES1   0.0000
    29 C29     -1.5394   5.9566   3.4079   C.2       1 RES1   0.0000
@<TRIPOS>BOND
     1     1     2    1
     2     2     3    2
     3     2     4   am
     4     4     5    1
     5     5     6    2
     6     6     7    1
     7     7     8    2
     8     8     9    1
     9     9    10    2
    10    10    11    1
    11    11    12    2
    12    12    13    1
    13    13    14    1
    14    14    15    1
    15    15    16    2
    16    16    17    1
    17    17    18    2
    18    18    19    1
    19    19    20    1
    20    20    21    1
    21    21    22    1
    22    22    23    1
    23    23    24    1
    24    18    25    1
    25    25    26    2
    26    13    27    2
    27     8    28    1
    28    28    29    2
    29    29     5    1
    30    27     9    1
    31    26    15    1
    32    24    19    1
@<TRIPOS>SUBSTRUCTURE
     1 RES1        1 GROUP             0 ****  ****    0  
@<TRIPOS>MOLECULE
ligand_9
    29    32     1     0     0
SMALL
NO_CHARGES
****
Generated from the CSD

@<TRIPOS>ATOM
     1 C1      -5.4100   6.6390   5.5263   C.3       1 RES1   0.0000
     2 C2      -4.0338   6.3364   4.9336   C.2       1 RES1   0.0000
     3 O3      -3.1666   5.8014   5.6236   O.2       1 RES1   0.0000
     4 N4      -3.8953   6.7014   3.6542   N.am      1 RES1   0.0000
     5 C5      -2.7985   6.5535   2.8967   C.2       1 RES1   0.0000
     6 C6      -1.6167   5.9761   3.3730   C.2       1 RES1   0.0000
     7 C7      -0.5081   5.8459   2.5373   C.2       1 RES1   0.0000
     8 C8      -0.5679   6.2966   1.2163   C.2       1 RES1   0.0000
     9 C9       0.5265   6.1715   0.3576   C.2       1 RES1   0.0000
    10 C10      0.4825   6.6451  -0.9511   C.2       1 RES1   0.0000
    11 C11      1.6130   6.4943  -1.7472   C.2       1 RES1   0.0000
    12 N12      2.6984   5.9125  -1.2578   N.2       1 RES1   0.0000
    13 C13      2.7381   5.4597   0.0100   C.2       1 RES1   0.0000
    14 N14      3.8668   4.8805   0.4470   N.2       1 RES1   0.0000
    15 C15      4.1090   4.4051   1.6810   C.2       1 RES1   0.0000
    16 C16      4.9416   3.2931   1.7982   C.2       1 RES1   0.0000
    17 C17      5.2354   2.7490   3.0462   C.2       1 RES1   0.0000
    18 C18      4.7010   3.3126   4.2067   C.2       1 RES1   0.0000
    19 N19      5.0122   2.7564   5.4703   N.pl3     1 RES1   0.0000
    20 C20      5.9708   1.6549   5.6074   C.3       1 RES1   0.0000
    21 C21      5.2083   0.3729   5.8840   C.3       1 RES1   0.0000
    22 O22      4.3995   0.4965   7.0559   O.3       1 RES1   0.0000
    23 C23      3.4683   1.5646   6.9304   C.3       1 RES1   0.0000
    24 C24      4.1664   2.8880   6.6646   C.3       1 RES1   0.0000
    25 C25      3.8686   4.4312   4.0949   C.2       1 RES1   0.0000
    26 C26      3.5778   4.9739   2.8430   C.2       1 RES1   0.0000
    27 N27      1.6565   5.5926   0.8018   N.2       1 RES1   0.0000
    28 C28     -1.7491   6.8703   0.7417   C.2       1 RES1   0.0000
    29 C29     -2.8568   6.9991   1.5769   C.2       1 RES1   0.0000
@<TRIPOS>BOND
     1     1     2    1
     2     2     3    2
     3     2     4   am
     4     4     5    1
     5     5     6    2
     6     6     7    1
     7     7     8    2
     8     8     9    1
     9     9    10    2
    10    10    11    1
    11    11    12    2
    12    12    13    1
    13    13    14    1
    14    14    15    1
    15    15    16    2
    16    16    17    1
    17    17    18    2
    18    18    19    1
    19    19    20    1
    20    20    21    1
    21    21    22    1
    22    22    23    1
    23    23    24    1
    24    18    25    1
    25    25    26    2
    26    13    27    2
    27     8    28    1
    28    28    29    2
    29    29     5    1
    30    27     9    1
    31    26    15    1
    32    24    19    1
@<TRIPOS>SUBSTRUCTURE
     1 RES1        1 GROUP             0 ****  ****    0  
@<TRIPOS>MOLECULE
ligand_10
    29    32     1     0     0
SMALL
NO_CHARGES
****
Generated from the CSD

@<TRIPOS>ATOM
     1 C1       0.6211   9.3055  -9.0013   C.3       1 RES1   0.0000
     2 C2       0.3109   8.9457  -7.5483   C.2       1 RES1   0.0000
     3 O3      -0.7872   9.2182  -7.0640   O.2       1 RES1   0.0000
     4 N4       1.3150   8.3372  -6.9076   N.am      1 RES1   0.0000
     5 C5       1.3103   7.9172  -5.6339   C.2       1 RES1   0.0000
     6 C6       0.2089   8.0718  -4.7855   C.2       1 RES1   0.0000
     7 C7       0.2611   7.6121  -3.4701   C.2       1 RES1   0.0000
     8 C8       1.4185   6.9965  -2.9870   C.2       1 RES1   0.0000
     9 C9       1.4934   6.5216  -1.6757   C.2       1 RES1   0.0000
    10 C10      0.4141   6.6244  -0.8018   C.2       1 RES1   0.0000
    11 C11      0.5568   6.1219   0.4872   C.2       1 RES1   0.0000
    12 N12      1.6981   5.5610   0.8599   N.2       1 RES1   0.0000
    13 C13      2.7381   5.4597   0.0100   C.2       1 RES1   0.0000
    14 N14      3.8668   4.8805   0.4470   N.2       1 RES1   0.0000
    15 C15      4.1151   4.4203   1.6856   C.2       1 RES1   0.0000
    16 C16      4.9183   3.2877   1.8101   C.2       1 RES1   0.0000
    17 C17      5.2165   2.7575   3.0631   C.2       1 RES1   0.0000
    18 C18      4.7160   3.3562   4.2212   C.2       1 RES1   0.0000
    19 N19      5.0314   2.8138   5.4898   N.pl3     1 RES1   0.0000
    20 C20      5.9611   1.6884   5.6322   C.3       1 RES1   0.0000
    21 C21      5.1677   0.4334   5.9433   C.3       1 RES1   0.0000
    22 O22      4.3811   0.6001   7.1249   O.3       1 RES1   0.0000
    23 C23      3.4781   1.6916   6.9944   C.3       1 RES1   0.0000
    24 C24      4.2084   2.9900   6.6942   C.3       1 RES1   0.0000
    25 C25      3.9132   4.4954   4.1019   C.2       1 RES1   0.0000
    26 C26      3.6179   5.0239   2.8451   C.2       1 RES1   0.0000
    27 N27      2.6263   5.9393  -1.2438   N.2       1 RES1   0.0000
    28 C28      2.5161   6.8405  -3.8359   C.2       1 RES1   0.0000
    29 C29      2.4628   7.2992  -5.1504   C.2       1 RES1   0.0000
@<TRIPOS>BOND
     1     1     2    1
     2     2     3    2
     3     2     4   am
     4     4     5    1
     5     5     6    2
     6     6     7    1
     7     7     8    2
     8     8     9    1
     9     9    10    2
    10    10    11    1
    11    11    12    2
    12    12    13    1
    13    13    14    1
    14    14    15    1
    15    15    16    2
    16    16    17    1
    17    17    18    2
    18    18    19    1
    19    19    20    1
    20    20    21    1
    21    21    22    1
    22    22    23    1
    23    23    24    1
    24    18    25    1
    25    25    26    2
    26    13    27    2
    27     8    28    1
    28    28    29    2
    29    29     5    1
    30    27     9    1
    31    26    15    1
    32    24    19    1
@<TRIPOS>SUBSTRUCTURE
     1 RES1        1 GROUP             0 ****  ****    0  
@<TRIPOS>MOLECULE
ligand_11
    29    32     1     0     0
SMALL
NO_CHARGES
****
Generated from the CSD

@<TRIPOS>ATOM
     1 C1       1.5206   9.0863  -9.1320   C.3       1 RES1   0.0000
     2 C2       1.9870   8.4432  -7.8260   C.2       1 RES1   0.0000
     3 O3       3.1136   7.9547  -7.7442   O.2       1 RES1   0.0000
     4 N4       1.0786   8.4737  -6.8446   N.am      1 RES1   0.0000
     5 C5       1.2264   7.9829  -5.6053   C.2       1 RES1   0.0000
     6 C6       2.3972   7.3525  -5.1709   C.2       1 RES1   0.0000
     7 C7       2.4943   6.8640  -3.8685   C.2       1 RES1   0.0000
     8 C8       1.4185   6.9965  -2.9870   C.2       1 RES1   0.0000
     9 C9       1.4934   6.5216  -1.6757   C.2       1 RES1   0.0000
    10 C10      0.4141   6.6244  -0.8018   C.2       1 RES1   0.0000
    11 C11      0.5568   6.1219   0.4872   C.2       1 RES1   0.0000
    12 N12      1.6981   5.5610   0.8599   N.2       1 RES1   0.0000
    13 C13      2.7381   5.4597   0.0100   C.2       1 RES1   0.0000
    14 N14      3.8668   4.8805   0.4470   N.2       1 RES1   0.0000
    15 C15      4.1151   4.4203   1.6856   C.2       1 RES1   0.0000
    16 C16      4.9182   3.2877   1.8102   C.2       1 RES1   0.0000
    17 C17      5.2164   2.7577   3.0632   C.2       1 RES1   0.0000
    18 C18      4.7161   3.3565   4.2213   C.2       1 RES1   0.0000
    19 N19      5.0316   2.8141   5.4899   N.pl3     1 RES1   0.0000
    20 C20      5.9614   1.6889   5.6323   C.3       1 RES1   0.0000
    21 C21      5.1681   0.4338   5.9435   C.3       1 RES1   0.0000
    22 O22      4.3815   0.6005   7.1251   O.3       1 RES1   0.0000
    23 C23      3.4783   1.6918   6.9945   C.3       1 RES1   0.0000
    24 C24      4.2085   2.9903   6.6943   C.3       1 RES1   0.0000
    25 C25      3.9134   4.4958   4.1019   C.2       1 RES1   0.0000
    26 C26      3.6181   5.0242   2.8451   C.2       1 RES1   0.0000
    27 N27      2.6263   5.9393  -1.2438   N.2       1 RES1   0.0000
    28 C28      0.2516   7.6283  -3.4213   C.2       1 RES1   0.0000
    29 C29      0.1557   8.1171  -4.7225   C.2       1 RES1   0.0000
@<TRIPOS>BOND
     1     1     2    1
     2     2     3    2
     3     2     4   am
     4     4     5    1
     5     5     6    2
     6     6     7    1
     7     7     8    2
     8     8     9    1
     9     9    10    2
    10    10    11    1
    11    11    12    2
    12    12    13    1
    13    13    14    1
    14    14    15    1
    15    15    16    2
    16    16    17    1
    17    17    18    2
    18    18    19    1
    19    19    20    1
    20    20    21    1
    21    21    22    1
    22    22    23    1
    23    23    24    1
    24    18    25    1
    25    25    26    2
    26    13    27    2
    27     8    28    1
    28    28    29    2
    29    29     5    1
    30    27     9    1
    31    26    15    1
    32    24    19    1
@<TRIPOS>SUBSTRUCTURE
     1 RES1        1 GROUP             0 ****  ****    0  
@<TRIPOS>MOLECULE
ligand_12
    29    32     1     0     0
SMALL
NO_CHARGES
****
Generated from the CSD

@<TRIPOS>ATOM
     1 C1       3.0778  14.1783   6.1315   C.3       1 RES1   0.0000
     2 C2       3.0144  13.4564   4.7855   C.2       1 RES1   0.0000
     3 O3       2.7677  14.0852   3.7568   O.2       1 RES1   0.0000
     4 N4       3.2448  12.1408   4.8573   N.am      1 RES1   0.0000
     5 C5       3.2490  11.2746   3.8334   C.2       1 RES1   0.0000
     6 C6       3.0018  11.6580   2.5111   C.2       1 RES1   0.0000
     7 C7       3.0223  10.7125   1.4864   C.2       1 RES1   0.0000
     8 C8       3.2857   9.3710   1.7742   C.2       1 RES1   0.0000
     9 C9       3.3185   8.4062   0.7649   C.2       1 RES1   0.0000
    10 C10      3.1090   8.7423  -0.5702   C.2       1 RES1   0.0000
    11 C11      3.1648   7.7308  -1.5232   C.2       1 RES1   0.0000
    12 N12      3.4130   6.4824  -1.1545   N.2       1 RES1   0.0000
    13 C13      3.6193   6.1624   0.1375   C.2       1 RES1   0.0000
    14 N14      3.8668   4.8805   0.4470   N.2       1 RES1   0.0000
    15 C15      4.0762   4.3680   1.6722   C.2       1 RES1   0.0000
    16 C16      5.0192   3.3492   1.7989   C.2       1 RES1   0.0000
    17 C17      5.2867   2.7734   3.0386   C.2       1 RES1   0.0000
    18 C18      4.6138   3.2111   4.1813   C.2       1 RES1   0.0000
    19 N19      4.8986   2.6244   5.4373   N.pl3     1 RES1   0.0000
    20 C20      5.9641   1.6287   5.5937   C.3       1 RES1   0.0000
    21 C21      5.3344   0.2578   5.7531   C.3       1 RES1   0.0000
    22 O22      4.4385   0.2280   6.8663   O.3       1 RES1   0.0000
    23 C23      3.4032   1.1929   6.7220   C.3       1 RES1   0.0000
    24 C24      3.9636   2.5973   6.5703   C.3       1 RES1   0.0000
    25 C25      3.6697   4.2362   4.0602   C.2       1 RES1   0.0000
    26 C26      3.4057   4.8111   2.8168   C.2       1 RES1   0.0000
    27 N27      3.5698   7.1230   1.0805   N.2       1 RES1   0.0000
    28 C28      3.5349   8.9903   3.0942   C.2       1 RES1   0.0000
    29 C29      3.5152   9.9358   4.1174   C.2       1 RES1   0.0000
@<TRIPOS>BOND
     1     1     2    1
     2     2     3    2
     3     2     4   am
     4     4     5    1
     5     5     6    2
     6     6     7    1
     7     7     8    2
     8     8     9    1
     9     9    10    2
    10    10    11    1
    11    11    12    2
    12    12    13    1
    13    13    14    1
    14    14    15    1
    15    15    16    2
    16    16    17    1
    17    17    18    2
    18    18    19    1
    19    19    20    1
    20    20    21    1
    21    21    22    1
    22    22    23    1
    23    23    24    1
    24    18    25    1
    25    25    26    2
    26    13    27    2
    27     8    28    1
    28    28    29    2
    29    29     5    1
    30    27     9    1
    31    26    15    1
    32    24    19    1
@<TRIPOS>SUBSTRUCTURE
     1 RES1        1 GROUP             0 ****  ****    0  
@<TRIPOS>MOLECULE
ligand_13
    29    32     1     0     0
SMALL
NO_CHARGES
****
Generated from the CSD

@<TRIPOS>ATOM
     1 C1       3.1941  13.5096   6.7745   C.3       1 RES1   0.0000
     2 C2       3.3300  12.2013   5.9955   C.2       1 RES1   0.0000
     3 O3       3.6011  11.1554   6.5845   O.2       1 RES1   0.0000
     4 N4       3.1313  12.3241   4.6785   N.am      1 RES1   0.0000
     5 C5       3.1906  11.3413   3.7678   C.2       1 RES1   0.0000
     6 C6       3.4803  10.0134   4.0988   C.2       1 RES1   0.0000
     7 C7       3.5254   9.0328   3.1083   C.2       1 RES1   0.0000
     8 C8       3.2857   9.3710   1.7742   C.2       1 RES1   0.0000
     9 C9       3.3185   8.4062   0.7649   C.2       1 RES1   0.0000
    10 C10      3.1090   8.7423  -0.5702   C.2       1 RES1   0.0000
    11 C11      3.1648   7.7308  -1.5232   C.2       1 RES1   0.0000
    12 N12      3.4130   6.4824  -1.1545   N.2       1 RES1   0.0000
    13 C13      3.6193   6.1624   0.1375   C.2       1 RES1   0.0000
    14 N14      3.8668   4.8805   0.4470   N.2       1 RES1   0.0000
    15 C15      4.0763   4.3680   1.6721   C.2       1 RES1   0.0000
    16 C16      5.0192   3.3491   1.7989   C.2       1 RES1   0.0000
    17 C17      5.2867   2.7733   3.0386   C.2       1 RES1   0.0000
    18 C18      4.6138   3.2111   4.1813   C.2       1 RES1   0.0000
    19 N19      4.8987   2.6244   5.4373   N.pl3     1 RES1   0.0000
    20 C20      5.9642   1.6287   5.5937   C.3       1 RES1   0.0000
    21 C21      5.3345   0.2578   5.7531   C.3       1 RES1   0.0000
    22 O22      4.4386   0.2280   6.8663   O.3       1 RES1   0.0000
    23 C23      3.4033   1.1929   6.7220   C.3       1 RES1   0.0000
    24 C24      3.9636   2.5973   6.5703   C.3       1 RES1   0.0000
    25 C25      3.6698   4.2363   4.0602   C.2       1 RES1   0.0000
    26 C26      3.4058   4.8111   2.8168   C.2       1 RES1   0.0000
    27 N27      3.5698   7.1230   1.0805   N.2       1 RES1   0.0000
    28 C28      2.9940  10.6964   1.4458   C.2       1 RES1   0.0000
    29 C29      2.9482  11.6754   2.4361   C.2       1 RES1   0.0000
@<TRIPOS>BOND
     1     1     2    1
     2     2     3    2
     3     2     4   am
     4     4     5    1
     5     5     6    2
     6     6     7    1
     7     7     8    2
     8     8     9    1
     9     9    10    2
    10    10    11    1
    11    11    12    2
    12    12    13    1
    13    13    14    1
    14    14    15    1
    15    15    16    2
    16    16    17    1
    17    17    18    2
    18    18    19    1
    19    19    20    1
    20    20    21    1
    21    21    22    1
    22    22    23    1
    23    23    24    1
    24    18    25    1
    25    25    26    2
    26    13    27    2
    27     8    28    1
    28    28    29    2
    29    29     5    1
    30    27     9    1
    31    26    15    1
    32    24    19    1
@<TRIPOS>SUBSTRUCTURE
     1 RES1        1 GROUP             0 ****  ****    0  
@<TRIPOS>MOLECULE
ligand_14
    29    32     1     0     0
SMALL
NO_CHARGES
****
Generated from the CSD

@<TRIPOS>ATOM
     1 C1       1.8091  10.3287  -8.7979   C.3       1 RES1   0.0000
     2 C2       2.0080  10.3484  -7.2824   C.2       1 RES1   0.0000
     3 O3       1.9287  11.4079  -6.6613   O.2       1 RES1   0.0000
     4 N4       2.2631   9.1494  -6.7471   N.am      1 RES1   0.0000
     5 C5       2.4773   8.8842  -5.4500   C.2       1 RES1   0.0000
     6 C6       2.4600   9.8707  -4.4584   C.2       1 RES1   0.0000
     7 C7       2.6870   9.5345  -3.1242   C.2       1 RES1   0.0000
     8 C8       2.9387   8.2074  -2.7677   C.2       1 RES1   0.0000
     9 C9       3.1623   7.8442  -1.4378   C.2       1 RES1   0.0000
    10 C10      3.1255   8.7840  -0.4108   C.2       1 RES1   0.0000
    11 C11      3.3489   8.3493   0.8914   C.2       1 RES1   0.0000
    12 N12      3.5889   7.0688   1.1333   N.2       1 RES1   0.0000
    13 C13      3.6193   6.1624   0.1375   C.2       1 RES1   0.0000
    14 N14      3.8668   4.8805   0.4470   N.2       1 RES1   0.0000
    15 C15      4.0615   4.3655   1.6735   C.2       1 RES1   0.0000
    16 C16      5.0260   3.3690   1.8154   C.2       1 RES1   0.0000
    17 C17      5.2799   2.7921   3.0574   C.2       1 RES1   0.0000
    18 C18      4.5714   3.2061   4.1873   C.2       1 RES1   0.0000
    19 N19      4.8426   2.6186   5.4459   N.pl3     1 RES1   0.0000
    20 C20      5.9284   1.6480   5.6203   C.3       1 RES1   0.0000
    21 C21      5.3289   0.2613   5.7576   C.3       1 RES1   0.0000
    22 O22      4.4096   0.2027   6.8505   O.3       1 RES1   0.0000
    23 C23      3.3545   1.1431   6.6886   C.3       1 RES1   0.0000
    24 C24      3.8837   2.5616   6.5577   C.3       1 RES1   0.0000
    25 C25      3.6056   4.2088   4.0511   C.2       1 RES1   0.0000
    26 C26      3.3552   4.7849   2.8055   C.2       1 RES1   0.0000
    27 N27      3.4072   6.5573  -1.1328   N.2       1 RES1   0.0000
    28 C28      2.9530   7.2235  -3.7583   C.2       1 RES1   0.0000
    29 C29      2.7252   7.5599  -5.0910   C.2       1 RES1   0.0000
@<TRIPOS>BOND
     1     1     2    1
     2     2     3    2
     3     2     4   am
     4     4     5    1
     5     5     6    2
     6     6     7    1
     7     7     8    2
     8     8     9    1
     9     9    10    2
    10    10    11    1
    11    11    12    2
    12    12    13    1
    13    13    14    1
    14    14    15    1
    15    15    16    2
    16    16    17    1
    17    17    18    2
    18    18    19    1
    19    19    20    1
    20    20    21    1
    21    21    22    1
    22    22    23    1
    23    23    24    1
    24    18    25    1
    25    25    26    2
    26    13    27    2
    27     8    28    1
    28    28    29    2
    29    29     5    1
    30    27     9    1
    31    26    15    1
    32    24    19    1
@<TRIPOS>SUBSTRUCTURE
     1 RES1        1 GROUP             0 ****  ****    0  
@<TRIPOS>MOLECULE
ligand_15
    29    32     1     0     0
SMALL
NO_CHARGES
****
Generated from the CSD

@<TRIPOS>ATOM
     1 C1       1.9909   9.4522  -9.0678   C.3       1 RES1   0.0000
     2 C2       2.2589   8.6676  -7.7835   C.2       1 RES1   0.0000
     3 O3       2.4246   7.4489  -7.8257   O.2       1 RES1   0.0000
     4 N4       2.2891   9.4196  -6.6777   N.am      1 RES1   0.0000
     5 C5       2.5027   8.9887  -5.4257   C.2       1 RES1   0.0000
     6 C6       2.7284   7.6444  -5.1114   C.2       1 RES1   0.0000
     7 C7       2.9476   7.2556  -3.7904   C.2       1 RES1   0.0000
     8 C8       2.9387   8.2074  -2.7677   C.2       1 RES1   0.0000
     9 C9       3.1623   7.8442  -1.4378   C.2       1 RES1   0.0000
    10 C10      3.1255   8.7840  -0.4108   C.2       1 RES1   0.0000
    11 C11      3.3489   8.3493   0.8914   C.2       1 RES1   0.0000
    12 N12      3.5889   7.0688   1.1333   N.2       1 RES1   0.0000
    13 C13      3.6193   6.1624   0.1375   C.2       1 RES1   0.0000
    14 N14      3.8668   4.8805   0.4470   N.2       1 RES1   0.0000
    15 C15      4.0615   4.3655   1.6735   C.2       1 RES1   0.0000
    16 C16      5.0260   3.3690   1.8154   C.2       1 RES1   0.0000
    17 C17      5.2799   2.7921   3.0574   C.2       1 RES1   0.0000
    18 C18      4.5714   3.2061   4.1873   C.2       1 RES1   0.0000
    19 N19      4.8427   2.6186   5.4459   N.pl3     1 RES1   0.0000
    20 C20      5.9284   1.6480   5.6203   C.3       1 RES1   0.0000
    21 C21      5.3289   0.2612   5.7576   C.3       1 RES1   0.0000
    22 O22      4.4096   0.2027   6.8505   O.3       1 RES1   0.0000
    23 C23      3.3545   1.1431   6.6887   C.3       1 RES1   0.0000
    24 C24      3.8837   2.5616   6.5577   C.3       1 RES1   0.0000
    25 C25      3.6056   4.2088   4.0511   C.2       1 RES1   0.0000
    26 C26      3.3553   4.7849   2.8055   C.2       1 RES1   0.0000
    27 N27      3.4072   6.5573  -1.1328   N.2       1 RES1   0.0000
    28 C28      2.7160   9.5491  -3.0834   C.2       1 RES1   0.0000
    29 C29      2.4980   9.9371  -4.4037   C.2       1 RES1   0.0000
@<TRIPOS>BOND
     1     1     2    1
     2     2     3    2
     3     2     4   am
     4     4     5    1
     5     5     6    2
     6     6     7    1
     7     7     8    2
     8     8     9    1
     9     9    10    2
    10    10    11    1
    11    11    12    2
    12    12    13    1
    13    13    14    1
    14    14    15    1
    15    15    16    2
    16    16    17    1
    17    17    18    2
    18    18    19    1
    19    19    20    1
    20    20    21    1
    21    21    22    1
    22    22    23    1
    23    23    24    1
    24    18    25    1
    25    25    26    2
    26    13    27    2
    27     8    28    1
    28    28    29    2
    29    29     5    1
    30    27     9    1
    31    26    15    1
    32    24    19    1
@<TRIPOS>SUBSTRUCTURE
     1 RES1        1 GROUP             0 ****  ****    0  
@<TRIPOS>MOLECULE
ligand_16
    29    32     1     0     0
SMALL
NO_CHARGES
****
Generated from the CSD

@<TRIPOS>ATOM
     1 C1      -2.0143  -2.6540  19.6971   C.3       1 RES1   0.0000
     2 C2      -1.4211  -3.1117  18.3646   C.2       1 RES1   0.0000
     3 O3      -0.2745  -3.5560  18.3175   O.2       1 RES1   0.0000
     4 N4      -2.2478  -2.9784  17.3216   N.am      1 RES1   0.0000
     5 C5      -1.9759  -3.2833  16.0442   C.2       1 RES1   0.0000
     6 C6      -0.6972  -3.1661  15.4892   C.2       1 RES1   0.0000
     7 C7      -0.4738  -3.5011  14.1542   C.2       1 RES1   0.0000
     8 C8      -1.5289  -3.9527  13.3576   C.2       1 RES1   0.0000
     9 C9      -1.3295  -4.3008  12.0198   C.2       1 RES1   0.0000
    10 C10     -2.1132  -5.2673  11.3947   C.2       1 RES1   0.0000
    11 C11     -1.8641  -5.5570  10.0574   C.2       1 RES1   0.0000
    12 N12     -0.9014  -4.9198   9.4069   N.2       1 RES1   0.0000
    13 C13     -0.1485  -3.9825  10.0141   C.2       1 RES1   0.0000
    14 N14      0.8105  -3.3722   9.3013   N.2       1 RES1   0.0000
    15 C15      1.6922  -2.4586   9.7433   C.2       1 RES1   0.0000
    16 C16      2.4690  -1.7924   8.7966   C.2       1 RES1   0.0000
    17 C17      3.4016  -0.8334   9.1845   C.2       1 RES1   0.0000
    18 C18      3.5729  -0.5194  10.5344   C.2       1 RES1   0.0000
    19 N19      4.5179   0.4621  10.9171   N.pl3     1 RES1   0.0000
    20 C20      4.6950   0.9082  12.3060   C.3       1 RES1   0.0000
    21 C21      5.0694   2.3748  12.3120   C.3       1 RES1   0.0000
    22 O22      6.2542   2.6003  11.5445   O.3       1 RES1   0.0000
    23 C23      6.0552   2.1899  10.1976   C.3       1 RES1   0.0000
    24 C24      5.7055   0.7122  10.1017   C.3       1 RES1   0.0000
    25 C25      2.7928  -1.1819  11.4880   C.2       1 RES1   0.0000
    26 C26      1.8590  -2.1409  11.0951   C.2       1 RES1   0.0000
    27 N27     -0.3685  -3.6838  11.3091   N.2       1 RES1   0.0000
    28 C28     -2.8041  -4.0717  13.9137   C.2       1 RES1   0.0000
    29 C29     -3.0264  -3.7378  15.2480   C.2       1 RES1   0.0000
@<TRIPOS>BOND
     1     1     2    1
     2     2     3    2
     3     2     4   am
     4     4     5    1
     5     5     6    2
     6     6     7    1
     7     7     8    2
     8     8     9    1
     9     9    10    2
    10    10    11    1
    11    11    12    2
    12    12    13    1
    13    13    14    1
    14    14    15    1
    15    15    16    2
    16    16    17    1
    17    17    18    2
    18    18    19    1
    19    19    20    1
    20    20    21    1
    21    21    22    1
    22    22    23    1
    23    23    24    1
    24    18    25    1
    25    25    26    2
    26    13    27    2
    27     8    28    1
    28    28    29    2
    29    29     5    1
    30    27     9    1
    31    26    15    1
    32    24    19    1
@<TRIPOS>SUBSTRUCTURE
     1 RES1        1 GROUP             0 ****  ****    0  
@<TRIPOS>MOLECULE
ligand_17
    29    32     1     0     0
SMALL
NO_CHARGES
****
Generated from the CSD

@<TRIPOS>ATOM
     1 C1      -1.9429  -2.1152  19.5675   C.3       1 RES1   0.0000
     2 C2      -1.4496  -2.1999  18.1231   C.2       1 RES1   0.0000
     3 O3      -0.4969  -1.5143  17.7531   O.2       1 RES1   0.0000
     4 N4      -2.1365  -3.0556  17.3582   N.am      1 RES1   0.0000
     5 C5      -1.9279  -3.3072  16.0575   C.2       1 RES1   0.0000
     6 C6      -1.4596  -2.3410  15.1609   C.2       1 RES1   0.0000
     7 C7      -1.2587  -2.6619  13.8188   C.2       1 RES1   0.0000
     8 C8      -1.5289  -3.9527  13.3576   C.2       1 RES1   0.0000
     9 C9      -1.3295  -4.3008  12.0198   C.2       1 RES1   0.0000
    10 C10     -2.1132  -5.2673  11.3947   C.2       1 RES1   0.0000
    11 C11     -1.8641  -5.5570  10.0574   C.2       1 RES1   0.0000
    12 N12     -0.9014  -4.9198   9.4069   N.2       1 RES1   0.0000
    13 C13     -0.1485  -3.9825  10.0141   C.2       1 RES1   0.0000
    14 N14      0.8105  -3.3722   9.3013   N.2       1 RES1   0.0000
    15 C15      1.6922  -2.4586   9.7433   C.2       1 RES1   0.0000
    16 C16      2.4690  -1.7924   8.7966   C.2       1 RES1   0.0000
    17 C17      3.4016  -0.8334   9.1845   C.2       1 RES1   0.0000
    18 C18      3.5729  -0.5194  10.5344   C.2       1 RES1   0.0000
    19 N19      4.5179   0.4621  10.9171   N.pl3     1 RES1   0.0000
    20 C20      4.6950   0.9082  12.3060   C.3       1 RES1   0.0000
    21 C21      5.0694   2.3748  12.3120   C.3       1 RES1   0.0000
    22 O22      6.2542   2.6003  11.5445   O.3       1 RES1   0.0000
    23 C23      6.0552   2.1899  10.1976   C.3       1 RES1   0.0000
    24 C24      5.7055   0.7122  10.1017   C.3       1 RES1   0.0000
    25 C25      2.7928  -1.1819  11.4880   C.2       1 RES1   0.0000
    26 C26      1.8590  -2.1409  11.0951   C.2       1 RES1   0.0000
    27 N27     -0.3685  -3.6838  11.3091   N.2       1 RES1   0.0000
    28 C28     -1.9937  -4.9167  14.2544   C.2       1 RES1   0.0000
    29 C29     -2.1933  -4.5956  15.5954   C.2       1 RES1   0.0000
@<TRIPOS>BOND
     1     1     2    1
     2     2     3    2
     3     2     4   am
     4     4     5    1
     5     5     6    2
     6     6     7    1
     7     7     8    2
     8     8     9    1
     9     9    10    2
    10    10    11    1
    11    11    12    2
    12    12    13    1
    13    13    14    1
    14    14    15    1
    15    15    16    2
    16    16    17    1
    17    17    18    2
    18    18    19    1
    19    19    20    1
    20    20    21    1
    21    21    22    1
    22    22    23    1
    23    23    24    1
    24    18    25    1
    25    25    26    2
    26    13    27    2
    27     8    28    1
    28    28    29    2
    29    29     5    1
    30    27     9    1
    31    26    15    1
    32    24    19    1
@<TRIPOS>SUBSTRUCTURE
     1 RES1        1 GROUP             0 ****  ****    0  
@<TRIPOS>MOLECULE
ligand_18
    29    32     1     0     0
SMALL
NO_CHARGES
****
Generated from the CSD

@<TRIPOS>ATOM
     1 C1      -2.9612  -2.5677  19.5335   C.3       1 RES1   0.0000
     2 C2      -3.0333  -3.2183  18.1520   C.2       1 RES1   0.0000
     3 O3      -3.8947  -4.0632  17.9098   O.2       1 RES1   0.0000
     4 N4      -2.1043  -2.7851  17.2927   N.am      1 RES1   0.0000
     5 C5      -1.9306  -3.2006  16.0294   C.2       1 RES1   0.0000
     6 C6      -2.2033  -4.5082  15.6139   C.2       1 RES1   0.0000
     7 C7      -2.0061  -4.8822  14.2851   C.2       1 RES1   0.0000
     8 C8      -1.5289  -3.9527  13.3576   C.2       1 RES1   0.0000
     9 C9      -1.3295  -4.3008  12.0198   C.2       1 RES1   0.0000
    10 C10     -2.1132  -5.2673  11.3947   C.2       1 RES1   0.0000
    11 C11     -1.8641  -5.5570  10.0574   C.2       1 RES1   0.0000
    12 N12     -0.9014  -4.9198   9.4069   N.2       1 RES1   0.0000
    13 C13     -0.1485  -3.9825  10.0141   C.2       1 RES1   0.0000
    14 N14      0.8105  -3.3722   9.3013   N.2       1 RES1   0.0000
    15 C15      1.6922  -2.4586   9.7433   C.2       1 RES1   0.0000
    16 C16      2.4690  -1.7924   8.7966   C.2       1 RES1   0.0000
    17 C17      3.4016  -0.8334   9.1845   C.2       1 RES1   0.0000
    18 C18      3.5729  -0.5194  10.5344   C.2       1 RES1   0.0000
    19 N19      4.5179   0.4621  10.9171   N.pl3     1 RES1   0.0000
    20 C20      4.6950   0.9082  12.3060   C.3       1 RES1   0.0000
    21 C21      5.0694   2.3748  12.3120   C.3       1 RES1   0.0000
    22 O22      6.2542   2.6003  11.5445   O.3       1 RES1   0.0000
    23 C23      6.0552   2.1899  10.1976   C.3       1 RES1   0.0000
    24 C24      5.7055   0.7122  10.1017   C.3       1 RES1   0.0000
    25 C25      2.7928  -1.1819  11.4880   C.2       1 RES1   0.0000
    26 C26      1.8590  -2.1409  11.0951   C.2       1 RES1   0.0000
    27 N27     -0.3685  -3.6838  11.3091   N.2       1 RES1   0.0000
    28 C28     -1.2597  -2.6472  13.7734   C.2       1 RES1   0.0000
    29 C29     -1.4580  -2.2740  15.1010   C.2       1 RES1   0.0000
@<TRIPOS>BOND
     1     1     2    1
     2     2     3    2
     3     2     4   am
     4     4     5    1
     5     5     6    2
     6     6     7    1
     7     7     8    2
     8     8     9    1
     9     9    10    2
    10    10    11    1
    11    11    12    2
    12    12    13    1
    13    13    14    1
    14    14    15    1
    15    15    16    2
    16    16    17    1
    17    17    18    2
    18    18    19    1
    19    19    20    1
    20    20    21    1
    21    21    22    1
    22    22    23    1
    23    23    24    1
    24    18    25    1
    25    25    26    2
    26    13    27    2
    27     8    28    1
    28    28    29    2
    29    29     5    1
    30    27     9    1
    31    26    15    1
    32    24    19    1
@<TRIPOS>SUBSTRUCTURE
     1 RES1        1 GROUP             0 ****  ****    0  
@<TRIPOS>MOLECULE
ligand_19
    29    32     1     0     0
SMALL
NO_CHARGES
****
Generated from the CSD

@<TRIPOS>ATOM
     1 C1      -2.8907  -2.0301  19.4041   C.3       1 RES1   0.0000
     2 C2      -3.0629  -2.3086  17.9109   C.2       1 RES1   0.0000
     3 O3      -4.1193  -2.0264  17.3464   O.2       1 RES1   0.0000
     4 N4      -1.9931  -2.8621  17.3293   N.am      1 RES1   0.0000
     5 C5      -1.8827  -3.2244  16.0427   C.2       1 RES1   0.0000
     6 C6      -2.9651  -3.6860  15.2864   C.2       1 RES1   0.0000
     7 C7      -2.7904  -4.0460  13.9506   C.2       1 RES1   0.0000
     8 C8      -1.5289  -3.9527  13.3576   C.2       1 RES1   0.0000
     9 C9      -1.3295  -4.3008  12.0198   C.2       1 RES1   0.0000
    10 C10     -2.1132  -5.2673  11.3947   C.2       1 RES1   0.0000
    11 C11     -1.8641  -5.5570  10.0574   C.2       1 RES1   0.0000
    12 N12     -0.9014  -4.9198   9.4069   N.2       1 RES1   0.0000
    13 C13     -0.1485  -3.9825  10.0141   C.2       1 RES1   0.0000
    14 N14      0.8105  -3.3722   9.3013   N.2       1 RES1   0.0000
    15 C15      1.6922  -2.4586   9.7433   C.2       1 RES1   0.0000
    16 C16      2.4690  -1.7924   8.7966   C.2       1 RES1   0.0000
    17 C17      3.4016  -0.8334   9.1845   C.2       1 RES1   0.0000
    18 C18      3.5729  -0.5194  10.5344   C.2       1 RES1   0.0000
    19 N19      4.5179   0.4621  10.9171   N.pl3     1 RES1   0.0000
    20 C20      4.6950   0.9082  12.3060   C.3       1 RES1   0.0000
    21 C21      5.0694   2.3748  12.3120   C.3       1 RES1   0.0000
    22 O22      6.2542   2.6003  11.5445   O.3       1 RES1   0.0000
    23 C23      6.0552   2.1899  10.1976   C.3       1 RES1   0.0000
    24 C24      5.7055   0.7122  10.1017   C.3       1 RES1   0.0000
    25 C25      2.7928  -1.1819  11.4880   C.2       1 RES1   0.0000
    26 C26      1.8590  -2.1409  11.0951   C.2       1 RES1   0.0000
    27 N27     -0.3685  -3.6838  11.3091   N.2       1 RES1   0.0000
    28 C28     -0.4500  -3.4893  14.1131   C.2       1 RES1   0.0000
    29 C29     -0.6255  -3.1288  15.4475   C.2       1 RES1   0.0000
@<TRIPOS>BOND
     1     1     2    1
     2     2     3    2
     3     2     4   am
     4     4     5    1
     5     5     6    2
     6     6     7    1
     7     7     8    2
     8     8     9    1
     9     9    10    2
    10    10    11    1
    11    11    12    2
    12    12    13    1
    13    13    14    1
    14    14    15    1
    15    15    16    2
    16    16    17    1
    17    17    18    2
    18    18    19    1
    19    19    20    1
    20    20    21    1
    21    21    22    1
    22    22    23    1
    23    23    24    1
    24    18    25    1
    25    25    26    2
    26    13    27    2
    27     8    28    1
    28    28    29    2
    29    29     5    1
    30    27     9    1
    31    26    15    1
    32    24    19    1
@<TRIPOS>SUBSTRUCTURE
     1 RES1        1 GROUP             0 ****  ****    0  
@<TRIPOS>MOLECULE
ligand_20
    29    32     1     0     0
SMALL
NO_CHARGES
****
Generated from the CSD

@<TRIPOS>ATOM
     1 C1       5.6028  -1.3479   0.3793   C.3       1 RES1   0.0000
     2 C2       5.0069  -1.7083   1.7402   C.2       1 RES1   0.0000
     3 O3       5.4531  -1.1964   2.7665   O.2       1 RES1   0.0000
     4 N4       4.0047  -2.5924   1.6833   N.am      1 RES1   0.0000
     5 C5       3.2772  -3.0410   2.7168   C.2       1 RES1   0.0000
     6 C6       2.8027  -4.3543   2.8005   C.2       1 RES1   0.0000
     7 C7       2.0528  -4.7650   3.9020   C.2       1 RES1   0.0000
     8 C8       1.7649  -3.8644   4.9305   C.2       1 RES1   0.0000
     9 C9       1.0216  -4.2532   6.0472   C.2       1 RES1   0.0000
    10 C10      0.0589  -5.2562   5.9673   C.2       1 RES1   0.0000
    11 C11     -0.6373  -5.5978   7.1220   C.2       1 RES1   0.0000
    12 N12     -0.3791  -4.9755   8.2631   N.2       1 RES1   0.0000
    13 C13      0.5560  -4.0089   8.3368   C.2       1 RES1   0.0000
    14 N14      0.7716  -3.4170   9.5214   N.2       1 RES1   0.0000
    15 C15      1.6166  -2.4036   9.7797   C.2       1 RES1   0.0000
    16 C16      1.8472  -2.0725  11.1141   C.2       1 RES1   0.0000
    17 C17      2.7111  -1.0341  11.4535   C.2       1 RES1   0.0000
    18 C18      3.3662  -0.3057  10.4583   C.2       1 RES1   0.0000
    19 N19      4.2479   0.7425  10.8145   N.pl3     1 RES1   0.0000
    20 C20      4.4111   1.2207  12.1944   C.3       1 RES1   0.0000
    21 C21      4.6864   2.7090  12.1743   C.3       1 RES1   0.0000
    22 O22      5.8442   3.0014  11.3884   O.3       1 RES1   0.0000
    23 C23      5.6572   2.5580  10.0503   C.3       1 RES1   0.0000
    24 C24      5.4062   1.0589   9.9803   C.3       1 RES1   0.0000
    25 C25      3.1416  -0.6368   9.1179   C.2       1 RES1   0.0000
    26 C26      2.2764  -1.6784   8.7823   C.2       1 RES1   0.0000
    27 N27      1.2439  -3.6584   7.2329   N.2       1 RES1   0.0000
    28 C28      2.2414  -2.5547   4.8467   C.2       1 RES1   0.0000
    29 C29      2.9915  -2.1452   3.7463   C.2       1 RES1   0.0000
@<TRIPOS>BOND
     1     1     2    1
     2     2     3    2
     3     2     4   am
     4     4     5    1
     5     5     6    2
     6     6     7    1
     7     7     8    2
     8     8     9    1
     9     9    10    2
    10    10    11    1
    11    11    12    2
    12    12    13    1
    13    13    14    1
    14    14    15    1
    15    15    16    2
    16    16    17    1
    17    17    18    2
    18    18    19    1
    19    19    20    1
    20    20    21    1
    21    21    22    1
    22    22    23    1
    23    23    24    1
    24    18    25    1
    25    25    26    2
    26    13    27    2
    27     8    28    1
    28    28    29    2
    29    29     5    1
    30    27     9    1
    31    26    15    1
    32    24    19    1
@<TRIPOS>SUBSTRUCTURE
     1 RES1        1 GROUP             0 ****  ****    0  
@<TRIPOS>MOLECULE
ligand_21
    29    32     1     0     0
SMALL
NO_CHARGES
****
Generated from the CSD

@<TRIPOS>ATOM
     1 C1      -3.2425  -0.8854   0.4526   C.3       1 RES1   0.0000
     2 C2      -2.4545   0.1312  -0.3734   C.2       1 RES1   0.0000
     3 O3      -1.6911   0.9211   0.1814   O.2       1 RES1   0.0000
     4 N4      -2.6816   0.0625  -1.6898   N.am      1 RES1   0.0000
     5 C5      -2.1260   0.8330  -2.6364   C.2       1 RES1   0.0000
     6 C6      -1.2035   1.8448  -2.3498   C.2       1 RES1   0.0000
     7 C7      -0.6562   2.6128  -3.3770   C.2       1 RES1   0.0000
     8 C8      -1.0297   2.3801  -4.7029   C.2       1 RES1   0.0000
     9 C9      -0.4909   3.1310  -5.7501   C.2       1 RES1   0.0000
    10 C10      0.4530   4.1286  -5.5196   C.2       1 RES1   0.0000
    11 C11      0.9531   4.8306  -6.6112   C.2       1 RES1   0.0000
    12 N12      0.5324   4.5452  -7.8349   N.2       1 RES1   0.0000
    13 C13     -0.3776   3.5766  -8.0538   C.2       1 RES1   0.0000
    14 N14     -0.7627   3.3346  -9.3161   N.2       1 RES1   0.0000
    15 C15     -1.6150   2.3832  -9.7356   C.2       1 RES1   0.0000
    16 C16     -1.5330   1.1265  -9.1378   C.2       1 RES1   0.0000
    17 C17     -2.3856   0.0948  -9.5234   C.2       1 RES1   0.0000
    18 C18     -3.3434   0.3038 -10.5179   C.2       1 RES1   0.0000
    19 N19     -4.2098  -0.7491 -10.8969   N.pl3     1 RES1   0.0000
    20 C20     -4.4285  -1.1454 -12.2950   C.3       1 RES1   0.0000
    21 C21     -4.6571  -2.6405 -12.3567   C.3       1 RES1   0.0000
    22 O22     -5.7639  -3.0200 -11.5354   O.3       1 RES1   0.0000
    23 C23     -5.5225  -2.6550 -10.1824   C.3       1 RES1   0.0000
    24 C24     -5.3140  -1.1556 -10.0290   C.3       1 RES1   0.0000
    25 C25     -3.4327   1.5643 -11.1178   C.2       1 RES1   0.0000
    26 C26     -2.5776   2.5952 -10.7278   C.2       1 RES1   0.0000
    27 N27     -0.8785   2.8823  -7.0138   N.2       1 RES1   0.0000
    28 C28     -1.9486   1.3681  -4.9877   C.2       1 RES1   0.0000
    29 C29     -2.4942   0.6004  -3.9609   C.2       1 RES1   0.0000
@<TRIPOS>BOND
     1     1     2    1
     2     2     3    2
     3     2     4   am
     4     4     5    1
     5     5     6    2
     6     6     7    1
     7     7     8    2
     8     8     9    1
     9     9    10    2
    10    10    11    1
    11    11    12    2
    12    12    13    1
    13    13    14    1
    14    14    15    1
    15    15    16    2
    16    16    17    1
    17    17    18    2
    18    18    19    1
    19    19    20    1
    20    20    21    1
    21    21    22    1
    22    22    23    1
    23    23    24    1
    24    18    25    1
    25    25    26    2
    26    13    27    2
    27     8    28    1
    28    28    29    2
    29    29     5    1
    30    27     9    1
    31    26    15    1
    32    24    19    1
@<TRIPOS>SUBSTRUCTURE
     1 RES1        1 GROUP             0 ****  ****    0  
@<TRIPOS>MOLECULE
ligand_22
    29    32     1     0     0
SMALL
NO_CHARGES
****
Generated from the CSD

@<TRIPOS>ATOM
     1 C1      -3.8095  -1.3199  -0.1507   C.3       1 RES1   0.0000
     2 C2      -3.4604  -0.7585  -1.5291   C.2       1 RES1   0.0000
     3 O3      -3.9813  -1.2297  -2.5396   O.2       1 RES1   0.0000
     4 N4      -2.5752   0.2440  -1.5048   N.am      1 RES1   0.0000
     5 C5      -2.0975   0.9122  -2.5650   C.2       1 RES1   0.0000
     6 C6      -2.4827   0.6292  -3.8797   C.2       1 RES1   0.0000
     7 C7      -1.9540   1.3603  -4.9430   C.2       1 RES1   0.0000
     8 C8      -1.0297   2.3801  -4.7029   C.2       1 RES1   0.0000
     9 C9      -0.4909   3.1310  -5.7501   C.2       1 RES1   0.0000
    10 C10      0.4530   4.1286  -5.5196   C.2       1 RES1   0.0000
    11 C11      0.9531   4.8306  -6.6112   C.2       1 RES1   0.0000
    12 N12      0.5324   4.5452  -7.8349   N.2       1 RES1   0.0000
    13 C13     -0.3776   3.5766  -8.0538   C.2       1 RES1   0.0000
    14 N14     -0.7627   3.3346  -9.3161   N.2       1 RES1   0.0000
    15 C15     -1.6151   2.3832  -9.7356   C.2       1 RES1   0.0000
    16 C16     -1.5332   1.1265  -9.1378   C.2       1 RES1   0.0000
    17 C17     -2.3858   0.0949  -9.5234   C.2       1 RES1   0.0000
    18 C18     -3.3436   0.3040 -10.5179   C.2       1 RES1   0.0000
    19 N19     -4.2101  -0.7489 -10.8968   N.pl3     1 RES1   0.0000
    20 C20     -4.4289  -1.1452 -12.2949   C.3       1 RES1   0.0000
    21 C21     -4.6576  -2.6402 -12.3567   C.3       1 RES1   0.0000
    22 O22     -5.7644  -3.0197 -11.5353   O.3       1 RES1   0.0000
    23 C23     -5.5229  -2.6547 -10.1824   C.3       1 RES1   0.0000
    24 C24     -5.3143  -1.1554 -10.0290   C.3       1 RES1   0.0000
    25 C25     -3.4329   1.5645 -11.1178   C.2       1 RES1   0.0000
    26 C26     -2.5777   2.5954 -10.7277   C.2       1 RES1   0.0000
    27 N27     -0.8785   2.8823  -7.0138   N.2       1 RES1   0.0000
    28 C28     -0.6483   2.6630  -3.3899   C.2       1 RES1   0.0000
    29 C29     -1.1777   1.9328  -2.3280   C.2       1 RES1   0.0000
@<TRIPOS>BOND
     1     1     2    1
     2     2     3    2
     3     2     4   am
     4     4     5    1
     5     5     6    2
     6     6     7    1
     7     7     8    2
     8     8     9    1
     9     9    10    2
    10    10    11    1
    11    11    12    2
    12    12    13    1
    13    13    14    1
    14    14    15    1
    15    15    16    2
    16    16    17    1
    17    17    18    2
    18    18    19    1
    19    19    20    1
    20    20    21    1
    21    21    22    1
    22    22    23    1
    23    23    24    1
    24    18    25    1
    25    25    26    2
    26    13    27    2
    27     8    28    1
    28    28    29    2
    29    29     5    1
    30    27     9    1
    31    26    15    1
    32    24    19    1
@<TRIPOS>SUBSTRUCTURE
     1 RES1        1 GROUP             0 ****  ****    0  
@<TRIPOS>MOLECULE
ligand_23
    29    32     1     0     0
SMALL
NO_CHARGES
****
Generated from the CSD

@<TRIPOS>ATOM
     1 C1      -3.4021  -4.8605 -18.0781   C.3       1 RES1   0.0000
     2 C2      -4.0254  -5.4972 -16.8359   C.2       1 RES1   0.0000
     3 O3      -3.4274  -5.4712 -15.7607   O.2       1 RES1   0.0000
     4 N4      -5.2243  -6.0516 -17.0468   N.am      1 RES1   0.0000
     5 C5      -5.9650  -6.7163 -16.1478   C.2       1 RES1   0.0000
     6 C6      -7.3620  -6.6516 -16.1154   C.2       1 RES1   0.0000
     7 C7      -8.0798  -7.3678 -15.1582   C.2       1 RES1   0.0000
     8 C8      -7.4071  -8.1535 -14.2190   C.2       1 RES1   0.0000
     9 C9      -8.1035  -8.8854 -13.2545   C.2       1 RES1   0.0000
    10 C10     -9.4949  -8.8774 -13.1993   C.2       1 RES1   0.0000
    11 C11    -10.1219  -9.6370 -12.2174   C.2       1 RES1   0.0000
    12 N12     -9.3994 -10.3466 -11.3627   N.2       1 RES1   0.0000
    13 C13     -8.0539 -10.3549 -11.4224   C.2       1 RES1   0.0000
    14 N14     -7.3788 -11.0942 -10.5291   N.2       1 RES1   0.0000
    15 C15     -6.0445 -11.1708 -10.3829   C.2       1 RES1   0.0000
    16 C16     -5.3004 -10.0084 -10.5794   C.2       1 RES1   0.0000
    17 C17     -3.9142 -10.0159 -10.4435   C.2       1 RES1   0.0000
    18 C18     -3.2437 -11.1927 -10.1036   C.2       1 RES1   0.0000
    19 N19     -1.8357 -11.1875  -9.9606   N.3       1 RES1   0.0000
    20 C20     -1.2920  -9.8744 -10.2941   C.3       1 RES1   0.0000
    21 C21      0.2793  -9.8600 -10.2280   C.3       1 RES1   0.0000
    22 O22      0.7684 -10.8706 -11.1089   O.3       1 RES1   0.0000
    23 C23      0.3129 -12.1290 -10.6912   C.3       1 RES1   0.0000
    24 C24     -1.2120 -12.2040 -10.8089   C.3       1 RES1   0.0000
    25 C25     -3.9861 -12.3608  -9.9010   C.2       1 RES1   0.0000
    26 C26     -5.3745 -12.3487 -10.0369   C.2       1 RES1   0.0000
    27 N27     -7.4217  -9.6271 -12.3633   N.2       1 RES1   0.0000
    28 C28     -6.0129  -8.2192 -14.2543   C.2       1 RES1   0.0000
    29 C29     -5.2964  -7.5041 -15.2117   C.2       1 RES1   0.0000
@<TRIPOS>BOND
     1     1     2    1
     2     2     3    2
     3     2     4   am
     4     4     5    1
     5     5     6    2
     6     6     7    1
     7     7     8    2
     8     8     9    1
     9     9    10    2
    10    10    11    1
    11    11    12    2
    12    12    13    1
    13    13    14    1
    14    14    15    1
    15    15    16    2
    16    16    17    1
    17    17    18    2
    18    18    19    1
    19    19    20    1
    20    20    21    1
    21    21    22    1
    22    22    23    1
    23    23    24    1
    24    18    25    1
    25    25    26    2
    26    13    27    2
    27     8    28    1
    28    28    29    2
    29    29     5    1
    30    27     9    1
    31    26    15    1
    32    24    19    1
@<TRIPOS>SUBSTRUCTURE
     1 RES1        1 GROUP             0 ****  ****    0  
@<TRIPOS>MOLECULE
ligand_24
    29    32     1     0     0
SMALL
NO_CHARGES
****
Generated from the CSD

@<TRIPOS>ATOM
     1 C1       4.4627   5.8058  19.6354   C.3       1 RES1   0.0000
     2 C2       5.5049   6.1422  18.5689   C.2       1 RES1   0.0000
     3 O3       6.5172   5.4520  18.4531   O.2       1 RES1   0.0000
     4 N4       5.2020   7.2111  17.8240   N.am      1 RES1   0.0000
     5 C5       5.9461   7.7327  16.8377   C.2       1 RES1   0.0000
     6 C6       7.3445   7.6970  16.8387   C.2       1 RES1   0.0000
     7 C7       8.0656   8.2538  15.7830   C.2       1 RES1   0.0000
     8 C8       7.3953   8.8572  14.7161   C.2       1 RES1   0.0000
     9 C9       8.0945   9.4159  13.6438   C.2       1 RES1   0.0000
    10 C10      9.4853   9.3799  13.5842   C.2       1 RES1   0.0000
    11 C11     10.1147   9.9484  12.4818   C.2       1 RES1   0.0000
    12 N12      9.3948  10.5065  11.5194   N.2       1 RES1   0.0000
    13 C13      8.0496  10.5352  11.5790   C.2       1 RES1   0.0000
    14 N14      7.3772  11.1141  10.5725   N.2       1 RES1   0.0000
    15 C15      6.0428  11.1958  10.4299   C.2       1 RES1   0.0000
    16 C16      5.2818  10.0800  10.7753   C.2       1 RES1   0.0000
    17 C17      3.8945  10.0958  10.6532   C.2       1 RES1   0.0000
    18 C18      3.2391  11.2359  10.1834   C.2       1 RES1   0.0000
    19 N19      1.8284  11.2438  10.0704   N.3       1 RES1   0.0000
    20 C20      1.2707   9.9756  10.5303   C.3       1 RES1   0.0000
    21 C21     -0.3017   9.9842  10.4981   C.3       1 RES1   0.0000
    22 O22     -0.7545  11.0776  11.2955   O.3       1 RES1   0.0000
    23 C23     -0.2878  12.2855  10.7583   C.3       1 RES1   0.0000
    24 C24      1.2404  12.3427  10.8376   C.3       1 RES1   0.0000
    25 C25      3.9978  12.3597   9.8396   C.2       1 RES1   0.0000
    26 C26      5.3871  12.3402   9.9646   C.2       1 RES1   0.0000
    27 N27      7.4153   9.9924  12.6362   N.2       1 RES1   0.0000
    28 C28      5.9994   8.8896  14.7152   C.2       1 RES1   0.0000
    29 C29      5.2795   8.3323  15.7699   C.2       1 RES1   0.0000
@<TRIPOS>BOND
     1     1     2    1
     2     2     3    2
     3     2     4   am
     4     4     5    1
     5     5     6    2
     6     6     7    1
     7     7     8    2
     8     8     9    1
     9     9    10    2
    10    10    11    1
    11    11    12    2
    12    12    13    1
    13    13    14    1
    14    14    15    1
    15    15    16    2
    16    16    17    1
    17    17    18    2
    18    18    19    1
    19    19    20    1
    20    20    21    1
    21    21    22    1
    22    22    23    1
    23    23    24    1
    24    18    25    1
    25    25    26    2
    26    13    27    2
    27     8    28    1
    28    28    29    2
    29    29     5    1
    30    27     9    1
    31    26    15    1
    32    24    19    1
@<TRIPOS>SUBSTRUCTURE
     1 RES1        1 GROUP             0 ****  ****    0  
@<TRIPOS>MOLECULE
ligand_25
    29    32     1     0     0
SMALL
NO_CHARGES
****
Generated from the CSD

@<TRIPOS>ATOM
     1 C1       3.8509   6.7340  19.7201   C.3       1 RES1   0.0000
     2 C2       4.2840   7.5751  18.5194   C.2       1 RES1   0.0000
     3 O3       3.5862   8.5140  18.1372   O.2       1 RES1   0.0000
     4 N4       5.4409   7.1905  17.9690   N.am      1 RES1   0.0000
     5 C5       6.0369   7.7388  16.9000   C.2       1 RES1   0.0000
     6 C6       5.3241   8.3120  15.8417   C.2       1 RES1   0.0000
     7 C7       5.9989   8.8704  14.7566   C.2       1 RES1   0.0000
     8 C8       7.3953   8.8572  14.7161   C.2       1 RES1   0.0000
     9 C9       8.0945   9.4159  13.6438   C.2       1 RES1   0.0000
    10 C10      9.4853   9.3799  13.5842   C.2       1 RES1   0.0000
    11 C11     10.1147   9.9484  12.4818   C.2       1 RES1   0.0000
    12 N12      9.3948  10.5065  11.5194   N.2       1 RES1   0.0000
    13 C13      8.0496  10.5352  11.5790   C.2       1 RES1   0.0000
    14 N14      7.3772  11.1141  10.5725   N.2       1 RES1   0.0000
    15 C15      6.0428  11.1953  10.4296   C.2       1 RES1   0.0000
    16 C16      5.2822  10.0793  10.7750   C.2       1 RES1   0.0000
    17 C17      3.8948  10.0945  10.6526   C.2       1 RES1   0.0000
    18 C18      3.2392  11.2344  10.1825   C.2       1 RES1   0.0000
    19 N19      1.8285  11.2417  10.0692   N.3       1 RES1   0.0000
    20 C20      1.2711   9.9735  10.5296   C.3       1 RES1   0.0000
    21 C21     -0.3013   9.9815  10.4970   C.3       1 RES1   0.0000
    22 O22     -0.7547  11.0751  11.2938   O.3       1 RES1   0.0000
    23 C23     -0.2882  12.2830  10.7562   C.3       1 RES1   0.0000
    24 C24      1.2399  12.3407  10.8358   C.3       1 RES1   0.0000
    25 C25      3.9975  12.3584   9.8387   C.2       1 RES1   0.0000
    26 C26      5.3868  12.3394   9.9640   C.2       1 RES1   0.0000
    27 N27      7.4153   9.9924  12.6362   N.2       1 RES1   0.0000
    28 C28      8.1054   8.2871  15.7745   C.2       1 RES1   0.0000
    29 C29      7.4305   7.7302  16.8588   C.2       1 RES1   0.0000
@<TRIPOS>BOND
     1     1     2    1
     2     2     3    2
     3     2     4   am
     4     4     5    1
     5     5     6    2
     6     6     7    1
     7     7     8    2
     8     8     9    1
     9     9    10    2
    10    10    11    1
    11    11    12    2
    12    12    13    1
    13    13    14    1
    14    14    15    1
    15    15    16    2
    16    16    17    1
    17    17    18    2
    18    18    19    1
    19    19    20    1
    20    20    21    1
    21    21    22    1
    22    22    23    1
    23    23    24    1
    24    18    25    1
    25    25    26    2
    26    13    27    2
    27     8    28    1
    28    28    29    2
    29    29     5    1
    30    27     9    1
    31    26    15    1
    32    24    19    1
@<TRIPOS>SUBSTRUCTURE
     1 RES1        1 GROUP             0 ****  ****    0  
@<TRIPOS>MOLECULE
ligand_26
    29    32     1     0     0
SMALL
NO_CHARGES
****
Generated from the CSD

@<TRIPOS>ATOM
     1 C1       1.6375  -6.5445  19.6951   C.3       1 RES1   0.0000
     2 C2       1.2620  -6.8335  18.2418   C.2       1 RES1   0.0000
     3 O3       1.0874  -7.9924  17.8662   O.2       1 RES1   0.0000
     4 N4       1.1535  -5.7423  17.4759   N.am      1 RES1   0.0000
     5 C5       0.8195  -5.7090  16.1775   C.2       1 RES1   0.0000
     6 C6      -0.0565  -6.6298  15.5930   C.2       1 RES1   0.0000
     7 C7      -0.3694  -6.5436  14.2369   C.2       1 RES1   0.0000
     8 C8       0.1949  -5.5375  13.4487   C.2       1 RES1   0.0000
     9 C9      -0.1078  -5.4259  12.0898   C.2       1 RES1   0.0000
    10 C10     -1.0031  -6.2940  11.4701   C.2       1 RES1   0.0000
    11 C11     -1.2638  -6.1184  10.1152   C.2       1 RES1   0.0000
    12 N12     -0.6675  -5.1438   9.4439   N.2       1 RES1   0.0000
    13 C13      0.1946  -4.3037  10.0483   C.2       1 RES1   0.0000
    14 N14      0.7654  -3.3364   9.3144   N.2       1 RES1   0.0000
    15 C15      1.6950  -2.4533   9.7189   C.2       1 RES1   0.0000
    16 C16      1.9912  -1.3863   8.8720   C.2       1 RES1   0.0000
    17 C17      2.9431  -0.4341   9.2284   C.2       1 RES1   0.0000
    18 C18      3.6179  -0.5311  10.4472   C.2       1 RES1   0.0000
    19 N19      4.5779   0.4461  10.8029   N.pl3     1 RES1   0.0000
    20 C20      4.8905   0.7951  12.1958   C.3       1 RES1   0.0000
    21 C21      5.2338   2.2673  12.2731   C.3       1 RES1   0.0000
    22 O22      6.3268   2.5808  11.4066   O.3       1 RES1   0.0000
    23 C23      5.9961   2.2637  10.0604   C.3       1 RES1   0.0000
    24 C24      5.6682   0.7876   9.8906   C.3       1 RES1   0.0000
    25 C25      3.3212  -1.5974  11.3025   C.2       1 RES1   0.0000
    26 C26      2.3661  -2.5482  10.9422   C.2       1 RES1   0.0000
    27 N27      0.4652  -4.4526  11.3594   N.2       1 RES1   0.0000
    28 C28      1.0670  -4.6176  14.0342   C.2       1 RES1   0.0000
    29 C29      1.3784  -4.7037  15.3895   C.2       1 RES1   0.0000
@<TRIPOS>BOND
     1     1     2    1
     2     2     3    2
     3     2     4   am
     4     4     5    1
     5     5     6    2
     6     6     7    1
     7     7     8    2
     8     8     9    1
     9     9    10    2
    10    10    11    1
    11    11    12    2
    12    12    13    1
    13    13    14    1
    14    14    15    1
    15    15    16    2
    16    16    17    1
    17    17    18    2
    18    18    19    1
    19    19    20    1
    20    20    21    1
    21    21    22    1
    22    22    23    1
    23    23    24    1
    24    18    25    1
    25    25    26    2
    26    13    27    2
    27     8    28    1
    28    28    29    2
    29    29     5    1
    30    27     9    1
    31    26    15    1
    32    24    19    1
@<TRIPOS>SUBSTRUCTURE
     1 RES1        1 GROUP             0 ****  ****    0  
@<TRIPOS>MOLECULE
ligand_27
    29    32     1     0     0
SMALL
NO_CHARGES
****
Generated from the CSD

@<TRIPOS>ATOM
     1 C1       9.2003  -4.9311   2.6984   C.3       1 RES1   0.0000
     2 C2       8.1715  -5.0725   3.8202   C.2       1 RES1   0.0000
     3 O3       8.5323  -5.3799   4.9559   O.2       1 RES1   0.0000
     4 N4       6.9106  -4.8369   3.4410   N.am      1 RES1   0.0000
     5 C5       5.8223  -4.8729   4.2238   C.2       1 RES1   0.0000
     6 C6       5.8468  -4.5233   5.5781   C.2       1 RES1   0.0000
     7 C7       4.6817  -4.5774   6.3423   C.2       1 RES1   0.0000
     8 C8       3.4792  -4.9869   5.7609   C.2       1 RES1   0.0000
     9 C9       2.2974  -5.0430   6.5032   C.2       1 RES1   0.0000
    10 C10      1.2998  -5.9705   6.2140   C.2       1 RES1   0.0000
    11 C11      0.1529  -5.9749   7.0009   C.2       1 RES1   0.0000
    12 N12      0.0274  -5.1118   7.9985   N.2       1 RES1   0.0000
    13 C13      0.9967  -4.2193   8.2776   C.2       1 RES1   0.0000
    14 N14      0.8105  -3.3722   9.3013   N.2       1 RES1   0.0000
    15 C15      1.6223  -2.3709   9.6832   C.2       1 RES1   0.0000
    16 C16      2.2811  -1.6514   8.6874   C.2       1 RES1   0.0000
    17 C17      3.1363  -0.6010   9.0120   C.2       1 RES1   0.0000
    18 C18      3.3467  -0.2473  10.3464   C.2       1 RES1   0.0000
    19 N19      4.2119   0.8265  10.6647   N.pl3     1 RES1   0.0000
    20 C20      4.4175   1.3128  12.0362   C.3       1 RES1   0.0000
    21 C21      4.6492   2.8082  12.0027   C.3       1 RES1   0.0000
    22 O22      5.7651   3.1314  11.1697   O.3       1 RES1   0.0000
    23 C23      5.5365   2.6794   9.8410   C.3       1 RES1   0.0000
    24 C24      5.3258   1.1736   9.7835   C.3       1 RES1   0.0000
    25 C25      2.6846  -0.9633  11.3492   C.2       1 RES1   0.0000
    26 C26      1.8279  -2.0139  11.0198   C.2       1 RES1   0.0000
    27 N27      2.1172  -4.1933   7.5302   N.2       1 RES1   0.0000
    28 C28      3.4557  -5.3329   4.4084   C.2       1 RES1   0.0000
    29 C29      4.6201  -5.2776   3.6452   C.2       1 RES1   0.0000
@<TRIPOS>BOND
     1     1     2    1
     2     2     3    2
     3     2     4   am
     4     4     5    1
     5     5     6    2
     6     6     7    1
     7     7     8    2
     8     8     9    1
     9     9    10    2
    10    10    11    1
    11    11    12    2
    12    12    13    1
    13    13    14    1
    14    14    15    1
    15    15    16    2
    16    16    17    1
    17    17    18    2
    18    18    19    1
    19    19    20    1
    20    20    21    1
    21    21    22    1
    22    22    23    1
    23    23    24    1
    24    18    25    1
    25    25    26    2
    26    13    27    2
    27     8    28    1
    28    28    29    2
    29    29     5    1
    30    27     9    1
    31    26    15    1
    32    24    19    1
@<TRIPOS>SUBSTRUCTURE
     1 RES1        1 GROUP             0 ****  ****    0  
@<TRIPOS>MOLECULE
ligand_28
    29    32     1     0     0
SMALL
NO_CHARGES
****
Generated from the CSD

@<TRIPOS>ATOM
     1 C1       8.7076  -4.5222   1.9450   C.3       1 RES1   0.0000
     2 C2       7.2448  -4.4992   2.3883   C.2       1 RES1   0.0000
     3 O3       6.3582  -4.2168   1.5829   O.2       1 RES1   0.0000
     4 N4       7.0575  -4.8036   3.6773   N.am      1 RES1   0.0000
     5 C5       5.8810  -4.8753   4.3172   C.2       1 RES1   0.0000
     6 C6       4.6974  -5.2800   3.6910   C.2       1 RES1   0.0000
     7 C7       3.5033  -5.3380   4.4089   C.2       1 RES1   0.0000
     8 C8       3.4792  -4.9869   5.7609   C.2       1 RES1   0.0000
     9 C9       2.2974  -5.0430   6.5032   C.2       1 RES1   0.0000
    10 C10      1.2998  -5.9705   6.2140   C.2       1 RES1   0.0000
    11 C11      0.1529  -5.9749   7.0009   C.2       1 RES1   0.0000
    12 N12      0.0274  -5.1118   7.9985   N.2       1 RES1   0.0000
    13 C13      0.9967  -4.2193   8.2776   C.2       1 RES1   0.0000
    14 N14      0.8105  -3.3722   9.3013   N.2       1 RES1   0.0000
    15 C15      1.6223  -2.3709   9.6832   C.2       1 RES1   0.0000
    16 C16      2.2811  -1.6514   8.6874   C.2       1 RES1   0.0000
    17 C17      3.1363  -0.6010   9.0120   C.2       1 RES1   0.0000
    18 C18      3.3467  -0.2473  10.3464   C.2       1 RES1   0.0000
    19 N19      4.2119   0.8265  10.6647   N.pl3     1 RES1   0.0000
    20 C20      4.4175   1.3128  12.0362   C.3       1 RES1   0.0000
    21 C21      4.6492   2.8082  12.0027   C.3       1 RES1   0.0000
    22 O22      5.7651   3.1314  11.1697   O.3       1 RES1   0.0000
    23 C23      5.5365   2.6794   9.8410   C.3       1 RES1   0.0000
    24 C24      5.3258   1.1736   9.7835   C.3       1 RES1   0.0000
    25 C25      2.6846  -0.9633  11.3492   C.2       1 RES1   0.0000
    26 C26      1.8279  -2.0139  11.0198   C.2       1 RES1   0.0000
    27 N27      2.1172  -4.1933   7.5302   N.2       1 RES1   0.0000
    28 C28      4.6620  -4.5857   6.3851   C.2       1 RES1   0.0000
    29 C29      5.8549  -4.5290   5.6675   C.2       1 RES1   0.0000
@<TRIPOS>BOND
     1     1     2    1
     2     2     3    2
     3     2     4   am
     4     4     5    1
     5     5     6    2
     6     6     7    1
     7     7     8    2
     8     8     9    1
     9     9    10    2
    10    10    11    1
    11    11    12    2
    12    12    13    1
    13    13    14    1
    14    14    15    1
    15    15    16    2
    16    16    17    1
    17    17    18    2
    18    18    19    1
    19    19    20    1
    20    20    21    1
    21    21    22    1
    22    22    23    1
    23    23    24    1
    24    18    25    1
    25    25    26    2
    26    13    27    2
    27     8    28    1
    28    28    29    2
    29    29     5    1
    30    27     9    1
    31    26    15    1
    32    24    19    1
@<TRIPOS>SUBSTRUCTURE
     1 RES1        1 GROUP             0 ****  ****    0  
@<TRIPOS>MOLECULE
ligand_29
    29    32     1     0     0
SMALL
NO_CHARGES
****
Generated from the CSD

@<TRIPOS>ATOM
     1 C1      -7.1145 -10.1470   6.1111   C.3       1 RES1   0.0000
     2 C2      -6.3645  -8.8355   6.3440   C.2       1 RES1   0.0000
     3 O3      -6.9756  -7.7675   6.3610   O.2       1 RES1   0.0000
     4 N4      -5.0460  -8.9808   6.5159   N.am      1 RES1   0.0000
     5 C5      -4.1507  -7.9971   6.6872   C.2       1 RES1   0.0000
     6 C6      -3.0352  -8.1200   7.5223   C.2       1 RES1   0.0000
     7 C7      -2.1358  -7.0631   7.6588   C.2       1 RES1   0.0000
     8 C8      -2.3452  -5.8689   6.9647   C.2       1 RES1   0.0000
     9 C9      -1.4555  -4.7984   7.0794   C.2       1 RES1   0.0000
    10 C10     -1.2640  -3.8964   6.0360   C.2       1 RES1   0.0000
    11 C11     -0.3686  -2.8488   6.2236   C.2       1 RES1   0.0000
    12 N12      0.2786  -2.7247   7.3733   N.2       1 RES1   0.0000
    13 C13      0.0870  -3.5970   8.3816   C.2       1 RES1   0.0000
    14 N14      0.7716  -3.4170   9.5214   N.2       1 RES1   0.0000
    15 C15      1.6952  -2.4727   9.7721   C.2       1 RES1   0.0000
    16 C16      1.7671  -1.9601  11.0665   C.2       1 RES1   0.0000
    17 C17      2.7006  -0.9803  11.3961   C.2       1 RES1   0.0000
    18 C18      3.5863  -0.4949  10.4318   C.2       1 RES1   0.0000
    19 N19      4.5360   0.4952  10.7793   N.pl3     1 RES1   0.0000
    20 C20      4.5545   1.1666  12.0864   C.3       1 RES1   0.0000
    21 C21      5.0237   2.5941  11.9040   C.3       1 RES1   0.0000
    22 O22      6.3136   2.6308  11.2887   O.3       1 RES1   0.0000
    23 C23      6.2701   2.0027  10.0137   C.3       1 RES1   0.0000
    24 C24      5.8367   0.5476  10.1137   C.3       1 RES1   0.0000
    25 C25      3.5212  -1.0092   9.1326   C.2       1 RES1   0.0000
    26 C26      2.5856  -1.9913   8.8069   C.2       1 RES1   0.0000
    27 N27     -0.7740  -4.6211   8.2254   N.2       1 RES1   0.0000
    28 C28     -3.4577  -5.7488   6.1295   C.2       1 RES1   0.0000
    29 C29     -4.3553  -6.8055   5.9927   C.2       1 RES1   0.0000
@<TRIPOS>BOND
     1     1     2    1
     2     2     3    2
     3     2     4   am
     4     4     5    1
     5     5     6    2
     6     6     7    1
     7     7     8    2
     8     8     9    1
     9     9    10    2
    10    10    11    1
    11    11    12    2
    12    12    13    1
    13    13    14    1
    14    14    15    1
    15    15    16    2
    16    16    17    1
    17    17    18    2
    18    18    19    1
    19    19    20    1
    20    20    21    1
    21    21    22    1
    22    22    23    1
    23    23    24    1
    24    18    25    1
    25    25    26    2
    26    13    27    2
    27     8    28    1
    28    28    29    2
    29    29     5    1
    30    27     9    1
    31    26    15    1
    32    24    19    1
@<TRIPOS>SUBSTRUCTURE
     1 RES1        1 GROUP             0 ****  ****    0  
@<TRIPOS>MOLECULE
ligand_30
    29    32     1     0     0
SMALL
NO_CHARGES
****
Generated from the CSD

@<TRIPOS>ATOM
     1 C1      -6.6903   3.1203  13.6702   C.3       1 RES1   0.0000
     2 C2      -6.3093   1.9409  12.7754   C.2       1 RES1   0.0000
     3 O3      -7.1217   1.4871  11.9700   O.2       1 RES1   0.0000
     4 N4      -5.0641   1.4900  12.9629   N.am      1 RES1   0.0000
     5 C5      -4.4845   0.4604  12.3284   C.2       1 RES1   0.0000
     6 C6      -5.1961  -0.6613  11.8899   C.2       1 RES1   0.0000
     7 C7      -4.5395  -1.7010  11.2323   C.2       1 RES1   0.0000
     8 C8      -3.1619  -1.6322  11.0103   C.2       1 RES1   0.0000
     9 C9      -2.4824  -2.6572  10.3483   C.2       1 RES1   0.0000
    10 C10     -3.1515  -3.7761   9.8589   C.2       1 RES1   0.0000
    11 C11     -2.4119  -4.7539   9.2019   C.2       1 RES1   0.0000
    12 N12     -1.1032  -4.6098   9.0525   N.2       1 RES1   0.0000
    13 C13     -0.4606  -3.5238   9.5237   C.2       1 RES1   0.0000
    14 N14      0.8656  -3.4359   9.3402   N.2       1 RES1   0.0000
    15 C15      1.6850  -2.4717   9.7946   C.2       1 RES1   0.0000
    16 C16      2.9895  -2.4415   9.3040   C.2       1 RES1   0.0000
    17 C17      3.8912  -1.4697   9.7311   C.2       1 RES1   0.0000
    18 C18      3.5009  -0.5029  10.6602   C.2       1 RES1   0.0000
    19 N19      4.4229   0.4846  11.0817   N.pl3     1 RES1   0.0000
    20 C20      4.6758   0.7960  12.4955   C.3       1 RES1   0.0000
    21 C21      4.9796   2.2726  12.6314   C.3       1 RES1   0.0000
    22 O22      6.0954   2.6393  11.8165   O.3       1 RES1   0.0000
    23 C23      5.8219   2.3579  10.4497   C.3       1 RES1   0.0000
    24 C24      5.5370   0.8808  10.2217   C.3       1 RES1   0.0000
    25 C25      2.1917  -0.5262  11.1523   C.2       1 RES1   0.0000
    26 C26      1.2914  -1.5005  10.7209   C.2       1 RES1   0.0000
    27 N27     -1.1533  -2.5626  10.1646   N.2       1 RES1   0.0000
    28 C28     -2.4535  -0.5107  11.4463   C.2       1 RES1   0.0000
    29 C29     -3.1104   0.5282  12.1024   C.2       1 RES1   0.0000
@<TRIPOS>BOND
     1     1     2    1
     2     2     3    2
     3     2     4   am
     4     4     5    1
     5     5     6    2
     6     6     7    1
     7     7     8    2
     8     8     9    1
     9     9    10    2
    10    10    11    1
    11    11    12    2
    12    12    13    1
    13    13    14    1
    14    14    15    1
    15    15    16    2
    16    16    17    1
    17    17    18    2
    18    18    19    1
    19    19    20    1
    20    20    21    1
    21    21    22    1
    22    22    23    1
    23    23    24    1
    24    18    25    1
    25    25    26    2
    26    13    27    2
    27     8    28    1
    28    28    29    2
    29    29     5    1
    30    27     9    1
    31    26    15    1
    32    24    19    1
@<TRIPOS>SUBSTRUCTURE
     1 RES1        1 GROUP             0 ****  ****    0  
@<TRIPOS>MOLECULE
ligand_31
    29    32     1     0     0
SMALL
NO_CHARGES
****
Generated from the CSD

@<TRIPOS>ATOM
     1 C1      -5.9231   3.1064  14.4790   C.3       1 RES1   0.0000
     2 C2      -4.8686   2.1214  13.9745   C.2       1 RES1   0.0000
     3 O3      -3.7442   2.1082  14.4747   O.2       1 RES1   0.0000
     4 N4      -5.2900   1.3259  12.9852   N.am      1 RES1   0.0000
     5 C5      -4.5674   0.3911  12.3507   C.2       1 RES1   0.0000
     6 C6      -3.1900   0.5089  12.1369   C.2       1 RES1   0.0000
     7 C7      -2.4901  -0.4978  11.4727   C.2       1 RES1   0.0000
     8 C8      -3.1619  -1.6322  11.0103   C.2       1 RES1   0.0000
     9 C9      -2.4824  -2.6572  10.3483   C.2       1 RES1   0.0000
    10 C10     -3.1515  -3.7761   9.8589   C.2       1 RES1   0.0000
    11 C11     -2.4119  -4.7539   9.2019   C.2       1 RES1   0.0000
    12 N12     -1.1032  -4.6098   9.0525   N.2       1 RES1   0.0000
    13 C13     -0.4606  -3.5238   9.5237   C.2       1 RES1   0.0000
    14 N14      0.8656  -3.4359   9.3402   N.2       1 RES1   0.0000
    15 C15      1.6828  -2.4643   9.7826   C.2       1 RES1   0.0000
    16 C16      2.9932  -2.4494   9.3071   C.2       1 RES1   0.0000
    17 C17      3.8931  -1.4711   9.7231   C.2       1 RES1   0.0000
    18 C18      3.4951  -0.4823  10.6252   C.2       1 RES1   0.0000
    19 N19      4.4153   0.5116  11.0355   N.pl3     1 RES1   0.0000
    20 C20      4.6524   0.8541  12.4448   C.3       1 RES1   0.0000
    21 C21      4.9597   2.3324  12.5510   C.3       1 RES1   0.0000
    22 O22      6.0864   2.6770  11.7415   O.3       1 RES1   0.0000
    23 C23      5.8284   2.3657  10.3782   C.3       1 RES1   0.0000
    24 C24      5.5410   0.8847  10.1802   C.3       1 RES1   0.0000
    25 C25      2.1800  -0.4902  11.1019   C.2       1 RES1   0.0000
    26 C26      1.2815  -1.4711  10.6818   C.2       1 RES1   0.0000
    27 N27     -1.1533  -2.5626  10.1646   N.2       1 RES1   0.0000
    28 C28     -4.5362  -1.7495  11.2268   C.2       1 RES1   0.0000
    29 C29     -5.2347  -0.7437  11.8915   C.2       1 RES1   0.0000
@<TRIPOS>BOND
     1     1     2    1
     2     2     3    2
     3     2     4   am
     4     4     5    1
     5     5     6    2
     6     6     7    1
     7     7     8    2
     8     8     9    1
     9     9    10    2
    10    10    11    1
    11    11    12    2
    12    12    13    1
    13    13    14    1
    14    14    15    1
    15    15    16    2
    16    16    17    1
    17    17    18    2
    18    18    19    1
    19    19    20    1
    20    20    21    1
    21    21    22    1
    22    22    23    1
    23    23    24    1
    24    18    25    1
    25    25    26    2
    26    13    27    2
    27     8    28    1
    28    28    29    2
    29    29     5    1
    30    27     9    1
    31    26    15    1
    32    24    19    1
@<TRIPOS>SUBSTRUCTURE
     1 RES1        1 GROUP             0 ****  ****    0  
@<TRIPOS>MOLECULE
ligand_32
    29    32     1     0     0
SMALL
NO_CHARGES
****
Generated from the CSD

@<TRIPOS>ATOM
     1 C1      -1.4163   3.6551   1.7674   C.3       1 RES1   0.0000
     2 C2      -1.2126   2.8000   3.0181   C.2       1 RES1   0.0000
     3 O3      -0.9220   3.3303   4.0899   O.2       1 RES1   0.0000
     4 N4      -1.3777   1.4878   2.8182   N.am      1 RES1   0.0000
     5 C5      -1.2402   0.5179   3.7341   C.2       1 RES1   0.0000
     6 C6      -0.3292   0.5945   4.7930   C.2       1 RES1   0.0000
     7 C7      -0.2326  -0.4448   5.7175   C.2       1 RES1   0.0000
     8 C8      -1.0434  -1.5754   5.5902   C.2       1 RES1   0.0000
     9 C9      -0.9703  -2.6266   6.5068   C.2       1 RES1   0.0000
    10 C10     -1.7545  -3.7690   6.3681   C.2       1 RES1   0.0000
    11 C11     -1.6228  -4.7802   7.3139   C.2       1 RES1   0.0000
    12 N12     -0.7672  -4.6456   8.3169   N.2       1 RES1   0.0000
    13 C13     -0.0075  -3.5408   8.4449   C.2       1 RES1   0.0000
    14 N14      0.8406  -3.4647   9.4818   N.2       1 RES1   0.0000
    15 C15      1.6342  -2.4290   9.8060   C.2       1 RES1   0.0000
    16 C16      2.5932  -2.6294  10.7977   C.2       1 RES1   0.0000
    17 C17      3.4489  -1.6000  11.1825   C.2       1 RES1   0.0000
    18 C18      3.3622  -0.3450  10.5764   C.2       1 RES1   0.0000
    19 N19      4.2417   0.6918  10.9696   N.pl3     1 RES1   0.0000
    20 C20      4.4630   1.0682  12.3728   C.3       1 RES1   0.0000
    21 C21      4.7112   2.5592  12.4531   C.3       1 RES1   0.0000
    22 O22      5.8245   2.9340  11.6383   O.3       1 RES1   0.0000
    23 C23      5.5808   2.5887  10.2806   C.3       1 RES1   0.0000
    24 C24      5.3529   1.0942  10.1086   C.3       1 RES1   0.0000
    25 C25      2.4046  -0.1400   9.5776   C.2       1 RES1   0.0000
    26 C26      1.5502  -1.1741   9.1943   C.2       1 RES1   0.0000
    27 N27     -0.1163  -2.5463   7.5429   N.2       1 RES1   0.0000
    28 C28     -1.9540  -1.6492   4.5343   C.2       1 RES1   0.0000
    29 C29     -2.0508  -0.6098   3.6114   C.2       1 RES1   0.0000
@<TRIPOS>BOND
     1     1     2    1
     2     2     3    2
     3     2     4   am
     4     4     5    1
     5     5     6    2
     6     6     7    1
     7     7     8    2
     8     8     9    1
     9     9    10    2
    10    10    11    1
    11    11    12    2
    12    12    13    1
    13    13    14    1
    14    14    15    1
    15    15    16    2
    16    16    17    1
    17    17    18    2
    18    18    19    1
    19    19    20    1
    20    20    21    1
    21    21    22    1
    22    22    23    1
    23    23    24    1
    24    18    25    1
    25    25    26    2
    26    13    27    2
    27     8    28    1
    28    28    29    2
    29    29     5    1
    30    27     9    1
    31    26    15    1
    32    24    19    1
@<TRIPOS>SUBSTRUCTURE
     1 RES1        1 GROUP             0 ****  ****    0  
@<TRIPOS>MOLECULE
ligand_33
    29    32     1     0     0
SMALL
NO_CHARGES
****
Generated from the CSD

@<TRIPOS>ATOM
     1 C1       6.4880  11.2870  -7.5884   C.3       1 RES1   0.0000
     2 C2       5.5431  10.3636  -8.3575   C.2       1 RES1   0.0000
     3 O3       5.0801  10.7159  -9.4420   O.2       1 RES1   0.0000
     4 N4       5.2961   9.1996  -7.7467   N.am      1 RES1   0.0000
     5 C5       4.5466   8.1934  -8.2204   C.2       1 RES1   0.0000
     6 C6       3.7440   7.3915  -7.4022   C.2       1 RES1   0.0000
     7 C7       2.9831   6.3605  -7.9523   C.2       1 RES1   0.0000
     8 C8       3.0206   6.1171  -9.3275   C.2       1 RES1   0.0000
     9 C9       2.2627   5.0950  -9.9034   C.2       1 RES1   0.0000
    10 C10      2.6953   4.4223 -11.0434   C.2       1 RES1   0.0000
    11 C11      1.8931   3.4089 -11.5573   C.2       1 RES1   0.0000
    12 N12      0.7481   3.1020 -10.9652   N.2       1 RES1   0.0000
    13 C13      0.3356   3.7523  -9.8602   C.2       1 RES1   0.0000
    14 N14     -0.8330   3.3944  -9.3066   N.2       1 RES1   0.0000
    15 C15     -1.6977   2.4715  -9.7629   C.2       1 RES1   0.0000
    16 C16     -2.4076   1.7244  -8.8242   C.2       1 RES1   0.0000
    17 C17     -3.3200   0.7521  -9.2270   C.2       1 RES1   0.0000
    18 C18     -3.5421   0.5104 -10.5843   C.2       1 RES1   0.0000
    19 N19     -4.4770  -0.4746 -10.9827   N.pl3     1 RES1   0.0000
    20 C20     -4.6629  -0.8866 -12.3811   C.3       1 RES1   0.0000
    21 C21     -5.0160  -2.3579 -12.4218   C.3       1 RES1   0.0000
    22 O22     -6.1889  -2.6211 -11.6480   O.3       1 RES1   0.0000
    23 C23     -5.9810  -2.2433 -10.2929   C.3       1 RES1   0.0000
    24 C24     -5.6518  -0.7636 -10.1617   C.3       1 RES1   0.0000
    25 C25     -2.8355   1.2604 -11.5303   C.2       1 RES1   0.0000
    26 C26     -1.9235   2.2341 -11.1226   C.2       1 RES1   0.0000
    27 N27      1.0933   4.7384  -9.3426   N.2       1 RES1   0.0000
    28 C28      3.8201   6.9201 -10.1432   C.2       1 RES1   0.0000
    29 C29      4.5793   7.9507  -9.5930   C.2       1 RES1   0.0000
@<TRIPOS>BOND
     1     1     2    1
     2     2     3    2
     3     2     4   am
     4     4     5    1
     5     5     6    2
     6     6     7    1
     7     7     8    2
     8     8     9    1
     9     9    10    2
    10    10    11    1
    11    11    12    2
    12    12    13    1
    13    13    14    1
    14    14    15    1
    15    15    16    2
    16    16    17    1
    17    17    18    2
    18    18    19    1
    19    19    20    1
    20    20    21    1
    21    21    22    1
    22    22    23    1
    23    23    24    1
    24    18    25    1
    25    25    26    2
    26    13    27    2
    27     8    28    1
    28    28    29    2
    29    29     5    1
    30    27     9    1
    31    26    15    1
    32    24    19    1
@<TRIPOS>SUBSTRUCTURE
     1 RES1        1 GROUP             0 ****  ****    0  
@<TRIPOS>MOLECULE
ligand_34
    29    32     1     0     0
SMALL
NO_CHARGES
****
Generated from the CSD

@<TRIPOS>ATOM
     1 C1       0.5536   3.2648   0.7173   C.3       1 RES1   0.0000
     2 C2      -0.0813   2.3019   1.7206   C.2       1 RES1   0.0000
     3 O3      -1.2810   2.3832   1.9826   O.2       1 RES1   0.0000
     4 N4       0.7721   1.4163   2.2464   N.am      1 RES1   0.0000
     5 C5       0.4771   0.4525   3.1311   C.2       1 RES1   0.0000
     6 C6      -0.7601  -0.1996   3.1621   C.2       1 RES1   0.0000
     7 C7      -1.0088  -1.1972   4.1041   C.2       1 RES1   0.0000
     8 C8      -0.0234  -1.5503   5.0294   C.2       1 RES1   0.0000
     9 C9      -0.2457  -2.5507   5.9784   C.2       1 RES1   0.0000
    10 C10     -1.0888  -3.6276   5.7167   C.2       1 RES1   0.0000
    11 C11     -1.2564  -4.5916   6.7052   C.2       1 RES1   0.0000
    12 N12     -0.6219  -4.4746   7.8627   N.2       1 RES1   0.0000
    13 C13      0.1961  -3.4336   8.1101   C.2       1 RES1   0.0000
    14 N14      0.8105  -3.3722   9.3013   N.2       1 RES1   0.0000
    15 C15      1.6946  -2.4458   9.7109   C.2       1 RES1   0.0000
    16 C16      2.6455  -2.0028   8.7929   C.2       1 RES1   0.0000
    17 C17      3.5909  -1.0443   9.1498   C.2       1 RES1   0.0000
    18 C18      3.6003  -0.5062  10.4384   C.2       1 RES1   0.0000
    19 N19      4.5605   0.4728  10.7882   N.pl3     1 RES1   0.0000
    20 C20      4.5811   1.1470  12.0938   C.3       1 RES1   0.0000
    21 C21      5.0691   2.5681  11.9104   C.3       1 RES1   0.0000
    22 O22      6.3623   2.5871  11.3014   O.3       1 RES1   0.0000
    23 C23      6.3172   1.9566  10.0276   C.3       1 RES1   0.0000
    24 C24      5.8651   0.5073  10.1289   C.3       1 RES1   0.0000
    25 C25      2.6454  -0.9442  11.3620   C.2       1 RES1   0.0000
    26 C26      1.6995  -1.9035  11.0001   C.2       1 RES1   0.0000
    27 N27      0.3751  -2.4857   7.1699   N.2       1 RES1   0.0000
    28 C28      1.2118  -0.9003   4.9955   C.2       1 RES1   0.0000
    29 C29      1.4600   0.0956   4.0533   C.2       1 RES1   0.0000
@<TRIPOS>BOND
     1     1     2    1
     2     2     3    2
     3     2     4   am
     4     4     5    1
     5     5     6    2
     6     6     7    1
     7     7     8    2
     8     8     9    1
     9     9    10    2
    10    10    11    1
    11    11    12    2
    12    12    13    1
    13    13    14    1
    14    14    15    1
    15    15    16    2
    16    16    17    1
    17    17    18    2
    18    18    19    1
    19    19    20    1
    20    20    21    1
    21    21    22    1
    22    22    23    1
    23    23    24    1
    24    18    25    1
    25    25    26    2
    26    13    27    2
    27     8    28    1
    28    28    29    2
    29    29     5    1
    30    27     9    1
    31    26    15    1
    32    24    19    1
@<TRIPOS>SUBSTRUCTURE
     1 RES1        1 GROUP             0 ****  ****    0  
@<TRIPOS>MOLECULE
ligand_35
    29    32     1     0     0
SMALL
NO_CHARGES
****
Generated from the CSD

@<TRIPOS>ATOM
     1 C1       5.3688  11.9067  -6.6836   C.3       1 RES1   0.0000
     2 C2       4.1359  11.2544  -7.3091   C.2       1 RES1   0.0000
     3 O3       3.0847  11.8865  -7.4093   O.2       1 RES1   0.0000
     4 N4       4.3264   9.9922  -7.7088   N.am      1 RES1   0.0000
     5 C5       3.4231   9.1986  -8.3029   C.2       1 RES1   0.0000
     6 C6       2.4275   9.6848  -9.1568   C.2       1 RES1   0.0000
     7 C7       1.5166   8.8106  -9.7489   C.2       1 RES1   0.0000
     8 C8       1.5888   7.4398  -9.4892   C.2       1 RES1   0.0000
     9 C9       0.6926   6.5430 -10.0752   C.2       1 RES1   0.0000
    10 C10      0.1417   6.7813 -11.3317   C.2       1 RES1   0.0000
    11 C11     -0.7372   5.8403 -11.8574   C.2       1 RES1   0.0000
    12 N12     -1.0330   4.7480 -11.1678   N.2       1 RES1   0.0000
    13 C13     -0.4945   4.5194  -9.9546   C.2       1 RES1   0.0000
    14 N14     -0.8330   3.3944  -9.3066   N.2       1 RES1   0.0000
    15 C15     -1.6450   2.4177  -9.7474   C.2       1 RES1   0.0000
    16 C16     -2.5041   1.8203  -8.8262   C.2       1 RES1   0.0000
    17 C17     -3.3724   0.8029  -9.2146   C.2       1 RES1   0.0000
    18 C18     -3.3993   0.3641 -10.5401   C.2       1 RES1   0.0000
    19 N19     -4.2908  -0.6651 -10.9257   N.pl3     1 RES1   0.0000
    20 C20     -4.2802  -1.2783 -12.2611   C.3       1 RES1   0.0000
    21 C21     -4.6616  -2.7381 -12.1396   C.3       1 RES1   0.0000
    22 O22     -5.9416  -2.8794 -11.5189   O.3       1 RES1   0.0000
    23 C23     -5.9250  -2.3066 -10.2175   C.3       1 RES1   0.0000
    24 C24     -5.5804  -0.8251 -10.2554   C.3       1 RES1   0.0000
    25 C25     -2.5423   0.9634 -11.4692   C.2       1 RES1   0.0000
    26 C26     -1.6751   1.9830 -11.0763   C.2       1 RES1   0.0000
    27 N27      0.3589   5.4154  -9.4222   N.2       1 RES1   0.0000
    28 C28      2.5849   6.9557  -8.6388   C.2       1 RES1   0.0000
    29 C29      3.4953   7.8297  -8.0484   C.2       1 RES1   0.0000
@<TRIPOS>BOND
     1     1     2    1
     2     2     3    2
     3     2     4   am
     4     4     5    1
     5     5     6    2
     6     6     7    1
     7     7     8    2
     8     8     9    1
     9     9    10    2
    10    10    11    1
    11    11    12    2
    12    12    13    1
    13    13    14    1
    14    14    15    1
    15    15    16    2
    16    16    17    1
    17    17    18    2
    18    18    19    1
    19    19    20    1
    20    20    21    1
    21    21    22    1
    22    22    23    1
    23    23    24    1
    24    18    25    1
    25    25    26    2
    26    13    27    2
    27     8    28    1
    28    28    29    2
    29    29     5    1
    30    27     9    1
    31    26    15    1
    32    24    19    1
@<TRIPOS>SUBSTRUCTURE
     1 RES1        1 GROUP             0 ****  ****    0  
@<TRIPOS>MOLECULE
ligand_36
    29    32     1     0     0
SMALL
NO_CHARGES
****
Generated from the CSD

@<TRIPOS>ATOM
     1 C1      -8.8581   4.6427  -2.1228   C.3       1 RES1   0.0000
     2 C2      -7.3885   4.6392  -2.5438   C.2       1 RES1   0.0000
     3 O3      -6.5081   4.4047  -1.7165   O.2       1 RES1   0.0000
     4 N4      -7.1885   4.9059  -3.8392   N.am      1 RES1   0.0000
     5 C5      -6.0043   4.9844  -4.4638   C.2       1 RES1   0.0000
     6 C6      -4.8400   5.4364  -3.8339   C.2       1 RES1   0.0000
     7 C7      -3.6354   5.4935  -4.5340   C.2       1 RES1   0.0000
     8 C8      -3.5833   5.1033  -5.8745   C.2       1 RES1   0.0000
     9 C9      -2.3878   5.1449  -6.5954   C.2       1 RES1   0.0000
    10 C10     -1.3902   6.0697  -6.2975   C.2       1 RES1   0.0000
    11 C11     -0.2217   6.0476  -7.0515   C.2       1 RES1   0.0000
    12 N12     -0.0755   5.1617  -8.0261   N.2       1 RES1   0.0000
    13 C13     -1.0413   4.2662  -8.3081   C.2       1 RES1   0.0000
    14 N14     -0.8330   3.3944  -9.3066   N.2       1 RES1   0.0000
    15 C15     -1.6506   2.4026  -9.7008   C.2       1 RES1   0.0000
    16 C16     -2.3060   1.6682  -8.7137   C.2       1 RES1   0.0000
    17 C17     -3.1679   0.6274  -9.0512   C.2       1 RES1   0.0000
    18 C18     -3.3934   0.3026 -10.3905   C.2       1 RES1   0.0000
    19 N19     -4.2769  -0.7519 -10.7226   N.pl3     1 RES1   0.0000
    20 C20     -4.4572  -1.2467 -12.0945   C.3       1 RES1   0.0000
    21 C21     -4.7284  -2.7353 -12.0533   C.3       1 RES1   0.0000
    22 O22     -5.8749  -3.0212 -11.2487   O.3       1 RES1   0.0000
    23 C23     -5.6714  -2.5617  -9.9185   C.3       1 RES1   0.0000
    24 C24     -5.4234  -1.0613  -9.8695   C.3       1 RES1   0.0000
    25 C25     -2.7416   1.0393 -11.3850   C.2       1 RES1   0.0000
    26 C26     -1.8801   2.0818 -11.0427   C.2       1 RES1   0.0000
    27 N27     -2.1831   4.2668  -7.5935   N.2       1 RES1   0.0000
    28 C28     -4.7458   4.6498  -6.5010   C.2       1 RES1   0.0000
    29 C29     -5.9488   4.5921  -5.8006   C.2       1 RES1   0.0000
@<TRIPOS>BOND
     1     1     2    1
     2     2     3    2
     3     2     4   am
     4     4     5    1
     5     5     6    2
     6     6     7    1
     7     7     8    2
     8     8     9    1
     9     9    10    2
    10    10    11    1
    11    11    12    2
    12    12    13    1
    13    13    14    1
    14    14    15    1
    15    15    16    2
    16    16    17    1
    17    17    18    2
    18    18    19    1
    19    19    20    1
    20    20    21    1
    21    21    22    1
    22    22    23    1
    23    23    24    1
    24    18    25    1
    25    25    26    2
    26    13    27    2
    27     8    28    1
    28    28    29    2
    29    29     5    1
    30    27     9    1
    31    26    15    1
    32    24    19    1
@<TRIPOS>SUBSTRUCTURE
     1 RES1        1 GROUP             0 ****  ****    0  
@<TRIPOS>MOLECULE
ligand_37
    29    32     1     0     0
SMALL
NO_CHARGES
****
Generated from the CSD

@<TRIPOS>ATOM
     1 C1     -18.1948  -9.9561 -11.4074   C.3       1 RES1   0.0000
     2 C2     -16.7827  -9.5781 -11.8545   C.2       1 RES1   0.0000
     3 O3     -16.6175  -8.7413 -12.7417   O.2       1 RES1   0.0000
     4 N4     -15.8097 -10.2269 -11.2054   N.am      1 RES1   0.0000
     5 C5     -14.4901 -10.0869 -11.3997   C.2       1 RES1   0.0000
     6 C6     -13.9488  -9.2090 -12.3448   C.2       1 RES1   0.0000
     7 C7     -12.5671  -9.1036 -12.5003   C.2       1 RES1   0.0000
     8 C8     -11.7110  -9.8795 -11.7149   C.2       1 RES1   0.0000
     9 C9     -10.3237  -9.7873 -11.8469   C.2       1 RES1   0.0000
    10 C10     -9.7357  -8.9075 -12.7521   C.2       1 RES1   0.0000
    11 C11     -8.3474  -8.8625 -12.8237   C.2       1 RES1   0.0000
    12 N12     -7.6154  -9.6436 -12.0427   N.2       1 RES1   0.0000
    13 C13     -8.1881 -10.4900 -11.1654   C.2       1 RES1   0.0000
    14 N14     -7.3925 -11.2542 -10.4018   N.2       1 RES1   0.0000
    15 C15     -6.0503 -11.3202 -10.4414   C.2       1 RES1   0.0000
    16 C16     -5.3733 -11.5317  -9.2413   C.2       1 RES1   0.0000
    17 C17     -3.9831 -11.6113  -9.2096   C.2       1 RES1   0.0000
    18 C18     -3.2408 -11.4830 -10.3854   C.2       1 RES1   0.0000
    19 N19     -1.8290 -11.5731 -10.3431   N.3       1 RES1   0.0000
    20 C20     -1.2225 -10.4336 -11.0248   C.3       1 RES1   0.0000
    21 C21      0.3454 -10.5482 -11.0700   C.3       1 RES1   0.0000
    22 O22      0.6807 -11.7808 -11.7063   O.3       1 RES1   0.0000
    23 C23      0.1732 -12.8554 -10.9625   C.3       1 RES1   0.0000
    24 C24     -1.3576 -12.8159 -10.9554   C.3       1 RES1   0.0000
    25 C25     -3.9155 -11.2751 -11.5930   C.2       1 RES1   0.0000
    26 C26     -5.3081 -11.1972 -11.6205   C.2       1 RES1   0.0000
    27 N27     -9.5308 -10.5538 -11.0768   N.2       1 RES1   0.0000
    28 C28    -12.2528 -10.7533 -10.7701   C.2       1 RES1   0.0000
    29 C29    -13.6334 -10.8573 -10.6146   C.2       1 RES1   0.0000
@<TRIPOS>BOND
     1     1     2    1
     2     2     3    2
     3     2     4   am
     4     4     5    1
     5     5     6    2
     6     6     7    1
     7     7     8    2
     8     8     9    1
     9     9    10    2
    10    10    11    1
    11    11    12    2
    12    12    13    1
    13    13    14    1
    14    14    15    1
    15    15    16    2
    16    16    17    1
    17    17    18    2
    18    18    19    1
    19    19    20    1
    20    20    21    1
    21    21    22    1
    22    22    23    1
    23    23    24    1
    24    18    25    1
    25    25    26    2
    26    13    27    2
    27     8    28    1
    28    28    29    2
    29    29     5    1
    30    27     9    1
    31    26    15    1
    32    24    19    1
@<TRIPOS>SUBSTRUCTURE
     1 RES1        1 GROUP             0 ****  ****    0  
@<TRIPOS>MOLECULE
ligand_38
    29    32     1     0     0
SMALL
NO_CHARGES
****
Generated from the CSD

@<TRIPOS>ATOM
     1 C1     -18.0900 -10.6548 -10.7949   C.3       1 RES1   0.0000
     2 C2     -16.5819 -10.8362 -10.6234   C.2       1 RES1   0.0000
     3 O3     -16.1445 -11.6255  -9.7866   O.2       1 RES1   0.0000
     4 N4     -15.8419 -10.0799 -11.4417   N.am      1 RES1   0.0000
     5 C5     -14.5026 -10.0427 -11.5000   C.2       1 RES1   0.0000
     6 C6     -13.6829 -10.8224 -10.6772   C.2       1 RES1   0.0000
     7 C7     -12.2949 -10.7436 -10.7852   C.2       1 RES1   0.0000
     8 C8     -11.7110  -9.8795 -11.7149   C.2       1 RES1   0.0000
     9 C9     -10.3237  -9.7873 -11.8469   C.2       1 RES1   0.0000
    10 C10     -9.7357  -8.9075 -12.7521   C.2       1 RES1   0.0000
    11 C11     -8.3474  -8.8625 -12.8237   C.2       1 RES1   0.0000
    12 N12     -7.6154  -9.6436 -12.0427   N.2       1 RES1   0.0000
    13 C13     -8.1881 -10.4900 -11.1654   C.2       1 RES1   0.0000
    14 N14     -7.3925 -11.2542 -10.4018   N.2       1 RES1   0.0000
    15 C15     -6.0503 -11.3208 -10.4420   C.2       1 RES1   0.0000
    16 C16     -5.3729 -11.5323  -9.2421   C.2       1 RES1   0.0000
    17 C17     -3.9828 -11.6125  -9.2109   C.2       1 RES1   0.0000
    18 C18     -3.2409 -11.4848 -10.3871   C.2       1 RES1   0.0000
    19 N19     -1.8291 -11.5754 -10.3452   N.3       1 RES1   0.0000
    20 C20     -1.2224 -10.4364 -11.0276   C.3       1 RES1   0.0000
    21 C21      0.3455 -10.5517 -11.0734   C.3       1 RES1   0.0000
    22 O22      0.6799 -11.7846 -11.7094   O.3       1 RES1   0.0000
    23 C23      0.1723 -12.8587 -10.9650   C.3       1 RES1   0.0000
    24 C24     -1.3585 -12.8187 -10.9574   C.3       1 RES1   0.0000
    25 C25     -3.9160 -11.2768 -11.5944   C.2       1 RES1   0.0000
    26 C26     -5.3086 -11.1983 -11.6213   C.2       1 RES1   0.0000
    27 N27     -9.5308 -10.5538 -11.0768   N.2       1 RES1   0.0000
    28 C28    -12.5306  -9.1039 -12.5372   C.2       1 RES1   0.0000
    29 C29    -13.9174  -9.1839 -12.4295   C.2       1 RES1   0.0000
@<TRIPOS>BOND
     1     1     2    1
     2     2     3    2
     3     2     4   am
     4     4     5    1
     5     5     6    2
     6     6     7    1
     7     7     8    2
     8     8     9    1
     9     9    10    2
    10    10    11    1
    11    11    12    2
    12    12    13    1
    13    13    14    1
    14    14    15    1
    15    15    16    2
    16    16    17    1
    17    17    18    2
    18    18    19    1
    19    19    20    1
    20    20    21    1
    21    21    22    1
    22    22    23    1
    23    23    24    1
    24    18    25    1
    25    25    26    2
    26    13    27    2
    27     8    28    1
    28    28    29    2
    29    29     5    1
    30    27     9    1
    31    26    15    1
    32    24    19    1
@<TRIPOS>SUBSTRUCTURE
     1 RES1        1 GROUP             0 ****  ****    0  
@<TRIPOS>MOLECULE
ligand_39
    29    32     1     0     0
SMALL
NO_CHARGES
****
Generated from the CSD

@<TRIPOS>ATOM
     1 C1      -5.6127   5.5566   8.6565   C.3       1 RES1   0.0000
     2 C2      -5.4579   4.0426   8.5125   C.2       1 RES1   0.0000
     3 O3      -6.4129   3.3540   8.1544   O.2       1 RES1   0.0000
     4 N4      -4.2352   3.5861   8.8050   N.am      1 RES1   0.0000
     5 C5      -3.8295   2.3084   8.7628   C.2       1 RES1   0.0000
     6 C6      -4.6714   1.2544   8.3927   C.2       1 RES1   0.0000
     7 C7      -4.1925  -0.0549   8.3643   C.2       1 RES1   0.0000
     8 C8      -2.8663  -0.3250   8.7107   C.2       1 RES1   0.0000
     9 C9      -2.3609  -1.6267   8.6836   C.2       1 RES1   0.0000
    10 C10     -3.1502  -2.7058   8.2941   C.2       1 RES1   0.0000
    11 C11     -2.5779  -3.9734   8.2826   C.2       1 RES1   0.0000
    12 N12     -1.3109  -4.1345   8.6358   N.2       1 RES1   0.0000
    13 C13     -0.5498  -3.0874   9.0078   C.2       1 RES1   0.0000
    14 N14      0.7264  -3.3155   9.3534   N.2       1 RES1   0.0000
    15 C15      1.6481  -2.4007   9.7017   C.2       1 RES1   0.0000
    16 C16      1.6775  -1.2026   8.9895   C.2       1 RES1   0.0000
    17 C17      2.6056  -0.2109   9.2977   C.2       1 RES1   0.0000
    18 C18      3.5247  -0.3996  10.3320   C.2       1 RES1   0.0000
    19 N19      4.4585   0.6177  10.6417   N.pl3     1 RES1   0.0000
    20 C20      4.5590   1.2384  11.9699   C.3       1 RES1   0.0000
    21 C21      4.9521   2.6914  11.8099   C.3       1 RES1   0.0000
    22 O22      6.1831   2.8091  11.0928   O.3       1 RES1   0.0000
    23 C23      6.0588   2.2294   9.8003   C.3       1 RES1   0.0000
    24 C24      5.6956   0.7537   9.8742   C.3       1 RES1   0.0000
    25 C25      3.4965  -1.5982  11.0525   C.2       1 RES1   0.0000
    26 C26      2.5644  -2.5885  10.7415   C.2       1 RES1   0.0000
    27 N27     -1.0799  -1.8492   9.0284   N.2       1 RES1   0.0000
    28 C28     -2.0265   0.7285   9.0772   C.2       1 RES1   0.0000
    29 C29     -2.5054   2.0366   9.1045   C.2       1 RES1   0.0000
@<TRIPOS>BOND
     1     1     2    1
     2     2     3    2
     3     2     4   am
     4     4     5    1
     5     5     6    2
     6     6     7    1
     7     7     8    2
     8     8     9    1
     9     9    10    2
    10    10    11    1
    11    11    12    2
    12    12    13    1
    13    13    14    1
    14    14    15    1
    15    15    16    2
    16    16    17    1
    17    17    18    2
    18    18    19    1
    19    19    20    1
    20    20    21    1
    21    21    22    1
    22    22    23    1
    23    23    24    1
    24    18    25    1
    25    25    26    2
    26    13    27    2
    27     8    28    1
    28    28    29    2
    29    29     5    1
    30    27     9    1
    31    26    15    1
    32    24    19    1
@<TRIPOS>SUBSTRUCTURE
     1 RES1        1 GROUP             0 ****  ****    0  
@<TRIPOS>MOLECULE
ligand_40
    29    32     1     0     0
SMALL
NO_CHARGES
****
Generated from the CSD

@<TRIPOS>ATOM
     1 C1      -4.8038   5.8633   9.0111   C.3       1 RES1   0.0000
     2 C2      -3.8938   4.6378   9.0942   C.2       1 RES1   0.0000
     3 O3      -2.7162   4.7627   9.4292   O.2       1 RES1   0.0000
     4 N4      -4.4953   3.4856   8.7781   N.am      1 RES1   0.0000
     5 C5      -3.9322   2.2685   8.7677   C.2       1 RES1   0.0000
     6 C6      -2.5913   2.0473   9.0993   C.2       1 RES1   0.0000
     7 C7      -2.0613   0.7577   9.0735   C.2       1 RES1   0.0000
     8 C8      -2.8663  -0.3250   8.7107   C.2       1 RES1   0.0000
     9 C9      -2.3609  -1.6267   8.6836   C.2       1 RES1   0.0000
    10 C10     -3.1502  -2.7058   8.2941   C.2       1 RES1   0.0000
    11 C11     -2.5779  -3.9734   8.2826   C.2       1 RES1   0.0000
    12 N12     -1.3109  -4.1345   8.6358   N.2       1 RES1   0.0000
    13 C13     -0.5498  -3.0874   9.0078   C.2       1 RES1   0.0000
    14 N14      0.7264  -3.3155   9.3534   N.2       1 RES1   0.0000
    15 C15      1.6481  -2.4007   9.7016   C.2       1 RES1   0.0000
    16 C16      1.6774  -1.2026   8.9894   C.2       1 RES1   0.0000
    17 C17      2.6056  -0.2108   9.2974   C.2       1 RES1   0.0000
    18 C18      3.5248  -0.3996  10.3316   C.2       1 RES1   0.0000
    19 N19      4.4586   0.6178  10.6412   N.pl3     1 RES1   0.0000
    20 C20      4.5593   1.2385  11.9694   C.3       1 RES1   0.0000
    21 C21      4.9523   2.6914  11.8093   C.3       1 RES1   0.0000
    22 O22      6.1833   2.8092  11.0920   O.3       1 RES1   0.0000
    23 C23      6.0588   2.2294   9.7996   C.3       1 RES1   0.0000
    24 C24      5.6956   0.7537   9.8735   C.3       1 RES1   0.0000
    25 C25      3.4967  -1.5982  11.0521   C.2       1 RES1   0.0000
    26 C26      2.5646  -2.5885  10.7412   C.2       1 RES1   0.0000
    27 N27     -1.0799  -1.8492   9.0284   N.2       1 RES1   0.0000
    28 C28     -4.2051  -0.1029   8.3826   C.2       1 RES1   0.0000
    29 C29     -4.7343   1.1857   8.4095   C.2       1 RES1   0.0000
@<TRIPOS>BOND
     1     1     2    1
     2     2     3    2
     3     2     4   am
     4     4     5    1
     5     5     6    2
     6     6     7    1
     7     7     8    2
     8     8     9    1
     9     9    10    2
    10    10    11    1
    11    11    12    2
    12    12    13    1
    13    13    14    1
    14    14    15    1
    15    15    16    2
    16    16    17    1
    17    17    18    2
    18    18    19    1
    19    19    20    1
    20    20    21    1
    21    21    22    1
    22    22    23    1
    23    23    24    1
    24    18    25    1
    25    25    26    2
    26    13    27    2
    27     8    28    1
    28    28    29    2
    29    29     5    1
    30    27     9    1
    31    26    15    1
    32    24    19    1
@<TRIPOS>SUBSTRUCTURE
     1 RES1        1 GROUP             0 ****  ****    0  
@<TRIPOS>MOLECULE
ligand_41
    29    32     1     0     0
SMALL
NO_CHARGES
****
Generated from the CSD

@<TRIPOS>ATOM
     1 C1      -7.2138 -20.8119  -5.5351   C.3       1 RES1   0.0000
     2 C2      -8.0151 -19.6700  -6.1604   C.2       1 RES1   0.0000
     3 O3      -9.2420 -19.7388  -6.2271   O.2       1 RES1   0.0000
     4 N4      -7.2675 -18.6513  -6.5990   N.am      1 RES1   0.0000
     5 C5      -7.7134 -17.5218  -7.1683   C.2       1 RES1   0.0000
     6 C6      -8.9378 -16.9333  -6.8346   C.2       1 RES1   0.0000
     7 C7      -9.3481 -15.7556  -7.4585   C.2       1 RES1   0.0000
     8 C8      -8.5397 -15.1559  -8.4273   C.2       1 RES1   0.0000
     9 C9      -8.9252 -13.9729  -9.0617   C.2       1 RES1   0.0000
    10 C10    -10.2671 -13.6535  -9.2527   C.2       1 RES1   0.0000
    11 C11    -10.5778 -12.4539  -9.8844   C.2       1 RES1   0.0000
    12 N12     -9.6094 -11.6447 -10.2885   N.2       1 RES1   0.0000
    13 C13     -8.3128 -11.9555 -10.0979   C.2       1 RES1   0.0000
    14 N14     -7.3788 -11.0942 -10.5291   N.2       1 RES1   0.0000
    15 C15     -6.0446 -11.2527 -10.4791   C.2       1 RES1   0.0000
    16 C16     -5.2465 -10.1522 -10.7876   C.2       1 RES1   0.0000
    17 C17     -3.8571 -10.2457 -10.7550   C.2       1 RES1   0.0000
    18 C18     -3.2375 -11.4481 -10.4083   C.2       1 RES1   0.0000
    19 N19     -1.8252 -11.5300 -10.3709   N.3       1 RES1   0.0000
    20 C20     -1.2275 -10.2720 -10.8083   C.3       1 RES1   0.0000
    21 C21      0.3420 -10.3591 -10.8603   C.3       1 RES1   0.0000
    22 O22      0.6968 -11.4381 -11.7242   O.3       1 RES1   0.0000
    23 C23      0.1969 -12.6437 -11.2122   C.3       1 RES1   0.0000
    24 C24     -1.3342 -12.6224 -11.2121   C.3       1 RES1   0.0000
    25 C25     -4.0340 -12.5541 -10.0936   C.2       1 RES1   0.0000
    26 C26     -5.4252 -12.4559 -10.1262   C.2       1 RES1   0.0000
    27 N27     -7.9848 -13.1116  -9.4895   N.2       1 RES1   0.0000
    28 C28     -7.3167 -15.7432  -8.7573   C.2       1 RES1   0.0000
    29 C29     -6.9069 -16.9193  -8.1328   C.2       1 RES1   0.0000
@<TRIPOS>BOND
     1     1     2    1
     2     2     3    2
     3     2     4   am
     4     4     5    1
     5     5     6    2
     6     6     7    1
     7     7     8    2
     8     8     9    1
     9     9    10    2
    10    10    11    1
    11    11    12    2
    12    12    13    1
    13    13    14    1
    14    14    15    1
    15    15    16    2
    16    16    17    1
    17    17    18    2
    18    18    19    1
    19    19    20    1
    20    20    21    1
    21    21    22    1
    22    22    23    1
    23    23    24    1
    24    18    25    1
    25    25    26    2
    26    13    27    2
    27     8    28    1
    28    28    29    2
    29    29     5    1
    30    27     9    1
    31    26    15    1
    32    24    19    1
@<TRIPOS>SUBSTRUCTURE
     1 RES1        1 GROUP             0 ****  ****    0  
@<TRIPOS>MOLECULE
ligand_42
    29    32     1     0     0
SMALL
NO_CHARGES
****
Generated from the CSD

@<TRIPOS>ATOM
     1 C1      -5.9659 -14.9748 -20.5755   C.3       1 RES1   0.0000
     2 C2      -6.9176 -14.5372 -19.4622   C.2       1 RES1   0.0000
     3 O3      -8.1345 -14.5582 -19.6442   O.2       1 RES1   0.0000
     4 N4      -6.3052 -14.1525 -18.3369   N.am      1 RES1   0.0000
     5 C5      -6.8978 -13.7235 -17.2129   C.2       1 RES1   0.0000
     6 C6      -8.2862 -13.6217 -17.0755   C.2       1 RES1   0.0000
     7 C7      -8.8462 -13.1715 -15.8805   C.2       1 RES1   0.0000
     8 C8      -8.0225 -12.8132 -14.8104   C.2       1 RES1   0.0000
     9 C9      -8.5591 -12.3658 -13.6010   C.2       1 RES1   0.0000
    10 C10     -9.9347 -12.2744 -13.4048   C.2       1 RES1   0.0000
    11 C11    -10.3985 -11.8290 -12.1715   C.2       1 RES1   0.0000
    12 N12     -9.5399 -11.5037 -11.2160   N.2       1 RES1   0.0000
    13 C13     -8.2102 -11.5977 -11.4085   C.2       1 RES1   0.0000
    14 N14     -7.3925 -11.2542 -10.4018   N.2       1 RES1   0.0000
    15 C15     -6.0481 -11.2617 -10.4104   C.2       1 RES1   0.0000
    16 C16     -5.3919 -11.6494  -9.2432   C.2       1 RES1   0.0000
    17 C17     -4.0007 -11.6808  -9.1824   C.2       1 RES1   0.0000
    18 C18     -3.2364 -11.3256 -10.2958   C.2       1 RES1   0.0000
    19 N19     -1.8235 -11.3682 -10.2256   N.3       1 RES1   0.0000
    20 C20     -1.2497 -10.1068 -10.6846   C.3       1 RES1   0.0000
    21 C21      0.3223 -10.1527 -10.7000   C.3       1 RES1   0.0000
    22 O22      0.7249 -11.2448 -11.5257   O.3       1 RES1   0.0000
    23 C23      0.2457 -12.4491 -10.9914   C.3       1 RES1   0.0000
    24 C24     -1.2851 -12.4693 -11.0253   C.3       1 RES1   0.0000
    25 C25     -3.8901 -10.9400 -11.4708   C.2       1 RES1   0.0000
    26 C26     -5.2836 -10.9112 -11.5279   C.2       1 RES1   0.0000
    27 N27     -7.7348 -12.0255 -12.5941   N.2       1 RES1   0.0000
    28 C28     -6.6370 -12.9178 -14.9482   C.2       1 RES1   0.0000
    29 C29     -6.0783 -13.3687 -16.1422   C.2       1 RES1   0.0000
@<TRIPOS>BOND
     1     1     2    1
     2     2     3    2
     3     2     4   am
     4     4     5    1
     5     5     6    2
     6     6     7    1
     7     7     8    2
     8     8     9    1
     9     9    10    2
    10    10    11    1
    11    11    12    2
    12    12    13    1
    13    13    14    1
    14    14    15    1
    15    15    16    2
    16    16    17    1
    17    17    18    2
    18    18    19    1
    19    19    20    1
    20    20    21    1
    21    21    22    1
    22    22    23    1
    23    23    24    1
    24    18    25    1
    25    25    26    2
    26    13    27    2
    27     8    28    1
    28    28    29    2
    29    29     5    1
    30    27     9    1
    31    26    15    1
    32    24    19    1
@<TRIPOS>SUBSTRUCTURE
     1 RES1        1 GROUP             0 ****  ****    0  
@<TRIPOS>MOLECULE
ligand_43
    29    32     1     0     0
SMALL
NO_CHARGES
****
Generated from the CSD

@<TRIPOS>ATOM
     1 C1      -5.1038 -14.8042 -20.2562   C.3       1 RES1   0.0000
     2 C2      -5.2818 -14.3041 -18.8226   C.2       1 RES1   0.0000
     3 O3      -4.2984 -14.1005 -18.1114   O.2       1 RES1   0.0000
     4 N4      -6.5564 -14.1263 -18.4581   N.am      1 RES1   0.0000
     5 C5      -6.9924 -13.6987 -17.2640   C.2       1 RES1   0.0000
     6 C6      -6.1309 -13.3741 -16.2108   C.2       1 RES1   0.0000
     7 C7      -6.6423 -12.9314 -14.9914   C.2       1 RES1   0.0000
     8 C8      -8.0225 -12.8132 -14.8104   C.2       1 RES1   0.0000
     9 C9      -8.5591 -12.3658 -13.6010   C.2       1 RES1   0.0000
    10 C10     -9.9347 -12.2744 -13.4048   C.2       1 RES1   0.0000
    11 C11    -10.3985 -11.8290 -12.1715   C.2       1 RES1   0.0000
    12 N12     -9.5399 -11.5037 -11.2160   N.2       1 RES1   0.0000
    13 C13     -8.2102 -11.5977 -11.4085   C.2       1 RES1   0.0000
    14 N14     -7.3925 -11.2542 -10.4018   N.2       1 RES1   0.0000
    15 C15     -6.0481 -11.2617 -10.4104   C.2       1 RES1   0.0000
    16 C16     -5.3919 -11.6493  -9.2432   C.2       1 RES1   0.0000
    17 C17     -4.0007 -11.6806  -9.1824   C.2       1 RES1   0.0000
    18 C18     -3.2364 -11.3254 -10.2959   C.2       1 RES1   0.0000
    19 N19     -1.8235 -11.3679 -10.2256   N.3       1 RES1   0.0000
    20 C20     -1.2498 -10.1064 -10.6844   C.3       1 RES1   0.0000
    21 C21      0.3223 -10.1523 -10.6998   C.3       1 RES1   0.0000
    22 O22      0.7249 -11.2441 -11.5258   O.3       1 RES1   0.0000
    23 C23      0.2458 -12.4485 -10.9918   C.3       1 RES1   0.0000
    24 C24     -1.2850 -12.4688 -11.0256   C.3       1 RES1   0.0000
    25 C25     -3.8901 -10.9399 -11.4709   C.2       1 RES1   0.0000
    26 C26     -5.2837 -10.9111 -11.5279   C.2       1 RES1   0.0000
    27 N27     -7.7348 -12.0255 -12.5941   N.2       1 RES1   0.0000
    28 C28     -8.8810 -13.1350 -15.8635   C.2       1 RES1   0.0000
    29 C29     -8.3692 -13.5763 -17.0820   C.2       1 RES1   0.0000
@<TRIPOS>BOND
     1     1     2    1
     2     2     3    2
     3     2     4   am
     4     4     5    1
     5     5     6    2
     6     6     7    1
     7     7     8    2
     8     8     9    1
     9     9    10    2
    10    10    11    1
    11    11    12    2
    12    12    13    1
    13    13    14    1
    14    14    15    1
    15    15    16    2
    16    16    17    1
    17    17    18    2
    18    18    19    1
    19    19    20    1
    20    20    21    1
    21    21    22    1
    22    22    23    1
    23    23    24    1
    24    18    25    1
    25    25    26    2
    26    13    27    2
    27     8    28    1
    28    28    29    2
    29    29     5    1
    30    27     9    1
    31    26    15    1
    32    24    19    1
@<TRIPOS>SUBSTRUCTURE
     1 RES1        1 GROUP             0 ****  ****    0  
@<TRIPOS>MOLECULE
ligand_44
    29    32     1     0     0
SMALL
NO_CHARGES
****
Generated from the CSD

@<TRIPOS>ATOM
     1 C1     -18.2253 -11.4845 -11.8096   C.3       1 RES1   0.0000
     2 C2     -16.8257 -11.7339 -12.3715   C.2       1 RES1   0.0000
     3 O3     -16.6857 -12.1652 -13.5156   O.2       1 RES1   0.0000
     4 N4     -15.8340 -11.4450 -11.5217   N.am      1 RES1   0.0000
     5 C5     -14.5197 -11.5708 -11.7571   C.2       1 RES1   0.0000
     6 C6     -14.0052 -12.0396 -12.9705   C.2       1 RES1   0.0000
     7 C7     -12.6277 -12.1465 -13.1589   C.2       1 RES1   0.0000
     8 C8     -11.7491 -11.7898 -12.1330   C.2       1 RES1   0.0000
     9 C9     -10.3654 -11.8814 -12.2993   C.2       1 RES1   0.0000
    10 C10     -9.8036 -12.3146 -13.4976   C.2       1 RES1   0.0000
    11 C11     -8.4174 -12.3726 -13.5951   C.2       1 RES1   0.0000
    12 N12     -7.6628 -12.0203 -12.5643   N.2       1 RES1   0.0000
    13 C13     -8.2102 -11.5977 -11.4085   C.2       1 RES1   0.0000
    14 N14     -7.3925 -11.2542 -10.4018   N.2       1 RES1   0.0000
    15 C15     -6.0481 -11.2478 -10.4151   C.2       1 RES1   0.0000
    16 C16     -5.3838 -11.6655  -9.2629   C.2       1 RES1   0.0000
    17 C17     -3.9922 -11.6846  -9.2078   C.2       1 RES1   0.0000
    18 C18     -3.2355 -11.2867 -10.3120   C.2       1 RES1   0.0000
    19 N19     -1.8221 -11.3173 -10.2478   N.3       1 RES1   0.0000
    20 C20     -1.2626 -10.0363 -10.6687   C.3       1 RES1   0.0000
    21 C21      0.3098 -10.0658 -10.6908   C.3       1 RES1   0.0000
    22 O22      0.7202 -11.1270 -11.5519   O.3       1 RES1   0.0000
    23 C23      0.2551 -12.3524 -11.0544   C.3       1 RES1   0.0000
    24 C24     -1.2755 -12.3870 -11.0837   C.3       1 RES1   0.0000
    25 C25     -3.8973 -10.8709 -11.4720   C.2       1 RES1   0.0000
    26 C26     -5.2913 -10.8544 -11.5235   C.2       1 RES1   0.0000
    27 N27     -9.5503 -11.5331 -11.2876   N.2       1 RES1   0.0000
    28 C28    -12.2641 -11.3195 -10.9234   C.2       1 RES1   0.0000
    29 C29    -13.6406 -11.2121 -10.7362   C.2       1 RES1   0.0000
@<TRIPOS>BOND
     1     1     2    1
     2     2     3    2
     3     2     4   am
     4     4     5    1
     5     5     6    2
     6     6     7    1
     7     7     8    2
     8     8     9    1
     9     9    10    2
    10    10    11    1
    11    11    12    2
    12    12    13    1
    13    13    14    1
    14    14    15    1
    15    15    16    2
    16    16    17    1
    17    17    18    2
    18    18    19    1
    19    19    20    1
    20    20    21    1
    21    21    22    1
    22    22    23    1
    23    23    24    1
    24    18    25    1
    25    25    26    2
    26    13    27    2
    27     8    28    1
    28    28    29    2
    29    29     5    1
    30    27     9    1
    31    26    15    1
    32    24    19    1
@<TRIPOS>SUBSTRUCTURE
     1 RES1        1 GROUP             0 ****  ****    0  
@<TRIPOS>MOLECULE
ligand_45
    29    32     1     0     0
SMALL
NO_CHARGES
****
Generated from the CSD

@<TRIPOS>ATOM
     1 C1     -18.1017 -11.2413 -10.9153   C.3       1 RES1   0.0000
     2 C2     -16.5888 -11.1808 -10.7051   C.2       1 RES1   0.0000
     3 O3     -16.1277 -10.7781  -9.6376   O.2       1 RES1   0.0000
     4 N4     -15.8720 -11.5926 -11.7567   N.am      1 RES1   0.0000
     5 C5     -14.5344 -11.6415 -11.8405   C.2       1 RES1   0.0000
     6 C6     -13.6915 -11.2507 -10.7948   C.2       1 RES1   0.0000
     7 C7     -12.3065 -11.3264 -10.9387   C.2       1 RES1   0.0000
     8 C8     -11.7491 -11.7898 -12.1330   C.2       1 RES1   0.0000
     9 C9     -10.3654 -11.8814 -12.2993   C.2       1 RES1   0.0000
    10 C10     -9.8036 -12.3146 -13.4976   C.2       1 RES1   0.0000
    11 C11     -8.4174 -12.3726 -13.5951   C.2       1 RES1   0.0000
    12 N12     -7.6628 -12.0203 -12.5643   N.2       1 RES1   0.0000
    13 C13     -8.2102 -11.5977 -11.4085   C.2       1 RES1   0.0000
    14 N14     -7.3925 -11.2542 -10.4018   N.2       1 RES1   0.0000
    15 C15     -6.0481 -11.2471 -10.4154   C.2       1 RES1   0.0000
    16 C16     -5.3834 -11.6649  -9.2634   C.2       1 RES1   0.0000
    17 C17     -3.9918 -11.6833  -9.2085   C.2       1 RES1   0.0000
    18 C18     -3.2355 -11.2846 -10.3127   C.2       1 RES1   0.0000
    19 N19     -1.8220 -11.3145 -10.2488   N.3       1 RES1   0.0000
    20 C20     -1.2633 -10.0330 -10.6692   C.3       1 RES1   0.0000
    21 C21      0.3091 -10.0617 -10.6916   C.3       1 RES1   0.0000
    22 O22      0.7200 -11.1223 -11.5533   O.3       1 RES1   0.0000
    23 C23      0.2555 -12.3482 -11.0562   C.3       1 RES1   0.0000
    24 C24     -1.2750 -12.3836 -11.0853   C.3       1 RES1   0.0000
    25 C25     -3.8977 -10.8688 -11.4725   C.2       1 RES1   0.0000
    26 C26     -5.2917 -10.8530 -11.5237   C.2       1 RES1   0.0000
    27 N27     -9.5503 -11.5331 -11.2876   N.2       1 RES1   0.0000
    28 C28    -12.5918 -12.1821 -13.1748   C.2       1 RES1   0.0000
    29 C29    -13.9756 -12.1070 -13.0300   C.2       1 RES1   0.0000
@<TRIPOS>BOND
     1     1     2    1
     2     2     3    2
     3     2     4   am
     4     4     5    1
     5     5     6    2
     6     6     7    1
     7     7     8    2
     8     8     9    1
     9     9    10    2
    10    10    11    1
    11    11    12    2
    12    12    13    1
    13    13    14    1
    14    14    15    1
    15    15    16    2
    16    16    17    1
    17    17    18    2
    18    18    19    1
    19    19    20    1
    20    20    21    1
    21    21    22    1
    22    22    23    1
    23    23    24    1
    24    18    25    1
    25    25    26    2
    26    13    27    2
    27     8    28    1
    28    28    29    2
    29    29     5    1
    30    27     9    1
    31    26    15    1
    32    24    19    1
@<TRIPOS>SUBSTRUCTURE
     1 RES1        1 GROUP             0 ****  ****    0  
@<TRIPOS>MOLECULE
ligand_46
    29    32     1     0     0
SMALL
NO_CHARGES
****
Generated from the CSD

@<TRIPOS>ATOM
     1 C1      -7.7350  -9.0338   6.1046   C.3       1 RES1   0.0000
     2 C2      -6.6396  -8.0309   6.4665   C.2       1 RES1   0.0000
     3 O3      -6.3367  -7.1342   5.6798   O.2       1 RES1   0.0000
     4 N4      -6.0848  -8.2339   7.6665   N.am      1 RES1   0.0000
     5 C5      -5.0948  -7.5175   8.2192   C.2       1 RES1   0.0000
     6 C6      -4.0819  -6.9125   7.4676   C.2       1 RES1   0.0000
     7 C7      -3.0792  -6.1764   8.0978   C.2       1 RES1   0.0000
     8 C8      -3.0760  -6.0412   9.4883   C.2       1 RES1   0.0000
     9 C9      -2.0868  -5.3036  10.1425   C.2       1 RES1   0.0000
    10 C10     -2.0614  -5.1904  11.5302   C.2       1 RES1   0.0000
    11 C11     -1.0414  -4.4470  12.1144   C.2       1 RES1   0.0000
    12 N12     -0.1227  -3.8669  11.3558   N.2       1 RES1   0.0000
    13 C13     -0.1485  -3.9825  10.0141   C.2       1 RES1   0.0000
    14 N14      0.8105  -3.3722   9.3013   N.2       1 RES1   0.0000
    15 C15      1.5678  -2.3301   9.6860   C.2       1 RES1   0.0000
    16 C16      2.5199  -1.8507   8.7876   C.2       1 RES1   0.0000
    17 C17      3.3378  -0.7736   9.1205   C.2       1 RES1   0.0000
    18 C18      3.2154  -0.1511  10.3645   C.2       1 RES1   0.0000
    19 N19      4.0464   0.9474  10.6897   N.pl3     1 RES1   0.0000
    20 C20      3.9200   1.7073  11.9411   C.3       1 RES1   0.0000
    21 C21      4.2675   3.1569  11.6783   C.3       1 RES1   0.0000
    22 O22      5.5852   3.2738  11.1365   O.3       1 RES1   0.0000
    23 C23      5.6809   2.5568   9.9123   C.3       1 RES1   0.0000
    24 C24      5.3768   1.0775  10.0972   C.3       1 RES1   0.0000
    25 C25      2.2586  -0.6255  11.2679   C.2       1 RES1   0.0000
    26 C26      1.4405  -1.7038  10.9300   C.2       1 RES1   0.0000
    27 N27     -1.1262  -4.6962   9.4231   N.2       1 RES1   0.0000
    28 C28     -4.0893  -6.6434  10.2368   C.2       1 RES1   0.0000
    29 C29     -5.0914  -7.3779   9.6064   C.2       1 RES1   0.0000
@<TRIPOS>BOND
     1     1     2    1
     2     2     3    2
     3     2     4   am
     4     4     5    1
     5     5     6    2
     6     6     7    1
     7     7     8    2
     8     8     9    1
     9     9    10    2
    10    10    11    1
    11    11    12    2
    12    12    13    1
    13    13    14    1
    14    14    15    1
    15    15    16    2
    16    16    17    1
    17    17    18    2
    18    18    19    1
    19    19    20    1
    20    20    21    1
    21    21    22    1
    22    22    23    1
    23    23    24    1
    24    18    25    1
    25    25    26    2
    26    13    27    2
    27     8    28    1
    28    28    29    2
    29    29     5    1
    30    27     9    1
    31    26    15    1
    32    24    19    1
@<TRIPOS>SUBSTRUCTURE
     1 RES1        1 GROUP             0 ****  ****    0  
@<TRIPOS>MOLECULE
ligand_47
    29    32     1     0     0
SMALL
NO_CHARGES
****
Generated from the CSD

@<TRIPOS>ATOM
     1 C1      -4.0711 -12.6680   6.3923   C.3       1 RES1   0.0000
     2 C2      -3.0940 -11.5233   6.1247   C.2       1 RES1   0.0000
     3 O3      -2.2672 -11.6144   5.2177   O.2       1 RES1   0.0000
     4 N4      -3.2377 -10.4765   6.9448   N.am      1 RES1   0.0000
     5 C5      -2.5283  -9.3386   6.9178   C.2       1 RES1   0.0000
     6 C6      -2.0216  -8.7855   5.7371   C.2       1 RES1   0.0000
     7 C7      -1.2927  -7.5971   5.7704   C.2       1 RES1   0.0000
     8 C8      -1.0584  -6.9511   6.9867   C.2       1 RES1   0.0000
     9 C9      -0.3372  -5.7565   7.0457   C.2       1 RES1   0.0000
    10 C10      0.1617  -5.1501   5.8957   C.2       1 RES1   0.0000
    11 C11      0.8633  -3.9566   6.0288   C.2       1 RES1   0.0000
    12 N12      1.0440  -3.4213   7.2274   N.2       1 RES1   0.0000
    13 C13      0.5560  -4.0089   8.3368   C.2       1 RES1   0.0000
    14 N14      0.7716  -3.4170   9.5214   N.2       1 RES1   0.0000
    15 C15      1.7414  -2.5360   9.8231   C.2       1 RES1   0.0000
    16 C16      1.7817  -2.0321  11.1223   C.2       1 RES1   0.0000
    17 C17      2.7597  -1.1165  11.5034   C.2       1 RES1   0.0000
    18 C18      3.7226  -0.6883  10.5872   C.2       1 RES1   0.0000
    19 N19      4.7164   0.2365  10.9871   N.pl3     1 RES1   0.0000
    20 C20      4.7134   0.9023  12.2972   C.3       1 RES1   0.0000
    21 C21      5.2837   2.2963  12.1463   C.3       1 RES1   0.0000
    22 O22      6.6024   2.2495  11.5963   O.3       1 RES1   0.0000
    23 C23      6.5819   1.6285  10.3173   C.3       1 RES1   0.0000
    24 C24      6.0495   0.2048  10.3875   C.3       1 RES1   0.0000
    25 C25      3.6891  -1.1943   9.2835   C.2       1 RES1   0.0000
    26 C26      2.7086  -2.1121   8.9062   C.2       1 RES1   0.0000
    27 N27     -0.1264  -5.1659   8.2357   N.2       1 RES1   0.0000
    28 C28     -1.5671  -7.5031   8.1640   C.2       1 RES1   0.0000
    29 C29     -2.2961  -8.6900   8.1299   C.2       1 RES1   0.0000
@<TRIPOS>BOND
     1     1     2    1
     2     2     3    2
     3     2     4   am
     4     4     5    1
     5     5     6    2
     6     6     7    1
     7     7     8    2
     8     8     9    1
     9     9    10    2
    10    10    11    1
    11    11    12    2
    12    12    13    1
    13    13    14    1
    14    14    15    1
    15    15    16    2
    16    16    17    1
    17    17    18    2
    18    18    19    1
    19    19    20    1
    20    20    21    1
    21    21    22    1
    22    22    23    1
    23    23    24    1
    24    18    25    1
    25    25    26    2
    26    13    27    2
    27     8    28    1
    28    28    29    2
    29    29     5    1
    30    27     9    1
    31    26    15    1
    32    24    19    1
@<TRIPOS>SUBSTRUCTURE
     1 RES1        1 GROUP             0 ****  ****    0  
@<TRIPOS>MOLECULE
ligand_48
    29    32     1     0     0
SMALL
NO_CHARGES
****
Generated from the CSD

@<TRIPOS>ATOM
     1 C1      -6.1345 -11.1403   6.6911   C.3       1 RES1   0.0000
     2 C2      -4.9970 -10.1402   6.8980   C.2       1 RES1   0.0000
     3 O3      -3.8258 -10.5082   6.8114   O.2       1 RES1   0.0000
     4 N4      -5.4038  -8.8949   7.1680   N.am      1 RES1   0.0000
     5 C5      -4.6194  -7.8304   7.3918   C.2       1 RES1   0.0000
     6 C6      -3.2223  -7.8963   7.3697   C.2       1 RES1   0.0000
     7 C7      -2.4580  -6.7544   7.6071   C.2       1 RES1   0.0000
     8 C8      -3.0834  -5.5340   7.8742   C.2       1 RES1   0.0000
     9 C9      -2.3403  -4.3749   8.1086   C.2       1 RES1   0.0000
    10 C10     -2.8361  -3.1147   7.7843   C.2       1 RES1   0.0000
    11 C11     -2.0445  -2.0033   8.0540   C.2       1 RES1   0.0000
    12 N12     -0.8500  -2.1558   8.6070   N.2       1 RES1   0.0000
    13 C13     -0.3761  -3.3763   8.9231   C.2       1 RES1   0.0000
    14 N14      0.8406  -3.4647   9.4818   N.2       1 RES1   0.0000
    15 C15      1.6963  -2.4567   9.7254   C.2       1 RES1   0.0000
    16 C16      2.4962  -2.5429  10.8638   C.2       1 RES1   0.0000
    17 C17      3.4049  -1.5347  11.1765   C.2       1 RES1   0.0000
    18 C18      3.5327  -0.4168  10.3494   C.2       1 RES1   0.0000
    19 N19      4.4645   0.5982  10.6723   N.pl3     1 RES1   0.0000
    20 C20      4.5489   1.2173  12.0024   C.3       1 RES1   0.0000
    21 C21      4.9471   2.6696  11.8491   C.3       1 RES1   0.0000
    22 O22      6.1877   2.7855  11.1482   O.3       1 RES1   0.0000
    23 C23      6.0790   2.2073   9.8536   C.3       1 RES1   0.0000
    24 C24      5.7118   0.7323   9.9212   C.3       1 RES1   0.0000
    25 C25      2.7354  -0.3277   9.2035   C.2       1 RES1   0.0000
    26 C26      1.8274  -1.3403   8.8933   C.2       1 RES1   0.0000
    27 N27     -1.1223  -4.4692   8.6715   N.2       1 RES1   0.0000
    28 C28     -4.4780  -5.4693   7.8933   C.2       1 RES1   0.0000
    29 C29     -5.2411  -6.6105   7.6550   C.2       1 RES1   0.0000
@<TRIPOS>BOND
     1     1     2    1
     2     2     3    2
     3     2     4   am
     4     4     5    1
     5     5     6    2
     6     6     7    1
     7     7     8    2
     8     8     9    1
     9     9    10    2
    10    10    11    1
    11    11    12    2
    12    12    13    1
    13    13    14    1
    14    14    15    1
    15    15    16    2
    16    16    17    1
    17    17    18    2
    18    18    19    1
    19    19    20    1
    20    20    21    1
    21    21    22    1
    22    22    23    1
    23    23    24    1
    24    18    25    1
    25    25    26    2
    26    13    27    2
    27     8    28    1
    28    28    29    2
    29    29     5    1
    30    27     9    1
    31    26    15    1
    32    24    19    1
@<TRIPOS>SUBSTRUCTURE
     1 RES1        1 GROUP             0 ****  ****    0  
@<TRIPOS>MOLECULE
ligand_49
    29    32     1     0     0
SMALL
NO_CHARGES
****
Generated from the CSD

@<TRIPOS>ATOM
     1 C1      -6.2965 -11.1253   7.1305   C.3       1 RES1   0.0000
     2 C2      -5.3409 -10.0849   7.7147   C.2       1 RES1   0.0000
     3 O3      -4.6681 -10.3520   8.7100   O.2       1 RES1   0.0000
     4 N4      -5.3260  -8.9218   7.0542   N.am      1 RES1   0.0000
     5 C5      -4.5841  -7.8449   7.3518   C.2       1 RES1   0.0000
     6 C6      -3.6994  -7.8057   8.4346   C.2       1 RES1   0.0000
     7 C7      -2.9511  -6.6579   8.6935   C.2       1 RES1   0.0000
     8 C8      -3.0834  -5.5340   7.8742   C.2       1 RES1   0.0000
     9 C9      -2.3403  -4.3749   8.1086   C.2       1 RES1   0.0000
    10 C10     -2.8361  -3.1147   7.7843   C.2       1 RES1   0.0000
    11 C11     -2.0445  -2.0033   8.0540   C.2       1 RES1   0.0000
    12 N12     -0.8500  -2.1558   8.6070   N.2       1 RES1   0.0000
    13 C13     -0.3761  -3.3763   8.9231   C.2       1 RES1   0.0000
    14 N14      0.8406  -3.4647   9.4818   N.2       1 RES1   0.0000
    15 C15      1.6963  -2.4567   9.7254   C.2       1 RES1   0.0000
    16 C16      2.4962  -2.5429  10.8638   C.2       1 RES1   0.0000
    17 C17      3.4049  -1.5346  11.1765   C.2       1 RES1   0.0000
    18 C18      3.5327  -0.4168  10.3493   C.2       1 RES1   0.0000
    19 N19      4.4646   0.5982  10.6723   N.pl3     1 RES1   0.0000
    20 C20      4.5490   1.2174  12.0024   C.3       1 RES1   0.0000
    21 C21      4.9472   2.6696  11.8490   C.3       1 RES1   0.0000
    22 O22      6.1877   2.7855  11.1482   O.3       1 RES1   0.0000
    23 C23      6.0791   2.2073   9.8536   C.3       1 RES1   0.0000
    24 C24      5.7118   0.7323   9.9212   C.3       1 RES1   0.0000
    25 C25      2.7354  -0.3277   9.2034   C.2       1 RES1   0.0000
    26 C26      1.8274  -1.3403   8.8933   C.2       1 RES1   0.0000
    27 N27     -1.1223  -4.4692   8.6715   N.2       1 RES1   0.0000
    28 C28     -3.9649  -5.5757   6.7923   C.2       1 RES1   0.0000
    29 C29     -4.7115  -6.7232   6.5336   C.2       1 RES1   0.0000
@<TRIPOS>BOND
     1     1     2    1
     2     2     3    2
     3     2     4   am
     4     4     5    1
     5     5     6    2
     6     6     7    1
     7     7     8    2
     8     8     9    1
     9     9    10    2
    10    10    11    1
    11    11    12    2
    12    12    13    1
    13    13    14    1
    14    14    15    1
    15    15    16    2
    16    16    17    1
    17    17    18    2
    18    18    19    1
    19    19    20    1
    20    20    21    1
    21    21    22    1
    22    22    23    1
    23    23    24    1
    24    18    25    1
    25    25    26    2
    26    13    27    2
    27     8    28    1
    28    28    29    2
    29    29     5    1
    30    27     9    1
    31    26    15    1
    32    24    19    1
@<TRIPOS>SUBSTRUCTURE
     1 RES1        1 GROUP             0 ****  ****    0  
@<TRIPOS>MOLECULE
ligand_50
    29    32     1     0     0
SMALL
NO_CHARGES
****
Generated from the CSD

@<TRIPOS>ATOM
     1 C1      -6.7599 -10.6896   6.4452   C.3       1 RES1   0.0000
     2 C2      -6.1514  -9.2902   6.3543   C.2       1 RES1   0.0000
     3 O3      -6.5014  -8.5198   5.4608   O.2       1 RES1   0.0000
     4 N4      -5.2486  -9.0220   7.3041   N.am      1 RES1   0.0000
     5 C5      -4.5663  -7.8773   7.4557   C.2       1 RES1   0.0000
     6 C6      -4.7222  -6.7796   6.6027   C.2       1 RES1   0.0000
     7 C7      -3.9870  -5.6133   6.8117   C.2       1 RES1   0.0000
     8 C8      -3.0834  -5.5340   7.8742   C.2       1 RES1   0.0000
     9 C9      -2.3403  -4.3749   8.1086   C.2       1 RES1   0.0000
    10 C10     -2.8361  -3.1147   7.7843   C.2       1 RES1   0.0000
    11 C11     -2.0445  -2.0033   8.0540   C.2       1 RES1   0.0000
    12 N12     -0.8500  -2.1558   8.6070   N.2       1 RES1   0.0000
    13 C13     -0.3761  -3.3763   8.9231   C.2       1 RES1   0.0000
    14 N14      0.8406  -3.4647   9.4818   N.2       1 RES1   0.0000
    15 C15      1.6963  -2.4567   9.7254   C.2       1 RES1   0.0000
    16 C16      2.4962  -2.5429  10.8638   C.2       1 RES1   0.0000
    17 C17      3.4049  -1.5346  11.1765   C.2       1 RES1   0.0000
    18 C18      3.5327  -0.4168  10.3493   C.2       1 RES1   0.0000
    19 N19      4.4646   0.5982  10.6723   N.pl3     1 RES1   0.0000
    20 C20      4.5490   1.2174  12.0024   C.3       1 RES1   0.0000
    21 C21      4.9472   2.6696  11.8490   C.3       1 RES1   0.0000
    22 O22      6.1877   2.7855  11.1482   O.3       1 RES1   0.0000
    23 C23      6.0791   2.2073   9.8536   C.3       1 RES1   0.0000
    24 C24      5.7118   0.7323   9.9212   C.3       1 RES1   0.0000
    25 C25      2.7354  -0.3277   9.2034   C.2       1 RES1   0.0000
    26 C26      1.8274  -1.3403   8.8933   C.2       1 RES1   0.0000
    27 N27     -1.1223  -4.4692   8.6715   N.2       1 RES1   0.0000
    28 C28     -2.9309  -6.6296   8.7263   C.2       1 RES1   0.0000
    29 C29     -3.6666  -7.7942   8.5175   C.2       1 RES1   0.0000
@<TRIPOS>BOND
     1     1     2    1
     2     2     3    2
     3     2     4   am
     4     4     5    1
     5     5     6    2
     6     6     7    1
     7     7     8    2
     8     8     9    1
     9     9    10    2
    10    10    11    1
    11    11    12    2
    12    12    13    1
    13    13    14    1
    14    14    15    1
    15    15    16    2
    16    16    17    1
    17    17    18    2
    18    18    19    1
    19    19    20    1
    20    20    21    1
    21    21    22    1
    22    22    23    1
    23    23    24    1
    24    18    25    1
    25    25    26    2
    26    13    27    2
    27     8    28    1
    28    28    29    2
    29    29     5    1
    30    27     9    1
    31    26    15    1
    32    24    19    1
@<TRIPOS>SUBSTRUCTURE
     1 RES1        1 GROUP             0 ****  ****    0  
@<TRIPOS>MOLECULE
ligand_51
    29    32     1     0     0
SMALL
NO_CHARGES
****
Generated from the CSD

@<TRIPOS>ATOM
     1 C1      -9.6920   9.1891  -9.8648   C.3       1 RES1   0.0000
     2 C2      -8.4391   8.3352 -10.0597   C.2       1 RES1   0.0000
     3 O3      -8.4492   7.3928 -10.8512   O.2       1 RES1   0.0000
     4 N4      -7.3962   8.7128  -9.3122   N.am      1 RES1   0.0000
     5 C5      -6.1836   8.1404  -9.2875   C.2       1 RES1   0.0000
     6 C6      -5.8487   7.0325 -10.0731   C.2       1 RES1   0.0000
     7 C7      -4.5696   6.4813 -10.0073   C.2       1 RES1   0.0000
     8 C8      -3.6119   7.0298  -9.1507   C.2       1 RES1   0.0000
     9 C9      -2.3220   6.5002  -9.0716   C.2       1 RES1   0.0000
    10 C10     -1.2264   7.2976  -8.7508   C.2       1 RES1   0.0000
    11 C11      0.0280   6.7007  -8.6813   C.2       1 RES1   0.0000
    12 N12      0.1613   5.4035  -8.9167   N.2       1 RES1   0.0000
    13 C13     -0.9017   4.6351  -9.2225   C.2       1 RES1   0.0000
    14 N14     -0.7017   3.3279  -9.4492   N.2       1 RES1   0.0000
    15 C15     -1.6349   2.4011  -9.7283   C.2       1 RES1   0.0000
    16 C16     -1.2776   1.3519 -10.5738   C.2       1 RES1   0.0000
    17 C17     -2.1945   0.3569 -10.9045   C.2       1 RES1   0.0000
    18 C18     -3.4922   0.3922 -10.3898   C.2       1 RES1   0.0000
    19 N19     -4.4136  -0.6280 -10.7262   N.pl3     1 RES1   0.0000
    20 C20     -4.6674  -1.0571 -12.1086   C.3       1 RES1   0.0000
    21 C21     -4.9700  -2.5402 -12.1199   C.3       1 RES1   0.0000
    22 O22     -6.0849  -2.8381 -11.2761   O.3       1 RES1   0.0000
    23 C23     -5.8105  -2.4428  -9.9379   C.3       1 RES1   0.0000
    24 C24     -5.5267  -0.9515  -9.8350   C.3       1 RES1   0.0000
    25 C25     -3.8543   1.4405  -9.5375   C.2       1 RES1   0.0000
    26 C26     -2.9326   2.4344  -9.2078   C.2       1 RES1   0.0000
    27 N27     -2.1276   5.1885  -9.2971   N.2       1 RES1   0.0000
    28 C28     -3.9469   8.1374  -8.3692   C.2       1 RES1   0.0000
    29 C29     -5.2249   8.6882  -8.4361   C.2       1 RES1   0.0000
@<TRIPOS>BOND
     1     1     2    1
     2     2     3    2
     3     2     4   am
     4     4     5    1
     5     5     6    2
     6     6     7    1
     7     7     8    2
     8     8     9    1
     9     9    10    2
    10    10    11    1
    11    11    12    2
    12    12    13    1
    13    13    14    1
    14    14    15    1
    15    15    16    2
    16    16    17    1
    17    17    18    2
    18    18    19    1
    19    19    20    1
    20    20    21    1
    21    21    22    1
    22    22    23    1
    23    23    24    1
    24    18    25    1
    25    25    26    2
    26    13    27    2
    27     8    28    1
    28    28    29    2
    29    29     5    1
    30    27     9    1
    31    26    15    1
    32    24    19    1
@<TRIPOS>SUBSTRUCTURE
     1 RES1        1 GROUP             0 ****  ****    0  
@<TRIPOS>MOLECULE
ligand_52
    29    32     1     0     0
SMALL
NO_CHARGES
****
Generated from the CSD

@<TRIPOS>ATOM
     1 C1      -9.7706   9.0640  -9.4202   C.3       1 RES1   0.0000
     2 C2      -8.5711   8.1414  -9.2035   C.2       1 RES1   0.0000
     3 O3      -8.7421   6.9811  -8.8307   O.2       1 RES1   0.0000
     4 N4      -7.3876   8.7128  -9.4523   N.am      1 RES1   0.0000
     5 C5      -6.1832   8.1333  -9.3423   C.2       1 RES1   0.0000
     6 C6      -6.0115   6.8056  -8.9366   C.2       1 RES1   0.0000
     7 C7      -4.7335   6.2556  -8.8434   C.2       1 RES1   0.0000
     8 C8      -3.6119   7.0298  -9.1507   C.2       1 RES1   0.0000
     9 C9      -2.3220   6.5002  -9.0716   C.2       1 RES1   0.0000
    10 C10     -1.2264   7.2976  -8.7508   C.2       1 RES1   0.0000
    11 C11      0.0280   6.7007  -8.6813   C.2       1 RES1   0.0000
    12 N12      0.1613   5.4035  -8.9167   N.2       1 RES1   0.0000
    13 C13     -0.9017   4.6351  -9.2225   C.2       1 RES1   0.0000
    14 N14     -0.7017   3.3279  -9.4492   N.2       1 RES1   0.0000
    15 C15     -1.6349   2.4011  -9.7283   C.2       1 RES1   0.0000
    16 C16     -1.2776   1.3519 -10.5738   C.2       1 RES1   0.0000
    17 C17     -2.1945   0.3569 -10.9045   C.2       1 RES1   0.0000
    18 C18     -3.4922   0.3922 -10.3898   C.2       1 RES1   0.0000
    19 N19     -4.4136  -0.6280 -10.7262   N.pl3     1 RES1   0.0000
    20 C20     -4.6674  -1.0571 -12.1086   C.3       1 RES1   0.0000
    21 C21     -4.9700  -2.5402 -12.1199   C.3       1 RES1   0.0000
    22 O22     -6.0849  -2.8381 -11.2761   O.3       1 RES1   0.0000
    23 C23     -5.8105  -2.4428  -9.9380   C.3       1 RES1   0.0000
    24 C24     -5.5267  -0.9515  -9.8350   C.3       1 RES1   0.0000
    25 C25     -3.8543   1.4405  -9.5375   C.2       1 RES1   0.0000
    26 C26     -2.9326   2.4344  -9.2078   C.2       1 RES1   0.0000
    27 N27     -2.1276   5.1885  -9.2971   N.2       1 RES1   0.0000
    28 C28     -3.7851   8.3541  -9.5580   C.2       1 RES1   0.0000
    29 C29     -5.0624   8.9026  -9.6519   C.2       1 RES1   0.0000
@<TRIPOS>BOND
     1     1     2    1
     2     2     3    2
     3     2     4   am
     4     4     5    1
     5     5     6    2
     6     6     7    1
     7     7     8    2
     8     8     9    1
     9     9    10    2
    10    10    11    1
    11    11    12    2
    12    12    13    1
    13    13    14    1
    14    14    15    1
    15    15    16    2
    16    16    17    1
    17    17    18    2
    18    18    19    1
    19    19    20    1
    20    20    21    1
    21    21    22    1
    22    22    23    1
    23    23    24    1
    24    18    25    1
    25    25    26    2
    26    13    27    2
    27     8    28    1
    28    28    29    2
    29    29     5    1
    30    27     9    1
    31    26    15    1
    32    24    19    1
@<TRIPOS>SUBSTRUCTURE
     1 RES1        1 GROUP             0 ****  ****    0  
@<TRIPOS>MOLECULE
ligand_53
    29    32     1     0     0
SMALL
NO_CHARGES
****
Generated from the CSD

@<TRIPOS>ATOM
     1 C1      -9.4913   9.7817  -9.1699   C.3       1 RES1   0.0000
     2 C2      -8.0286   9.5215  -8.8095   C.2       1 RES1   0.0000
     3 O3      -7.4575  10.2357  -7.9859   O.2       1 RES1   0.0000
     4 N4      -7.4795   8.4883  -9.4576   N.am      1 RES1   0.0000
     5 C5      -6.2198   8.0457  -9.3310   C.2       1 RES1   0.0000
     6 C6      -5.2885   8.6361  -8.4701   C.2       1 RES1   0.0000
     7 C7      -3.9924   8.1300  -8.3782   C.2       1 RES1   0.0000
     8 C8      -3.6119   7.0298  -9.1507   C.2       1 RES1   0.0000
     9 C9      -2.3220   6.5002  -9.0716   C.2       1 RES1   0.0000
    10 C10     -1.2264   7.2976  -8.7508   C.2       1 RES1   0.0000
    11 C11      0.0280   6.7007  -8.6813   C.2       1 RES1   0.0000
    12 N12      0.1613   5.4035  -8.9167   N.2       1 RES1   0.0000
    13 C13     -0.9017   4.6351  -9.2225   C.2       1 RES1   0.0000
    14 N14     -0.7017   3.3279  -9.4492   N.2       1 RES1   0.0000
    15 C15     -1.6349   2.4011  -9.7283   C.2       1 RES1   0.0000
    16 C16     -1.2776   1.3519 -10.5738   C.2       1 RES1   0.0000
    17 C17     -2.1945   0.3569 -10.9045   C.2       1 RES1   0.0000
    18 C18     -3.4922   0.3922 -10.3898   C.2       1 RES1   0.0000
    19 N19     -4.4136  -0.6280 -10.7262   N.pl3     1 RES1   0.0000
    20 C20     -4.6674  -1.0571 -12.1086   C.3       1 RES1   0.0000
    21 C21     -4.9700  -2.5402 -12.1199   C.3       1 RES1   0.0000
    22 O22     -6.0849  -2.8381 -11.2761   O.3       1 RES1   0.0000
    23 C23     -5.8105  -2.4428  -9.9380   C.3       1 RES1   0.0000
    24 C24     -5.5267  -0.9515  -9.8350   C.3       1 RES1   0.0000
    25 C25     -3.8543   1.4405  -9.5375   C.2       1 RES1   0.0000
    26 C26     -2.9326   2.4344  -9.2078   C.2       1 RES1   0.0000
    27 N27     -2.1276   5.1885  -9.2971   N.2       1 RES1   0.0000
    28 C28     -4.5434   6.4401 -10.0074   C.2       1 RES1   0.0000
    29 C29     -5.8386   6.9457 -10.0980   C.2       1 RES1   0.0000
@<TRIPOS>BOND
     1     1     2    1
     2     2     3    2
     3     2     4   am
     4     4     5    1
     5     5     6    2
     6     6     7    1
     7     7     8    2
     8     8     9    1
     9     9    10    2
    10    10    11    1
    11    11    12    2
    12    12    13    1
    13    13    14    1
    14    14    15    1
    15    15    16    2
    16    16    17    1
    17    17    18    2
    18    18    19    1
    19    19    20    1
    20    20    21    1
    21    21    22    1
    22    22    23    1
    23    23    24    1
    24    18    25    1
    25    25    26    2
    26    13    27    2
    27     8    28    1
    28    28    29    2
    29    29     5    1
    30    27     9    1
    31    26    15    1
    32    24    19    1
@<TRIPOS>SUBSTRUCTURE
     1 RES1        1 GROUP             0 ****  ****    0  
@<TRIPOS>MOLECULE
ligand_54
    29    32     1     0     0
SMALL
NO_CHARGES
****
Generated from the CSD

@<TRIPOS>ATOM
     1 C1       2.8820   0.7075  -0.2021   C.3       1 RES1   0.0000
     2 C2       2.4612   0.3302   1.2182   C.2       1 RES1   0.0000
     3 O3       2.4684   1.1767   2.1115   O.2       1 RES1   0.0000
     4 N4       2.1068  -0.9514   1.3630   N.am      1 RES1   0.0000
     5 C5       1.6991  -1.5432   2.4954   C.2       1 RES1   0.0000
     6 C6       1.5909  -0.8635   3.7132   C.2       1 RES1   0.0000
     7 C7       1.1580  -1.5313   4.8582   C.2       1 RES1   0.0000
     8 C8       0.8328  -2.8887   4.7987   C.2       1 RES1   0.0000
     9 C9       0.3905  -3.5782   5.9298   C.2       1 RES1   0.0000
    10 C10     -0.4753  -4.6641   5.8277   C.2       1 RES1   0.0000
    11 C11     -0.8676  -5.3090   6.9960   C.2       1 RES1   0.0000
    12 N12     -0.4193  -4.8891   8.1702   N.2       1 RES1   0.0000
    13 C13      0.4215  -3.8411   8.2640   C.2       1 RES1   0.0000
    14 N14      0.8406  -3.4647   9.4818   N.2       1 RES1   0.0000
    15 C15      1.6581  -2.4389   9.7768   C.2       1 RES1   0.0000
    16 C16      2.5754  -2.6147  10.8117   C.2       1 RES1   0.0000
    17 C17      3.4528  -1.5938  11.1697   C.2       1 RES1   0.0000
    18 C18      3.4302  -0.3726  10.4929   C.2       1 RES1   0.0000
    19 N19      4.3312   0.6553  10.8599   N.pl3     1 RES1   0.0000
    20 C20      4.5177   1.1023  12.2473   C.3       1 RES1   0.0000
    21 C21      4.8145   2.5866  12.2545   C.3       1 RES1   0.0000
    22 O22      5.9670   2.8786  11.4607   O.3       1 RES1   0.0000
    23 C23      5.7577   2.4658  10.1161   C.3       1 RES1   0.0000
    24 C24      5.4841   0.9723  10.0184   C.3       1 RES1   0.0000
    25 C25      2.5146  -0.1927   9.4508   C.2       1 RES1   0.0000
    26 C26      1.6384  -1.2182   9.0946   C.2       1 RES1   0.0000
    27 N27      0.8161  -3.1984   7.1479   N.2       1 RES1   0.0000
    28 C28      0.9388  -3.5651   3.5818   C.2       1 RES1   0.0000
    29 C29      1.3704  -2.8970   2.4378   C.2       1 RES1   0.0000
@<TRIPOS>BOND
     1     1     2    1
     2     2     3    2
     3     2     4   am
     4     4     5    1
     5     5     6    2
     6     6     7    1
     7     7     8    2
     8     8     9    1
     9     9    10    2
    10    10    11    1
    11    11    12    2
    12    12    13    1
    13    13    14    1
    14    14    15    1
    15    15    16    2
    16    16    17    1
    17    17    18    2
    18    18    19    1
    19    19    20    1
    20    20    21    1
    21    21    22    1
    22    22    23    1
    23    23    24    1
    24    18    25    1
    25    25    26    2
    26    13    27    2
    27     8    28    1
    28    28    29    2
    29    29     5    1
    30    27     9    1
    31    26    15    1
    32    24    19    1
@<TRIPOS>SUBSTRUCTURE
     1 RES1        1 GROUP             0 ****  ****    0  
@<TRIPOS>MOLECULE
ligand_55
    29    32     1     0     0
SMALL
NO_CHARGES
****
Generated from the CSD

@<TRIPOS>ATOM
     1 C1       2.8837  -0.0911  -0.6884   C.3       1 RES1   0.0000
     2 C2       2.3725  -1.1651   0.2720   C.2       1 RES1   0.0000
     3 O3       2.1705  -2.3103  -0.1308   O.2       1 RES1   0.0000
     4 N4       2.1830  -0.7355   1.5245   N.am      1 RES1   0.0000
     5 C5       1.7428  -1.4653   2.5600   C.2       1 RES1   0.0000
     6 C6       1.4144  -2.8207   2.4510   C.2       1 RES1   0.0000
     7 C7       0.9642  -3.5296   3.5642   C.2       1 RES1   0.0000
     8 C8       0.8328  -2.8887   4.7987   C.2       1 RES1   0.0000
     9 C9       0.3905  -3.5782   5.9298   C.2       1 RES1   0.0000
    10 C10     -0.4753  -4.6641   5.8277   C.2       1 RES1   0.0000
    11 C11     -0.8676  -5.3090   6.9960   C.2       1 RES1   0.0000
    12 N12     -0.4193  -4.8891   8.1702   N.2       1 RES1   0.0000
    13 C13      0.4215  -3.8411   8.2640   C.2       1 RES1   0.0000
    14 N14      0.8406  -3.4647   9.4818   N.2       1 RES1   0.0000
    15 C15      1.6581  -2.4389   9.7768   C.2       1 RES1   0.0000
    16 C16      2.5754  -2.6147  10.8117   C.2       1 RES1   0.0000
    17 C17      3.4528  -1.5938  11.1697   C.2       1 RES1   0.0000
    18 C18      3.4302  -0.3726  10.4929   C.2       1 RES1   0.0000
    19 N19      4.3312   0.6553  10.8599   N.pl3     1 RES1   0.0000
    20 C20      4.5177   1.1023  12.2473   C.3       1 RES1   0.0000
    21 C21      4.8145   2.5866  12.2545   C.3       1 RES1   0.0000
    22 O22      5.9670   2.8786  11.4607   O.3       1 RES1   0.0000
    23 C23      5.7577   2.4658  10.1161   C.3       1 RES1   0.0000
    24 C24      5.4841   0.9723  10.0184   C.3       1 RES1   0.0000
    25 C25      2.5146  -0.1927   9.4508   C.2       1 RES1   0.0000
    26 C26      1.6384  -1.2182   9.0946   C.2       1 RES1   0.0000
    27 N27      0.8161  -3.1984   7.1479   N.2       1 RES1   0.0000
    28 C28      1.1636  -1.5364   4.9064   C.2       1 RES1   0.0000
    29 C29      1.6144  -0.8290   3.7939   C.2       1 RES1   0.0000
@<TRIPOS>BOND
     1     1     2    1
     2     2     3    2
     3     2     4   am
     4     4     5    1
     5     5     6    2
     6     6     7    1
     7     7     8    2
     8     8     9    1
     9     9    10    2
    10    10    11    1
    11    11    12    2
    12    12    13    1
    13    13    14    1
    14    14    15    1
    15    15    16    2
    16    16    17    1
    17    17    18    2
    18    18    19    1
    19    19    20    1
    20    20    21    1
    21    21    22    1
    22    22    23    1
    23    23    24    1
    24    18    25    1
    25    25    26    2
    26    13    27    2
    27     8    28    1
    28    28    29    2
    29    29     5    1
    30    27     9    1
    31    26    15    1
    32    24    19    1
@<TRIPOS>SUBSTRUCTURE
     1 RES1        1 GROUP             0 ****  ****    0  
@<TRIPOS>MOLECULE
ligand_56
    29    32     1     0     0
SMALL
NO_CHARGES
****
Generated from the CSD

@<TRIPOS>ATOM
     1 C1      -5.5623 -11.5536   6.4941   C.3       1 RES1   0.0000
     2 C2      -4.4843 -10.5862   6.9829   C.2       1 RES1   0.0000
     3 O3      -3.8353 -10.8433   7.9964   O.2       1 RES1   0.0000
     4 N4      -4.3416  -9.4946   6.2231   N.am      1 RES1   0.0000
     5 C5      -3.4751  -8.4909   6.4237   C.2       1 RES1   0.0000
     6 C6      -2.5784  -8.4624   7.4970   C.2       1 RES1   0.0000
     7 C7      -1.6977  -7.3926   7.6528   C.2       1 RES1   0.0000
     8 C8      -1.7077  -6.3362   6.7387   C.2       1 RES1   0.0000
     9 C9      -0.8311  -5.2567   6.8691   C.2       1 RES1   0.0000
    10 C10     -0.3825  -4.5454   5.7591   C.2       1 RES1   0.0000
    11 C11      0.4826  -3.4759   5.9647   C.2       1 RES1   0.0000
    12 N12      0.8613  -3.1532   7.1929   N.2       1 RES1   0.0000
    13 C13      0.4215  -3.8411   8.2640   C.2       1 RES1   0.0000
    14 N14      0.8406  -3.4647   9.4818   N.2       1 RES1   0.0000
    15 C15      1.6464  -2.4301   9.7781   C.2       1 RES1   0.0000
    16 C16      2.5890  -2.6083  10.7896   C.2       1 RES1   0.0000
    17 C17      3.4561  -1.5787  11.1475   C.2       1 RES1   0.0000
    18 C18      3.3976  -0.3460  10.4941   C.2       1 RES1   0.0000
    19 N19      4.2885   0.6909  10.8605   N.pl3     1 RES1   0.0000
    20 C20      4.4974   1.1159  12.2516   C.3       1 RES1   0.0000
    21 C21      4.7685   2.6049  12.2799   C.3       1 RES1   0.0000
    22 O22      5.8982   2.9316  11.4671   O.3       1 RES1   0.0000
    23 C23      5.6669   2.5396  10.1199   C.3       1 RES1   0.0000
    24 C24      5.4171   1.0435  10.0005   C.3       1 RES1   0.0000
    25 C25      2.4565  -0.1636   9.4754   C.2       1 RES1   0.0000
    26 C26      1.5907  -1.1977   9.1191   C.2       1 RES1   0.0000
    27 N27     -0.4164  -4.8819   8.0925   N.2       1 RES1   0.0000
    28 C28     -2.6015  -6.3673   5.6664   C.2       1 RES1   0.0000
    29 C29     -3.4805  -7.4371   5.5108   C.2       1 RES1   0.0000
@<TRIPOS>BOND
     1     1     2    1
     2     2     3    2
     3     2     4   am
     4     4     5    1
     5     5     6    2
     6     6     7    1
     7     7     8    2
     8     8     9    1
     9     9    10    2
    10    10    11    1
    11    11    12    2
    12    12    13    1
    13    13    14    1
    14    14    15    1
    15    15    16    2
    16    16    17    1
    17    17    18    2
    18    18    19    1
    19    19    20    1
    20    20    21    1
    21    21    22    1
    22    22    23    1
    23    23    24    1
    24    18    25    1
    25    25    26    2
    26    13    27    2
    27     8    28    1
    28    28    29    2
    29    29     5    1
    30    27     9    1
    31    26    15    1
    32    24    19    1
@<TRIPOS>SUBSTRUCTURE
     1 RES1        1 GROUP             0 ****  ****    0  
@<TRIPOS>MOLECULE
ligand_57
    29    32     1     0     0
SMALL
NO_CHARGES
****
Generated from the CSD

@<TRIPOS>ATOM
     1 C1      -5.9256 -11.2676   6.5693   C.3       1 RES1   0.0000
     2 C2      -5.1751 -10.0368   7.0777   C.2       1 RES1   0.0000
     3 O3      -5.4565  -9.5481   8.1715   O.2       1 RES1   0.0000
     4 N4      -4.2346  -9.5837   6.2413   N.am      1 RES1   0.0000
     5 C5      -3.4346  -8.5255   6.4385   C.2       1 RES1   0.0000
     6 C6      -3.4894  -7.7340   7.5906   C.2       1 RES1   0.0000
     7 C7      -2.6294  -6.6468   7.7416   C.2       1 RES1   0.0000
     8 C8      -1.7077  -6.3362   6.7387   C.2       1 RES1   0.0000
     9 C9      -0.8311  -5.2567   6.8691   C.2       1 RES1   0.0000
    10 C10     -0.3825  -4.5454   5.7591   C.2       1 RES1   0.0000
    11 C11      0.4826  -3.4759   5.9647   C.2       1 RES1   0.0000
    12 N12      0.8613  -3.1532   7.1929   N.2       1 RES1   0.0000
    13 C13      0.4215  -3.8411   8.2640   C.2       1 RES1   0.0000
    14 N14      0.8406  -3.4647   9.4818   N.2       1 RES1   0.0000
    15 C15      1.6464  -2.4301   9.7781   C.2       1 RES1   0.0000
    16 C16      2.5890  -2.6083  10.7896   C.2       1 RES1   0.0000
    17 C17      3.4561  -1.5787  11.1475   C.2       1 RES1   0.0000
    18 C18      3.3976  -0.3460  10.4941   C.2       1 RES1   0.0000
    19 N19      4.2885   0.6909  10.8605   N.pl3     1 RES1   0.0000
    20 C20      4.4974   1.1159  12.2516   C.3       1 RES1   0.0000
    21 C21      4.7685   2.6049  12.2799   C.3       1 RES1   0.0000
    22 O22      5.8982   2.9316  11.4671   O.3       1 RES1   0.0000
    23 C23      5.6669   2.5396  10.1199   C.3       1 RES1   0.0000
    24 C24      5.4171   1.0435  10.0005   C.3       1 RES1   0.0000
    25 C25      2.4565  -0.1636   9.4754   C.2       1 RES1   0.0000
    26 C26      1.5907  -1.1977   9.1191   C.2       1 RES1   0.0000
    27 N27     -0.4164  -4.8819   8.0925   N.2       1 RES1   0.0000
    28 C28     -1.6524  -7.1288   5.5905   C.2       1 RES1   0.0000
    29 C29     -2.5113  -8.2156   5.4408   C.2       1 RES1   0.0000
@<TRIPOS>BOND
     1     1     2    1
     2     2     3    2
     3     2     4   am
     4     4     5    1
     5     5     6    2
     6     6     7    1
     7     7     8    2
     8     8     9    1
     9     9    10    2
    10    10    11    1
    11    11    12    2
    12    12    13    1
    13    13    14    1
    14    14    15    1
    15    15    16    2
    16    16    17    1
    17    17    18    2
    18    18    19    1
    19    19    20    1
    20    20    21    1
    21    21    22    1
    22    22    23    1
    23    23    24    1
    24    18    25    1
    25    25    26    2
    26    13    27    2
    27     8    28    1
    28    28    29    2
    29    29     5    1
    30    27     9    1
    31    26    15    1
    32    24    19    1
@<TRIPOS>SUBSTRUCTURE
     1 RES1        1 GROUP             0 ****  ****    0  
@<TRIPOS>MOLECULE
ligand_58
    29    32     1     0     0
SMALL
NO_CHARGES
****
Generated from the CSD

@<TRIPOS>ATOM
     1 C1      -5.6167 -11.4134   5.6990   C.3       1 RES1   0.0000
     2 C2      -4.5222 -10.3721   5.4651   C.2       1 RES1   0.0000
     3 O3      -3.8602 -10.3920   4.4279   O.2       1 RES1   0.0000
     4 N4      -4.3803  -9.4921   6.4625   N.am      1 RES1   0.0000
     5 C5      -3.5004  -8.4814   6.5153   C.2       1 RES1   0.0000
     6 C6      -2.5858  -8.2141   5.4911   C.2       1 RES1   0.0000
     7 C7      -1.6959  -7.1461   5.6004   C.2       1 RES1   0.0000
     8 C8      -1.7077  -6.3362   6.7387   C.2       1 RES1   0.0000
     9 C9      -0.8311  -5.2567   6.8691   C.2       1 RES1   0.0000
    10 C10     -0.3825  -4.5454   5.7591   C.2       1 RES1   0.0000
    11 C11      0.4826  -3.4759   5.9647   C.2       1 RES1   0.0000
    12 N12      0.8613  -3.1532   7.1929   N.2       1 RES1   0.0000
    13 C13      0.4215  -3.8411   8.2640   C.2       1 RES1   0.0000
    14 N14      0.8406  -3.4647   9.4818   N.2       1 RES1   0.0000
    15 C15      1.6464  -2.4301   9.7781   C.2       1 RES1   0.0000
    16 C16      2.5890  -2.6083  10.7896   C.2       1 RES1   0.0000
    17 C17      3.4561  -1.5787  11.1475   C.2       1 RES1   0.0000
    18 C18      3.3976  -0.3460  10.4941   C.2       1 RES1   0.0000
    19 N19      4.2885   0.6909  10.8605   N.pl3     1 RES1   0.0000
    20 C20      4.4974   1.1159  12.2516   C.3       1 RES1   0.0000
    21 C21      4.7685   2.6049  12.2799   C.3       1 RES1   0.0000
    22 O22      5.8982   2.9316  11.4671   O.3       1 RES1   0.0000
    23 C23      5.6669   2.5396  10.1199   C.3       1 RES1   0.0000
    24 C24      5.4171   1.0435  10.0005   C.3       1 RES1   0.0000
    25 C25      2.4565  -0.1636   9.4754   C.2       1 RES1   0.0000
    26 C26      1.5907  -1.1977   9.1191   C.2       1 RES1   0.0000
    27 N27     -0.4164  -4.8819   8.0925   N.2       1 RES1   0.0000
    28 C28     -2.6229  -6.6027   7.7589   C.2       1 RES1   0.0000
    29 C29     -3.5125  -7.6693   7.6485   C.2       1 RES1   0.0000
@<TRIPOS>BOND
     1     1     2    1
     2     2     3    2
     3     2     4   am
     4     4     5    1
     5     5     6    2
     6     6     7    1
     7     7     8    2
     8     8     9    1
     9     9    10    2
    10    10    11    1
    11    11    12    2
    12    12    13    1
    13    13    14    1
    14    14    15    1
    15    15    16    2
    16    16    17    1
    17    17    18    2
    18    18    19    1
    19    19    20    1
    20    20    21    1
    21    21    22    1
    22    22    23    1
    23    23    24    1
    24    18    25    1
    25    25    26    2
    26    13    27    2
    27     8    28    1
    28    28    29    2
    29    29     5    1
    30    27     9    1
    31    26    15    1
    32    24    19    1
@<TRIPOS>SUBSTRUCTURE
     1 RES1        1 GROUP             0 ****  ****    0  
@<TRIPOS>MOLECULE
ligand_59
    29    32     1     0     0
SMALL
NO_CHARGES
****
Generated from the CSD

@<TRIPOS>ATOM
     1 C1      -5.9793 -11.1279   5.7736   C.3       1 RES1   0.0000
     2 C2      -5.2116  -9.8236   5.5586   C.2       1 RES1   0.0000
     3 O3      -5.4781  -9.0991   4.6002   O.2       1 RES1   0.0000
     4 N4      -4.2736  -9.5810   6.4808   N.am      1 RES1   0.0000
     5 C5      -3.4600  -8.5160   6.5301   C.2       1 RES1   0.0000
     6 C6      -3.4950  -7.4870   5.5831   C.2       1 RES1   0.0000
     7 C7      -2.6257  -6.4017   5.6876   C.2       1 RES1   0.0000
     8 C8      -1.7077  -6.3362   6.7387   C.2       1 RES1   0.0000
     9 C9      -0.8311  -5.2567   6.8691   C.2       1 RES1   0.0000
    10 C10     -0.3825  -4.5454   5.7591   C.2       1 RES1   0.0000
    11 C11      0.4826  -3.4759   5.9647   C.2       1 RES1   0.0000
    12 N12      0.8613  -3.1532   7.1929   N.2       1 RES1   0.0000
    13 C13      0.4215  -3.8411   8.2640   C.2       1 RES1   0.0000
    14 N14      0.8406  -3.4647   9.4818   N.2       1 RES1   0.0000
    15 C15      1.6464  -2.4301   9.7781   C.2       1 RES1   0.0000
    16 C16      2.5890  -2.6083  10.7896   C.2       1 RES1   0.0000
    17 C17      3.4561  -1.5787  11.1475   C.2       1 RES1   0.0000
    18 C18      3.3976  -0.3460  10.4941   C.2       1 RES1   0.0000
    19 N19      4.2885   0.6909  10.8605   N.pl3     1 RES1   0.0000
    20 C20      4.4974   1.1159  12.2516   C.3       1 RES1   0.0000
    21 C21      4.7685   2.6049  12.2799   C.3       1 RES1   0.0000
    22 O22      5.8982   2.9316  11.4671   O.3       1 RES1   0.0000
    23 C23      5.6669   2.5396  10.1199   C.3       1 RES1   0.0000
    24 C24      5.4171   1.0435  10.0005   C.3       1 RES1   0.0000
    25 C25      2.4565  -0.1636   9.4754   C.2       1 RES1   0.0000
    26 C26      1.5907  -1.1977   9.1191   C.2       1 RES1   0.0000
    27 N27     -0.4164  -4.8819   8.0925   N.2       1 RES1   0.0000
    28 C28     -1.6758  -7.3627   7.6846   C.2       1 RES1   0.0000
    29 C29     -2.5454  -8.4463   7.5801   C.2       1 RES1   0.0000
@<TRIPOS>BOND
     1     1     2    1
     2     2     3    2
     3     2     4   am
     4     4     5    1
     5     5     6    2
     6     6     7    1
     7     7     8    2
     8     8     9    1
     9     9    10    2
    10    10    11    1
    11    11    12    2
    12    12    13    1
    13    13    14    1
    14    14    15    1
    15    15    16    2
    16    16    17    1
    17    17    18    2
    18    18    19    1
    19    19    20    1
    20    20    21    1
    21    21    22    1
    22    22    23    1
    23    23    24    1
    24    18    25    1
    25    25    26    2
    26    13    27    2
    27     8    28    1
    28    28    29    2
    29    29     5    1
    30    27     9    1
    31    26    15    1
    32    24    19    1
@<TRIPOS>SUBSTRUCTURE
     1 RES1        1 GROUP             0 ****  ****    0  
@<TRIPOS>MOLECULE
ligand_60
    29    32     1     0     0
SMALL
NO_CHARGES
****
Generated from the CSD

@<TRIPOS>ATOM
     1 C1      -3.9697   0.7726   0.4500   C.3       1 RES1   0.0000
     2 C2      -3.2062   0.9208  -0.8660   C.2       1 RES1   0.0000
     3 O3      -2.6259  -0.0469  -1.3573   O.2       1 RES1   0.0000
     4 N4      -3.2429   2.1527  -1.3857   N.am      1 RES1   0.0000
     5 C5      -2.6608   2.5557  -2.5247   C.2       1 RES1   0.0000
     6 C6      -2.9634   1.9997  -3.7722   C.2       1 RES1   0.0000
     7 C7      -2.3274   2.4619  -4.9239   C.2       1 RES1   0.0000
     8 C8      -1.3774   3.4827  -4.8397   C.2       1 RES1   0.0000
     9 C9      -0.7316   3.9675  -5.9793   C.2       1 RES1   0.0000
    10 C10      0.2377   4.9640  -5.8979   C.2       1 RES1   0.0000
    11 C11      0.8459   5.3923  -7.0731   C.2       1 RES1   0.0000
    12 N12      0.5013   4.8551  -8.2344   N.2       1 RES1   0.0000
    13 C13     -0.4336   3.8884  -8.3081   C.2       1 RES1   0.0000
    14 N14     -0.7380   3.3839  -9.5135   N.2       1 RES1   0.0000
    15 C15     -1.6747   2.4609  -9.7933   C.2       1 RES1   0.0000
    16 C16     -1.6909   1.9186 -11.0774   C.2       1 RES1   0.0000
    17 C17     -2.6334   0.9575 -11.4353   C.2       1 RES1   0.0000
    18 C18     -3.5805   0.5168 -10.5085   C.2       1 RES1   0.0000
    19 N19     -4.5289  -0.4657 -10.8803   N.pl3     1 RES1   0.0000
    20 C20     -4.5252  -1.1301 -12.1911   C.3       1 RES1   0.0000
    21 C21     -5.0065  -2.5556 -12.0259   C.3       1 RES1   0.0000
    22 O22     -6.3086  -2.5877 -11.4367   O.3       1 RES1   0.0000
    23 C23     -6.2870  -1.9667 -10.1577   C.3       1 RES1   0.0000
    24 C24     -5.8430  -0.5138 -10.2411   C.3       1 RES1   0.0000
    25 C25     -3.5657   1.0546  -9.2173   C.2       1 RES1   0.0000
    26 C26     -2.6192   2.0161  -8.8626   C.2       1 RES1   0.0000
    27 N27     -1.0386   3.4562  -7.1849   N.2       1 RES1   0.0000
    28 C28     -1.0784   4.0384  -3.5941   C.2       1 RES1   0.0000
    29 C29     -1.7150   3.5768  -2.4439   C.2       1 RES1   0.0000
@<TRIPOS>BOND
     1     1     2    1
     2     2     3    2
     3     2     4   am
     4     4     5    1
     5     5     6    2
     6     6     7    1
     7     7     8    2
     8     8     9    1
     9     9    10    2
    10    10    11    1
    11    11    12    2
    12    12    13    1
    13    13    14    1
    14    14    15    1
    15    15    16    2
    16    16    17    1
    17    17    18    2
    18    18    19    1
    19    19    20    1
    20    20    21    1
    21    21    22    1
    22    22    23    1
    23    23    24    1
    24    18    25    1
    25    25    26    2
    26    13    27    2
    27     8    28    1
    28    28    29    2
    29    29     5    1
    30    27     9    1
    31    26    15    1
    32    24    19    1
@<TRIPOS>SUBSTRUCTURE
     1 RES1        1 GROUP             0 ****  ****    0  
@<TRIPOS>MOLECULE
ligand_61
    29    32     1     0     0
SMALL
NO_CHARGES
****
Generated from the CSD

@<TRIPOS>ATOM
     1 C1      17.5537   8.3981  13.4789   C.3       1 RES1   0.0000
     2 C2      16.1910   7.9751  12.9303   C.2       1 RES1   0.0000
     3 O3      15.9842   6.8013  12.6238   O.2       1 RES1   0.0000
     4 N4      15.3064   8.9734  12.8297   N.am      1 RES1   0.0000
     5 C5      14.0459   8.8800  12.3813   C.2       1 RES1   0.0000
     6 C6      13.4801   7.6771  11.9456   C.2       1 RES1   0.0000
     7 C7      12.1619   7.6405  11.4923   C.2       1 RES1   0.0000
     8 C8      11.3961   8.8087  11.4651   C.2       1 RES1   0.0000
     9 C9      10.0717   8.7969  11.0219   C.2       1 RES1   0.0000
    10 C10      9.4540   7.6201  10.6061   C.2       1 RES1   0.0000
    11 C11      8.1296   7.6816  10.1856   C.2       1 RES1   0.0000
    12 N12      7.4843   8.8390  10.1868   N.2       1 RES1   0.0000
    13 C13      8.0843   9.9740  10.5939   C.2       1 RES1   0.0000
    14 N14      7.3772  11.1141  10.5725   N.2       1 RES1   0.0000
    15 C15      6.0394  11.2378  10.5203   C.2       1 RES1   0.0000
    16 C16      5.2709  10.2743  11.1718   C.2       1 RES1   0.0000
    17 C17      3.8797  10.3415  11.1588   C.2       1 RES1   0.0000
    18 C18      3.2285  11.3816  10.4924   C.2       1 RES1   0.0000
    19 N19      1.8146  11.4445  10.4918   N.3       1 RES1   0.0000
    20 C20      1.2529  10.3470  11.2736   C.3       1 RES1   0.0000
    21 C21     -0.3146  10.4381  11.3639   C.3       1 RES1   0.0000
    22 O22     -0.6526  11.7075  11.9215   O.3       1 RES1   0.0000
    23 C23     -0.1905  12.7341  11.0858   C.3       1 RES1   0.0000
    24 C24      1.3396  12.7201  11.0294   C.3       1 RES1   0.0000
    25 C25      3.9952  12.3533   9.8407   C.2       1 RES1   0.0000
    26 C26      5.3883  12.2830   9.8572   C.2       1 RES1   0.0000
    27 N27      9.3666   9.9422  11.0052   N.2       1 RES1   0.0000
    28 C28     11.9614  10.0080  11.9029   C.2       1 RES1   0.0000
    29 C29     13.2783  10.0437  12.3567   C.2       1 RES1   0.0000
@<TRIPOS>BOND
     1     1     2    1
     2     2     3    2
     3     2     4   am
     4     4     5    1
     5     5     6    2
     6     6     7    1
     7     7     8    2
     8     8     9    1
     9     9    10    2
    10    10    11    1
    11    11    12    2
    12    12    13    1
    13    13    14    1
    14    14    15    1
    15    15    16    2
    16    16    17    1
    17    17    18    2
    18    18    19    1
    19    19    20    1
    20    20    21    1
    21    21    22    1
    22    22    23    1
    23    23    24    1
    24    18    25    1
    25    25    26    2
    26    13    27    2
    27     8    28    1
    28    28    29    2
    29    29     5    1
    30    27     9    1
    31    26    15    1
    32    24    19    1
@<TRIPOS>SUBSTRUCTURE
     1 RES1        1 GROUP             0 ****  ****    0  
@<TRIPOS>MOLECULE
ligand_62
    29    32     1     0     0
SMALL
NO_CHARGES
****
Generated from the CSD

@<TRIPOS>ATOM
     1 C1     -17.9839  -9.7429 -12.7850   C.3       1 RES1   0.0000
     2 C2     -16.5390  -9.8185 -13.2783   C.2       1 RES1   0.0000
     3 O3     -16.2852  -9.6801 -14.4745   O.2       1 RES1   0.0000
     4 N4     -15.6406 -10.0401 -12.3124   N.am      1 RES1   0.0000
     5 C5     -14.3132 -10.1511 -12.4679   C.2       1 RES1   0.0000
     6 C6     -13.6809 -10.0449 -13.7112   C.2       1 RES1   0.0000
     7 C7     -12.2954 -10.1663 -13.8111   C.2       1 RES1   0.0000
     8 C8     -11.5269 -10.4002 -12.6681   C.2       1 RES1   0.0000
     9 C9     -10.1372 -10.5188 -12.7409   C.2       1 RES1   0.0000
    10 C10     -9.4583 -10.3910 -13.9501   C.2       1 RES1   0.0000
    11 C11     -8.0728 -10.5122 -13.9464   C.2       1 RES1   0.0000
    12 N12     -7.4282 -10.7429 -12.8118   N.2       1 RES1   0.0000
    13 C13     -8.0884 -10.8615 -11.6438   C.2       1 RES1   0.0000
    14 N14     -7.3788 -11.0942 -10.5291   N.2       1 RES1   0.0000
    15 C15     -6.0441 -11.2218 -10.4293   C.2       1 RES1   0.0000
    16 C16     -5.2555 -10.1450 -10.8318   C.2       1 RES1   0.0000
    17 C17     -3.8662 -10.2088 -10.7548   C.2       1 RES1   0.0000
    18 C18     -3.2372 -11.3566 -10.2682   C.2       1 RES1   0.0000
    19 N19     -1.8252 -11.4079 -10.1871   N.3       1 RES1   0.0000
    20 C20     -1.2360 -10.1918 -10.7392   C.3       1 RES1   0.0000
    21 C21      0.3355 -10.2547 -10.7425   C.3       1 RES1   0.0000
    22 O22      0.7304 -11.4114 -11.4790   O.3       1 RES1   0.0000
    23 C23      0.2361 -12.5658 -10.8557   C.3       1 RES1   0.0000
    24 C24     -1.2946 -12.5731 -10.8962   C.3       1 RES1   0.0000
    25 C25     -4.0242 -12.4382  -9.8589   C.2       1 RES1   0.0000
    26 C26     -5.4154 -12.3698  -9.9365   C.2       1 RES1   0.0000
    27 N27     -9.4305 -10.7492 -11.6199   N.2       1 RES1   0.0000
    28 C28    -12.1592 -10.5032 -11.4275   C.2       1 RES1   0.0000
    29 C29    -13.5436 -10.3809 -11.3282   C.2       1 RES1   0.0000
@<TRIPOS>BOND
     1     1     2    1
     2     2     3    2
     3     2     4   am
     4     4     5    1
     5     5     6    2
     6     6     7    1
     7     7     8    2
     8     8     9    1
     9     9    10    2
    10    10    11    1
    11    11    12    2
    12    12    13    1
    13    13    14    1
    14    14    15    1
    15    15    16    2
    16    16    17    1
    17    17    18    2
    18    18    19    1
    19    19    20    1
    20    20    21    1
    21    21    22    1
    22    22    23    1
    23    23    24    1
    24    18    25    1
    25    25    26    2
    26    13    27    2
    27     8    28    1
    28    28    29    2
    29    29     5    1
    30    27     9    1
    31    26    15    1
    32    24    19    1
@<TRIPOS>SUBSTRUCTURE
     1 RES1        1 GROUP             0 ****  ****    0  
@<TRIPOS>MOLECULE
ligand_63
    29    32     1     0     0
SMALL
NO_CHARGES
****
Generated from the CSD

@<TRIPOS>ATOM
     1 C1     -17.9542  -9.9535 -11.8746   C.3       1 RES1   0.0000
     2 C2     -16.4736 -10.1236 -11.5343   C.2       1 RES1   0.0000
     3 O3     -16.1230 -10.3025 -10.3683   O.2       1 RES1   0.0000
     4 N4     -15.6568 -10.0581 -12.5915   N.am      1 RES1   0.0000
     5 C5     -14.3207 -10.1735 -12.5756   C.2       1 RES1   0.0000
     6 C6     -13.5889 -10.3845 -11.4023   C.2       1 RES1   0.0000
     7 C7     -12.1999 -10.4997 -11.4479   C.2       1 RES1   0.0000
     8 C8     -11.5269 -10.4002 -12.6681   C.2       1 RES1   0.0000
     9 C9     -10.1372 -10.5188 -12.7409   C.2       1 RES1   0.0000
    10 C10     -9.4583 -10.3910 -13.9501   C.2       1 RES1   0.0000
    11 C11     -8.0728 -10.5122 -13.9464   C.2       1 RES1   0.0000
    12 N12     -7.4282 -10.7429 -12.8118   N.2       1 RES1   0.0000
    13 C13     -8.0884 -10.8615 -11.6438   C.2       1 RES1   0.0000
    14 N14     -7.3788 -11.0942 -10.5291   N.2       1 RES1   0.0000
    15 C15     -6.0441 -11.2217 -10.4293   C.2       1 RES1   0.0000
    16 C16     -5.2555 -10.1449 -10.8317   C.2       1 RES1   0.0000
    17 C17     -3.8662 -10.2087 -10.7548   C.2       1 RES1   0.0000
    18 C18     -3.2372 -11.3565 -10.2681   C.2       1 RES1   0.0000
    19 N19     -1.8252 -11.4078 -10.1871   N.3       1 RES1   0.0000
    20 C20     -1.2361 -10.1915 -10.7390   C.3       1 RES1   0.0000
    21 C21      0.3355 -10.2544 -10.7422   C.3       1 RES1   0.0000
    22 O22      0.7304 -11.4109 -11.4789   O.3       1 RES1   0.0000
    23 C23      0.2362 -12.5655 -10.8559   C.3       1 RES1   0.0000
    24 C24     -1.2946 -12.5728 -10.8964   C.3       1 RES1   0.0000
    25 C25     -4.0241 -12.4381  -9.8590   C.2       1 RES1   0.0000
    26 C26     -5.4153 -12.3697  -9.9365   C.2       1 RES1   0.0000
    27 N27     -9.4305 -10.7492 -11.6199   N.2       1 RES1   0.0000
    28 C28    -12.2591 -10.1922 -13.8386   C.2       1 RES1   0.0000
    29 C29    -13.6469 -10.0782 -13.7925   C.2       1 RES1   0.0000
@<TRIPOS>BOND
     1     1     2    1
     2     2     3    2
     3     2     4   am
     4     4     5    1
     5     5     6    2
     6     6     7    1
     7     7     8    2
     8     8     9    1
     9     9    10    2
    10    10    11    1
    11    11    12    2
    12    12    13    1
    13    13    14    1
    14    14    15    1
    15    15    16    2
    16    16    17    1
    17    17    18    2
    18    18    19    1
    19    19    20    1
    20    20    21    1
    21    21    22    1
    22    22    23    1
    23    23    24    1
    24    18    25    1
    25    25    26    2
    26    13    27    2
    27     8    28    1
    28    28    29    2
    29    29     5    1
    30    27     9    1
    31    26    15    1
    32    24    19    1
@<TRIPOS>SUBSTRUCTURE
     1 RES1        1 GROUP             0 ****  ****    0  
@<TRIPOS>MOLECULE
ligand_64
    29    32     1     0     0
SMALL
NO_CHARGES
****
Generated from the CSD

@<TRIPOS>ATOM
     1 C1      -4.9363  -9.7695 -21.0962   C.3       1 RES1   0.0000
     2 C2      -5.9926  -9.8215 -19.9924   C.2       1 RES1   0.0000
     3 O3      -7.1811  -9.6546 -20.2645   O.2       1 RES1   0.0000
     4 N4      -5.4989 -10.0554 -18.7714   N.am      1 RES1   0.0000
     5 C5      -6.2000 -10.1498 -17.6321   C.2       1 RES1   0.0000
     6 C6      -7.5908 -10.0088 -17.5804   C.2       1 RES1   0.0000
     7 C7      -8.2669 -10.1202 -16.3659   C.2       1 RES1   0.0000
     8 C8      -7.5580 -10.3692 -15.1881   C.2       1 RES1   0.0000
     9 C9      -8.2126 -10.4917 -13.9604   C.2       1 RES1   0.0000
    10 C10     -9.5977 -10.3878 -13.8607   C.2       1 RES1   0.0000
    11 C11    -10.1827 -10.5291 -12.6068   C.2       1 RES1   0.0000
    12 N12     -9.4274 -10.7574 -11.5423   N.2       1 RES1   0.0000
    13 C13     -8.0884 -10.8615 -11.6438   C.2       1 RES1   0.0000
    14 N14     -7.3788 -11.0942 -10.5291   N.2       1 RES1   0.0000
    15 C15     -6.0447 -11.2282 -10.4303   C.2       1 RES1   0.0000
    16 C16     -5.2506 -10.1623 -10.8504   C.2       1 RES1   0.0000
    17 C17     -3.8616 -10.2331 -10.7756   C.2       1 RES1   0.0000
    18 C18     -3.2382 -11.3773 -10.2732   C.2       1 RES1   0.0000
    19 N19     -1.8264 -11.4359 -10.1944   N.3       1 RES1   0.0000
    20 C20     -1.2313 -10.2316 -10.7659   C.3       1 RES1   0.0000
    21 C21      0.3398 -10.3039 -10.7716   C.3       1 RES1   0.0000
    22 O22      0.7262 -11.4738 -11.4916   O.3       1 RES1   0.0000
    23 C23      0.2265 -12.6158 -10.8502   C.3       1 RES1   0.0000
    24 C24     -1.3043 -12.6146 -10.8873   C.3       1 RES1   0.0000
    25 C25     -4.0307 -12.4480  -9.8462   C.2       1 RES1   0.0000
    26 C26     -5.4216 -12.3725  -9.9218   C.2       1 RES1   0.0000
    27 N27     -7.4966 -10.7277 -12.8465   N.2       1 RES1   0.0000
    28 C28     -6.1701 -10.5124 -15.2418   C.2       1 RES1   0.0000
    29 C29     -5.4954 -10.4020 -16.4558   C.2       1 RES1   0.0000
@<TRIPOS>BOND
     1     1     2    1
     2     2     3    2
     3     2     4   am
     4     4     5    1
     5     5     6    2
     6     6     7    1
     7     7     8    2
     8     8     9    1
     9     9    10    2
    10    10    11    1
    11    11    12    2
    12    12    13    1
    13    13    14    1
    14    14    15    1
    15    15    16    2
    16    16    17    1
    17    17    18    2
    18    18    19    1
    19    19    20    1
    20    20    21    1
    21    21    22    1
    22    22    23    1
    23    23    24    1
    24    18    25    1
    25    25    26    2
    26    13    27    2
    27     8    28    1
    28    28    29    2
    29    29     5    1
    30    27     9    1
    31    26    15    1
    32    24    19    1
@<TRIPOS>SUBSTRUCTURE
     1 RES1        1 GROUP             0 ****  ****    0  
@<TRIPOS>MOLECULE
ligand_65
    29    32     1     0     0
SMALL
NO_CHARGES
****
Generated from the CSD

@<TRIPOS>ATOM
     1 C1      -5.4845  -0.6947 -10.4825   C.3       1 RES1   0.0000
     2 C2      -5.8386  -2.1210 -10.9033   C.2       1 RES1   0.0000
     3 O3      -5.4248  -2.5723 -11.9708   O.2       1 RES1   0.0000
     4 N4      -6.6052  -2.7775 -10.0255   N.am      1 RES1   0.0000
     5 C5      -7.0431  -4.0402 -10.1368   C.2       1 RES1   0.0000
     6 C6      -6.3109  -5.0462 -10.7761   C.2       1 RES1   0.0000
     7 C7      -6.8164  -6.3432 -10.8585   C.2       1 RES1   0.0000
     8 C8      -8.0631  -6.6472 -10.3061   C.2       1 RES1   0.0000
     9 C9      -8.5881  -7.9399 -10.3696   C.2       1 RES1   0.0000
    10 C10     -9.9609  -8.1656 -10.4285   C.2       1 RES1   0.0000
    11 C11    -10.4125  -9.4792 -10.4990   C.2       1 RES1   0.0000
    12 N12     -9.5453 -10.4811 -10.5098   N.2       1 RES1   0.0000
    13 C13     -8.2180 -10.2581 -10.4571   C.2       1 RES1   0.0000
    14 N14     -7.3911 -11.3146 -10.4722   N.2       1 RES1   0.0000
    15 C15     -6.0468 -11.2923 -10.4644   C.2       1 RES1   0.0000
    16 C16     -5.3826 -12.3290  -9.8105   C.2       1 RES1   0.0000
    17 C17     -3.9911 -12.3689  -9.7641   C.2       1 RES1   0.0000
    18 C18     -3.2344 -11.3681 -10.3773   C.2       1 RES1   0.0000
    19 N19     -1.8210 -11.4224 -10.3307   N.3       1 RES1   0.0000
    20 C20     -1.2412 -10.2890 -11.0451   C.3       1 RES1   0.0000
    21 C21      0.3292 -10.3666 -11.0851   C.3       1 RES1   0.0000
    22 O22      0.6956 -11.6088 -11.6844   O.3       1 RES1   0.0000
    23 C23      0.2130 -12.6731 -10.9098   C.3       1 RES1   0.0000
    24 C24     -1.3183 -12.6709 -10.9056   C.3       1 RES1   0.0000
    25 C25     -3.8961 -10.3281 -11.0385   C.2       1 RES1   0.0000
    26 C26     -5.2899 -10.2925 -11.0837   C.2       1 RES1   0.0000
    27 N27     -7.7544  -8.9953 -10.3874   N.2       1 RES1   0.0000
    28 C28     -8.7914  -5.6426  -9.6659   C.2       1 RES1   0.0000
    29 C29     -8.2853  -4.3472  -9.5831   C.2       1 RES1   0.0000
@<TRIPOS>BOND
     1     1     2    1
     2     2     3    2
     3     2     4   am
     4     4     5    1
     5     5     6    2
     6     6     7    1
     7     7     8    2
     8     8     9    1
     9     9    10    2
    10    10    11    1
    11    11    12    2
    12    12    13    1
    13    13    14    1
    14    14    15    1
    15    15    16    2
    16    16    17    1
    17    17    18    2
    18    18    19    1
    19    19    20    1
    20    20    21    1
    21    21    22    1
    22    22    23    1
    23    23    24    1
    24    18    25    1
    25    25    26    2
    26    13    27    2
    27     8    28    1
    28    28    29    2
    29    29     5    1
    30    27     9    1
    31    26    15    1
    32    24    19    1
@<TRIPOS>SUBSTRUCTURE
     1 RES1        1 GROUP             0 ****  ****    0  
@<TRIPOS>MOLECULE
ligand_66
    29    32     1     0     0
SMALL
NO_CHARGES
****
Generated from the CSD

@<TRIPOS>ATOM
     1 C1     -18.1568 -10.6163 -10.3001   C.3       1 RES1   0.0000
     2 C2     -16.6815 -10.6223  -9.8997   C.2       1 RES1   0.0000
     3 O3     -16.3281 -11.1512  -8.8462   O.2       1 RES1   0.0000
     4 N4     -15.8723 -10.0202 -10.7783   N.am      1 RES1   0.0000
     5 C5     -14.5399  -9.9002 -10.6834   C.2       1 RES1   0.0000
     6 C6     -13.7306 -10.8637 -10.0722   C.2       1 RES1   0.0000
     7 C7     -12.3491 -10.6859 -10.0058   C.2       1 RES1   0.0000
     8 C8     -11.7621  -9.5391 -10.5462   C.2       1 RES1   0.0000
     9 C9     -10.3804  -9.3409 -10.4983   C.2       1 RES1   0.0000
    10 C10     -9.8306  -8.0637 -10.4244   C.2       1 RES1   0.0000
    11 C11     -8.4461  -7.9419 -10.3709   C.2       1 RES1   0.0000
    12 N12     -7.6819  -9.0243 -10.3900   N.2       1 RES1   0.0000
    13 C13     -8.2180 -10.2581 -10.4571   C.2       1 RES1   0.0000
    14 N14     -7.3911 -11.3146 -10.4722   N.2       1 RES1   0.0000
    15 C15     -6.0468 -11.2921 -10.4816   C.2       1 RES1   0.0000
    16 C16     -5.3743 -12.3057  -9.8007   C.2       1 RES1   0.0000
    17 C17     -3.9823 -12.3440  -9.7700   C.2       1 RES1   0.0000
    18 C18     -3.2336 -11.3649 -10.4263   C.2       1 RES1   0.0000
    19 N19     -1.8196 -11.4176 -10.3951   N.3       1 RES1   0.0000
    20 C20     -1.2490 -10.3096 -11.1552   C.3       1 RES1   0.0000
    21 C21      0.3208 -10.3886 -11.2118   C.3       1 RES1   0.0000
    22 O22      0.6803 -11.6508 -11.7721   O.3       1 RES1   0.0000
    23 C23      0.2076 -12.6876 -10.9553   C.3       1 RES1   0.0000
    24 C24     -1.3235 -12.6852 -10.9325   C.3       1 RES1   0.0000
    25 C25     -3.9036 -10.3481 -11.1146   C.2       1 RES1   0.0000
    26 C26     -5.2980 -10.3141 -11.1439   C.2       1 RES1   0.0000
    27 N27     -9.5561 -10.4037 -10.5109   N.2       1 RES1   0.0000
    28 C28    -12.5710  -8.5796 -11.1583   C.2       1 RES1   0.0000
    29 C29    -13.9512  -8.7584 -11.2252   C.2       1 RES1   0.0000
@<TRIPOS>BOND
     1     1     2    1
     2     2     3    2
     3     2     4   am
     4     4     5    1
     5     5     6    2
     6     6     7    1
     7     7     8    2
     8     8     9    1
     9     9    10    2
    10    10    11    1
    11    11    12    2
    12    12    13    1
    13    13    14    1
    14    14    15    1
    15    15    16    2
    16    16    17    1
    17    17    18    2
    18    18    19    1
    19    19    20    1
    20    20    21    1
    21    21    22    1
    22    22    23    1
    23    23    24    1
    24    18    25    1
    25    25    26    2
    26    13    27    2
    27     8    28    1
    28    28    29    2
    29    29     5    1
    30    27     9    1
    31    26    15    1
    32    24    19    1
@<TRIPOS>SUBSTRUCTURE
     1 RES1        1 GROUP             0 ****  ****    0  
@<TRIPOS>MOLECULE
ligand_67
    29    32     1     0     0
SMALL
NO_CHARGES
****
Generated from the CSD

@<TRIPOS>ATOM
     1 C1      -4.2975  -5.1575 -19.0631   C.3       1 RES1   0.0000
     2 C2      -5.2353  -6.1200 -18.3344   C.2       1 RES1   0.0000
     3 O3      -5.9178  -6.9211 -18.9723   O.2       1 RES1   0.0000
     4 N4      -5.2249  -5.9932 -17.0029   N.am      1 RES1   0.0000
     5 C5      -5.9617  -6.6947 -16.1291   C.2       1 RES1   0.0000
     6 C6      -7.2462  -7.1653 -16.4216   C.2       1 RES1   0.0000
     7 C7      -7.9644  -7.8928 -15.4733   C.2       1 RES1   0.0000
     8 C8      -7.4071  -8.1535 -14.2190   C.2       1 RES1   0.0000
     9 C9      -8.1035  -8.8854 -13.2545   C.2       1 RES1   0.0000
    10 C10     -9.4949  -8.8774 -13.1993   C.2       1 RES1   0.0000
    11 C11    -10.1219  -9.6370 -12.2174   C.2       1 RES1   0.0000
    12 N12     -9.3994 -10.3466 -11.3627   N.2       1 RES1   0.0000
    13 C13     -8.0539 -10.3549 -11.4224   C.2       1 RES1   0.0000
    14 N14     -7.3788 -11.0942 -10.5291   N.2       1 RES1   0.0000
    15 C15     -6.0445 -11.1709 -10.3830   C.2       1 RES1   0.0000
    16 C16     -5.3004 -10.0085 -10.5795   C.2       1 RES1   0.0000
    17 C17     -3.9142 -10.0161 -10.4436   C.2       1 RES1   0.0000
    18 C18     -3.2437 -11.1929 -10.1037   C.2       1 RES1   0.0000
    19 N19     -1.8357 -11.1877  -9.9608   N.3       1 RES1   0.0000
    20 C20     -1.2920  -9.8746 -10.2943   C.3       1 RES1   0.0000
    21 C21      0.2794  -9.8603 -10.2283   C.3       1 RES1   0.0000
    22 O22      0.7683 -10.8709 -11.1092   O.3       1 RES1   0.0000
    23 C23      0.3128 -12.1293 -10.6915   C.3       1 RES1   0.0000
    24 C24     -1.2121 -12.2042 -10.8091   C.3       1 RES1   0.0000
    25 C25     -3.9862 -12.3610  -9.9011   C.2       1 RES1   0.0000
    26 C26     -5.3745 -12.3488 -10.0370   C.2       1 RES1   0.0000
    27 N27     -7.4217  -9.6271 -12.3633   N.2       1 RES1   0.0000
    28 C28     -6.1239  -7.6854 -13.9294   C.2       1 RES1   0.0000
    29 C29     -5.4065  -6.9595 -14.8779   C.2       1 RES1   0.0000
@<TRIPOS>BOND
     1     1     2    1
     2     2     3    2
     3     2     4   am
     4     4     5    1
     5     5     6    2
     6     6     7    1
     7     7     8    2
     8     8     9    1
     9     9    10    2
    10    10    11    1
    11    11    12    2
    12    12    13    1
    13    13    14    1
    14    14    15    1
    15    15    16    2
    16    16    17    1
    17    17    18    2
    18    18    19    1
    19    19    20    1
    20    20    21    1
    21    21    22    1
    22    22    23    1
    23    23    24    1
    24    18    25    1
    25    25    26    2
    26    13    27    2
    27     8    28    1
    28    28    29    2
    29    29     5    1
    30    27     9    1
    31    26    15    1
    32    24    19    1
@<TRIPOS>SUBSTRUCTURE
     1 RES1        1 GROUP             0 ****  ****    0  
@<TRIPOS>MOLECULE
ligand_68
    29    32     1     0     0
SMALL
NO_CHARGES
****
Generated from the CSD

@<TRIPOS>ATOM
     1 C1      -3.3392  -5.0841 -18.1946   C.3       1 RES1   0.0000
     2 C2      -3.8974  -6.0552 -17.1543   C.2       1 RES1   0.0000
     3 O3      -3.1407  -6.8065 -16.5399   O.2       1 RES1   0.0000
     4 N4      -5.2249  -5.9932 -17.0029   N.am      1 RES1   0.0000
     5 C5      -5.9617  -6.6947 -16.1291   C.2       1 RES1   0.0000
     6 C6      -7.2462  -7.1653 -16.4216   C.2       1 RES1   0.0000
     7 C7      -7.9644  -7.8928 -15.4733   C.2       1 RES1   0.0000
     8 C8      -7.4071  -8.1535 -14.2190   C.2       1 RES1   0.0000
     9 C9      -8.1035  -8.8854 -13.2545   C.2       1 RES1   0.0000
    10 C10     -9.4949  -8.8774 -13.1993   C.2       1 RES1   0.0000
    11 C11    -10.1219  -9.6370 -12.2174   C.2       1 RES1   0.0000
    12 N12     -9.3994 -10.3466 -11.3627   N.2       1 RES1   0.0000
    13 C13     -8.0539 -10.3549 -11.4224   C.2       1 RES1   0.0000
    14 N14     -7.3788 -11.0942 -10.5291   N.2       1 RES1   0.0000
    15 C15     -6.0445 -11.1708 -10.3829   C.2       1 RES1   0.0000
    16 C16     -5.3004 -10.0084 -10.5794   C.2       1 RES1   0.0000
    17 C17     -3.9142 -10.0159 -10.4435   C.2       1 RES1   0.0000
    18 C18     -3.2437 -11.1927 -10.1036   C.2       1 RES1   0.0000
    19 N19     -1.8357 -11.1875  -9.9606   N.3       1 RES1   0.0000
    20 C20     -1.2920  -9.8744 -10.2940   C.3       1 RES1   0.0000
    21 C21      0.2793  -9.8600 -10.2280   C.3       1 RES1   0.0000
    22 O22      0.7684 -10.8706 -11.1089   O.3       1 RES1   0.0000
    23 C23      0.3129 -12.1290 -10.6912   C.3       1 RES1   0.0000
    24 C24     -1.2120 -12.2040 -10.8089   C.3       1 RES1   0.0000
    25 C25     -3.9861 -12.3608  -9.9010   C.2       1 RES1   0.0000
    26 C26     -5.3745 -12.3487 -10.0369   C.2       1 RES1   0.0000
    27 N27     -7.4217  -9.6271 -12.3633   N.2       1 RES1   0.0000
    28 C28     -6.1239  -7.6854 -13.9294   C.2       1 RES1   0.0000
    29 C29     -5.4065  -6.9595 -14.8779   C.2       1 RES1   0.0000
@<TRIPOS>BOND
     1     1     2    1
     2     2     3    2
     3     2     4   am
     4     4     5    1
     5     5     6    2
     6     6     7    1
     7     7     8    2
     8     8     9    1
     9     9    10    2
    10    10    11    1
    11    11    12    2
    12    12    13    1
    13    13    14    1
    14    14    15    1
    15    15    16    2
    16    16    17    1
    17    17    18    2
    18    18    19    1
    19    19    20    1
    20    20    21    1
    21    21    22    1
    22    22    23    1
    23    23    24    1
    24    18    25    1
    25    25    26    2
    26    13    27    2
    27     8    28    1
    28    28    29    2
    29    29     5    1
    30    27     9    1
    31    26    15    1
    32    24    19    1
@<TRIPOS>SUBSTRUCTURE
     1 RES1        1 GROUP             0 ****  ****    0  
@<TRIPOS>MOLECULE
ligand_69
    29    32     1     0     0
SMALL
NO_CHARGES
****
Generated from the CSD

@<TRIPOS>ATOM
     1 C1       7.7249  15.3316   0.4537   C.3       1 RES1   0.0000
     2 C2       8.2681  15.0641   1.8573   C.2       1 RES1   0.0000
     3 O3       9.2741  15.6515   2.2542   O.2       1 RES1   0.0000
     4 N4       7.5617  14.1698   2.5576   N.am      1 RES1   0.0000
     5 C5       7.8442  13.7169   3.7879   C.2       1 RES1   0.0000
     6 C6       6.8578  13.4095   4.7310   C.2       1 RES1   0.0000
     7 C7       7.2119  12.9389   5.9949   C.2       1 RES1   0.0000
     8 C8       8.5579  12.7752   6.3314   C.2       1 RES1   0.0000
     9 C9       8.9380  12.2992   7.5882   C.2       1 RES1   0.0000
    10 C10     10.2785  12.1618   7.9394   C.2       1 RES1   0.0000
    11 C11     10.5836  11.6898   9.2117   C.2       1 RES1   0.0000
    12 N12      9.6114  11.3831  10.0583   N.2       1 RES1   0.0000
    13 C13      8.3161  11.5217   9.7160   C.2       1 RES1   0.0000
    14 N14      7.3780  11.1950  10.6179   N.2       1 RES1   0.0000
    15 C15      6.0449  11.2128  10.4441   C.2       1 RES1   0.0000
    16 C16      5.2396  11.0395  11.5688   C.2       1 RES1   0.0000
    17 C17      3.8510  11.0478  11.4613   C.2       1 RES1   0.0000
    18 C18      3.2392  11.2337  10.2199   C.2       1 RES1   0.0000
    19 N19      1.8273  11.2479  10.1231   N.3       1 RES1   0.0000
    20 C20      1.2587  10.0612  10.7551   C.3       1 RES1   0.0000
    21 C21     -0.3137  10.0894  10.7401   C.3       1 RES1   0.0000
    22 O22     -0.7409  11.2863  11.3891   O.3       1 RES1   0.0000
    23 C23     -0.2651  12.4043  10.6897   C.3       1 RES1   0.0000
    24 C24      1.2646  12.4483  10.7430   C.3       1 RES1   0.0000
    25 C25      4.0427  11.4124   9.0889   C.2       1 RES1   0.0000
    26 C26      5.4332  11.4047   9.2011   C.2       1 RES1   0.0000
    27 N27      7.9934  11.9759   8.4896   N.2       1 RES1   0.0000
    28 C28      9.5412  13.0799   5.3881   C.2       1 RES1   0.0000
    29 C29      9.1866  13.5491   4.1250   C.2       1 RES1   0.0000
@<TRIPOS>BOND
     1     1     2    1
     2     2     3    2
     3     2     4   am
     4     4     5    1
     5     5     6    2
     6     6     7    1
     7     7     8    2
     8     8     9    1
     9     9    10    2
    10    10    11    1
    11    11    12    2
    12    12    13    1
    13    13    14    1
    14    14    15    1
    15    15    16    2
    16    16    17    1
    17    17    18    2
    18    18    19    1
    19    19    20    1
    20    20    21    1
    21    21    22    1
    22    22    23    1
    23    23    24    1
    24    18    25    1
    25    25    26    2
    26    13    27    2
    27     8    28    1
    28    28    29    2
    29    29     5    1
    30    27     9    1
    31    26    15    1
    32    24    19    1
@<TRIPOS>SUBSTRUCTURE
     1 RES1        1 GROUP             0 ****  ****    0  
@<TRIPOS>MOLECULE
ligand_70
    29    32     1     0     0
SMALL
NO_CHARGES
****
Generated from the CSD

@<TRIPOS>ATOM
     1 C1      -1.3799  11.1517   7.1251   C.3       1 RES1   0.0000
     2 C2      -0.7127  10.1518   6.1808   C.2       1 RES1   0.0000
     3 O3      -0.2058   9.1227   6.6266   O.2       1 RES1   0.0000
     4 N4      -0.7443  10.5091   4.8923   N.am      1 RES1   0.0000
     5 C5      -0.1929   9.8441   3.8663   C.2       1 RES1   0.0000
     6 C6      -0.7776   9.7825   2.5970   C.2       1 RES1   0.0000
     7 C7      -0.1558   9.0777   1.5670   C.2       1 RES1   0.0000
     8 C8       1.0563   8.4221   1.7969   C.2       1 RES1   0.0000
     9 C9       1.7021   7.7152   0.7801   C.2       1 RES1   0.0000
    10 C10      1.5892   8.0947  -0.5550   C.2       1 RES1   0.0000
    11 C11      2.2673   7.3494  -1.5138   C.2       1 RES1   0.0000
    12 N12      2.9996   6.3066  -1.1502   N.2       1 RES1   0.0000
    13 C13      3.1096   5.9456   0.1427   C.2       1 RES1   0.0000
    14 N14      3.8668   4.8805   0.4470   N.2       1 RES1   0.0000
    15 C15      4.0527   4.3386   1.6633   C.2       1 RES1   0.0000
    16 C16      5.0414   3.3651   1.7978   C.2       1 RES1   0.0000
    17 C17      5.2878   2.7624   3.0291   C.2       1 RES1   0.0000
    18 C18      4.5474   3.1272   4.1554   C.2       1 RES1   0.0000
    19 N19      4.8112   2.5140   5.4033   N.pl3     1 RES1   0.0000
    20 C20      5.9197   1.5688   5.5734   C.3       1 RES1   0.0000
    21 C21      5.3561   0.1632   5.6631   C.3       1 RES1   0.0000
    22 O22      4.4185   0.0509   6.7360   O.3       1 RES1   0.0000
    23 C23      3.3412   0.9665   6.5783   C.3       1 RES1   0.0000
    24 C24      3.8336   2.4018   6.4945   C.3       1 RES1   0.0000
    25 C25      3.5571   4.1068   4.0267   C.2       1 RES1   0.0000
    26 C26      3.3143   4.7088   2.7919   C.2       1 RES1   0.0000
    27 N27      2.4623   6.6500   1.0911   N.2       1 RES1   0.0000
    28 C28      1.6399   8.4867   3.0637   C.2       1 RES1   0.0000
    29 C29      1.0186   9.1921   4.0921   C.2       1 RES1   0.0000
@<TRIPOS>BOND
     1     1     2    1
     2     2     3    2
     3     2     4   am
     4     4     5    1
     5     5     6    2
     6     6     7    1
     7     7     8    2
     8     8     9    1
     9     9    10    2
    10    10    11    1
    11    11    12    2
    12    12    13    1
    13    13    14    1
    14    14    15    1
    15    15    16    2
    16    16    17    1
    17    17    18    2
    18    18    19    1
    19    19    20    1
    20    20    21    1
    21    21    22    1
    22    22    23    1
    23    23    24    1
    24    18    25    1
    25    25    26    2
    26    13    27    2
    27     8    28    1
    28    28    29    2
    29    29     5    1
    30    27     9    1
    31    26    15    1
    32    24    19    1
@<TRIPOS>SUBSTRUCTURE
     1 RES1        1 GROUP             0 ****  ****    0  
@<TRIPOS>MOLECULE
ligand_71
    29    32     1     0     0
SMALL
NO_CHARGES
****
Generated from the CSD

@<TRIPOS>ATOM
     1 C1       9.5069  -3.3461  -2.2473   C.3       1 RES1   0.0000
     2 C2       8.5707  -2.2159  -1.8196   C.2       1 RES1   0.0000
     3 O3       8.2196  -2.1141  -0.6444   O.2       1 RES1   0.0000
     4 N4       8.2023  -1.4023  -2.8153   N.am      1 RES1   0.0000
     5 C5       7.4318  -0.3098  -2.7092   C.2       1 RES1   0.0000
     6 C6       6.5170   0.0752  -3.6949   C.2       1 RES1   0.0000
     7 C7       5.7397   1.2208  -3.5279   C.2       1 RES1   0.0000
     8 C8       5.8727   1.9973  -2.3742   C.2       1 RES1   0.0000
     9 C9       5.1012   3.1453  -2.1803   C.2       1 RES1   0.0000
    10 C10      4.6468   3.9066  -3.2541   C.2       1 RES1   0.0000
    11 C11      3.8755   5.0326  -2.9868   C.2       1 RES1   0.0000
    12 N12      3.5876   5.3600  -1.7354   N.2       1 RES1   0.0000
    13 C13      4.0255   4.6183  -0.6998   C.2       1 RES1   0.0000
    14 N14      3.6997   5.0016   0.5440   N.2       1 RES1   0.0000
    15 C15      4.0852   4.4269   1.6967   C.2       1 RES1   0.0000
    16 C16      3.4686   4.8505   2.8731   C.2       1 RES1   0.0000
    17 C17      3.8189   4.2974   4.1025   C.2       1 RES1   0.0000
    18 C18      4.7960   3.3026   4.1774   C.2       1 RES1   0.0000
    19 N19      5.1390   2.7420   5.4308   N.pl3     1 RES1   0.0000
    20 C20      6.2785   1.8302   5.5763   C.3       1 RES1   0.0000
    21 C21      5.7564   0.4159   5.7450   C.3       1 RES1   0.0000
    22 O22      4.8782   0.3209   6.8686   O.3       1 RES1   0.0000
    23 C23      3.7711   1.2043   6.7349   C.3       1 RES1   0.0000
    24 C24      4.2217   2.6468   6.5747   C.3       1 RES1   0.0000
    25 C25      5.4146   2.8709   2.9993   C.2       1 RES1   0.0000
    26 C26      5.0599   3.4266   1.7699   C.2       1 RES1   0.0000
    27 N27      4.7751   3.5233  -0.9313   N.2       1 RES1   0.0000
    28 C28      6.7844   1.6103  -1.3900   C.2       1 RES1   0.0000
    29 C29      7.5599   0.4649  -1.5571   C.2       1 RES1   0.0000
@<TRIPOS>BOND
     1     1     2    1
     2     2     3    2
     3     2     4   am
     4     4     5    1
     5     5     6    2
     6     6     7    1
     7     7     8    2
     8     8     9    1
     9     9    10    2
    10    10    11    1
    11    11    12    2
    12    12    13    1
    13    13    14    1
    14    14    15    1
    15    15    16    2
    16    16    17    1
    17    17    18    2
    18    18    19    1
    19    19    20    1
    20    20    21    1
    21    21    22    1
    22    22    23    1
    23    23    24    1
    24    18    25    1
    25    25    26    2
    26    13    27    2
    27     8    28    1
    28    28    29    2
    29    29     5    1
    30    27     9    1
    31    26    15    1
    32    24    19    1
@<TRIPOS>SUBSTRUCTURE
     1 RES1        1 GROUP             0 ****  ****    0  
@<TRIPOS>MOLECULE
ligand_72
    29    32     1     0     0
SMALL
NO_CHARGES
****
Generated from the CSD

@<TRIPOS>ATOM
     1 C1       3.7354   6.3001  19.4256   C.3       1 RES1   0.0000
     2 C2       4.1170   6.9984  18.1204   C.2       1 RES1   0.0000
     3 O3       3.2418   7.3879  17.3479   O.2       1 RES1   0.0000
     4 N4       5.4350   7.1261  17.9317   N.am      1 RES1   0.0000
     5 C5       6.0382   7.7125  16.8871   C.2       1 RES1   0.0000
     6 C6       5.4840   8.7966  16.1984   C.2       1 RES1   0.0000
     7 C7       6.1593   9.3678  15.1204   C.2       1 RES1   0.0000
     8 C8       7.3953   8.8572  14.7161   C.2       1 RES1   0.0000
     9 C9       8.0945   9.4159  13.6438   C.2       1 RES1   0.0000
    10 C10      9.4853   9.3799  13.5842   C.2       1 RES1   0.0000
    11 C11     10.1147   9.9484  12.4818   C.2       1 RES1   0.0000
    12 N12      9.3948  10.5065  11.5194   N.2       1 RES1   0.0000
    13 C13      8.0496  10.5352  11.5790   C.2       1 RES1   0.0000
    14 N14      7.3772  11.1141  10.5725   N.2       1 RES1   0.0000
    15 C15      6.0428  11.1958  10.4299   C.2       1 RES1   0.0000
    16 C16      5.2818  10.0800  10.7753   C.2       1 RES1   0.0000
    17 C17      3.8945  10.0958  10.6531   C.2       1 RES1   0.0000
    18 C18      3.2391  11.2359  10.1834   C.2       1 RES1   0.0000
    19 N19      1.8284  11.2438  10.0704   N.3       1 RES1   0.0000
    20 C20      1.2708   9.9755  10.5302   C.3       1 RES1   0.0000
    21 C21     -0.3017   9.9841  10.4980   C.3       1 RES1   0.0000
    22 O22     -0.7545  11.0775  11.2955   O.3       1 RES1   0.0000
    23 C23     -0.2878  12.2854  10.7584   C.3       1 RES1   0.0000
    24 C24      1.2404  12.3426  10.8376   C.3       1 RES1   0.0000
    25 C25      3.9978  12.3597   9.8397   C.2       1 RES1   0.0000
    26 C26      5.3871  12.3402   9.9646   C.2       1 RES1   0.0000
    27 N27      7.4153   9.9924  12.6362   N.2       1 RES1   0.0000
    28 C28      7.9484   7.7767  15.4063   C.2       1 RES1   0.0000
    29 C29      7.2735   7.2072  16.4839   C.2       1 RES1   0.0000
@<TRIPOS>BOND
     1     1     2    1
     2     2     3    2
     3     2     4   am
     4     4     5    1
     5     5     6    2
     6     6     7    1
     7     7     8    2
     8     8     9    1
     9     9    10    2
    10    10    11    1
    11    11    12    2
    12    12    13    1
    13    13    14    1
    14    14    15    1
    15    15    16    2
    16    16    17    1
    17    17    18    2
    18    18    19    1
    19    19    20    1
    20    20    21    1
    21    21    22    1
    22    22    23    1
    23    23    24    1
    24    18    25    1
    25    25    26    2
    26    13    27    2
    27     8    28    1
    28    28    29    2
    29    29     5    1
    30    27     9    1
    31    26    15    1
    32    24    19    1
@<TRIPOS>SUBSTRUCTURE
     1 RES1        1 GROUP             0 ****  ****    0  
@<TRIPOS>MOLECULE
ligand_73
    29    32     1     0     0
SMALL
NO_CHARGES
****
Generated from the CSD

@<TRIPOS>ATOM
     1 C1       3.6663   5.7235  18.9646   C.3       1 RES1   0.0000
     2 C2       4.4130   6.0928  17.6829   C.2       1 RES1   0.0000
     3 O3       4.2387   5.4394  16.6547   O.2       1 RES1   0.0000
     4 N4       5.2280   7.1461  17.8071   N.am      1 RES1   0.0000
     5 C5       5.9594   7.7080  16.8334   C.2       1 RES1   0.0000
     6 C6       7.2318   8.2467  17.0516   C.2       1 RES1   0.0000
     7 C7       7.9473   8.8161  15.9988   C.2       1 RES1   0.0000
     8 C8       7.3953   8.8572  14.7161   C.2       1 RES1   0.0000
     9 C9       8.0945   9.4159  13.6438   C.2       1 RES1   0.0000
    10 C10      9.4853   9.3799  13.5842   C.2       1 RES1   0.0000
    11 C11     10.1147   9.9484  12.4818   C.2       1 RES1   0.0000
    12 N12      9.3948  10.5065  11.5194   N.2       1 RES1   0.0000
    13 C13      8.0496  10.5352  11.5790   C.2       1 RES1   0.0000
    14 N14      7.3772  11.1141  10.5725   N.2       1 RES1   0.0000
    15 C15      6.0428  11.1958  10.4299   C.2       1 RES1   0.0000
    16 C16      5.2818  10.0800  10.7753   C.2       1 RES1   0.0000
    17 C17      3.8945  10.0957  10.6532   C.2       1 RES1   0.0000
    18 C18      3.2391  11.2359  10.1834   C.2       1 RES1   0.0000
    19 N19      1.8284  11.2438  10.0703   N.3       1 RES1   0.0000
    20 C20      1.2708   9.9754  10.5301   C.3       1 RES1   0.0000
    21 C21     -0.3017   9.9840  10.4979   C.3       1 RES1   0.0000
    22 O22     -0.7545  11.0773  11.2954   O.3       1 RES1   0.0000
    23 C23     -0.2878  12.2853  10.7584   C.3       1 RES1   0.0000
    24 C24      1.2403  12.3425  10.8376   C.3       1 RES1   0.0000
    25 C25      3.9978  12.3597   9.8396   C.2       1 RES1   0.0000
    26 C26      5.3871  12.3402   9.9646   C.2       1 RES1   0.0000
    27 N27      7.4153   9.9924  12.6362   N.2       1 RES1   0.0000
    28 C28      6.1263   8.3167  14.4994   C.2       1 RES1   0.0000
    29 C29      5.4124   7.7471  15.5516   C.2       1 RES1   0.0000
@<TRIPOS>BOND
     1     1     2    1
     2     2     3    2
     3     2     4   am
     4     4     5    1
     5     5     6    2
     6     6     7    1
     7     7     8    2
     8     8     9    1
     9     9    10    2
    10    10    11    1
    11    11    12    2
    12    12    13    1
    13    13    14    1
    14    14    15    1
    15    15    16    2
    16    16    17    1
    17    17    18    2
    18    18    19    1
    19    19    20    1
    20    20    21    1
    21    21    22    1
    22    22    23    1
    23    23    24    1
    24    18    25    1
    25    25    26    2
    26    13    27    2
    27     8    28    1
    28    28    29    2
    29    29     5    1
    30    27     9    1
    31    26    15    1
    32    24    19    1
@<TRIPOS>SUBSTRUCTURE
     1 RES1        1 GROUP             0 ****  ****    0  
@<TRIPOS>MOLECULE
ligand_74
    29    32     1     0     0
SMALL
NO_CHARGES
****
Generated from the CSD

@<TRIPOS>ATOM
     1 C1      -6.7612 -16.4550  -1.1246   C.3       1 RES1   0.0000
     2 C2      -7.3748 -15.4253  -2.0733   C.2       1 RES1   0.0000
     3 O3      -7.9584 -14.4396  -1.6235   O.2       1 RES1   0.0000
     4 N4      -7.2109 -15.7084  -3.3703   N.am      1 RES1   0.0000
     5 C5      -7.6633 -14.9883  -4.4073   C.2       1 RES1   0.0000
     6 C6      -8.8514 -14.2514  -4.3616   C.2       1 RES1   0.0000
     7 C7      -9.2705 -13.5184  -5.4713   C.2       1 RES1   0.0000
     8 C8      -8.5074 -13.5184  -6.6416   C.2       1 RES1   0.0000
     9 C9      -8.9022 -12.7871  -7.7641   C.2       1 RES1   0.0000
    10 C10    -10.2452 -12.5375  -8.0347   C.2       1 RES1   0.0000
    11 C11    -10.5647 -11.7943  -9.1661   C.2       1 RES1   0.0000
    12 N12     -9.6034 -11.3410  -9.9575   N.2       1 RES1   0.0000
    13 C13     -8.3054 -11.5810  -9.6897   C.2       1 RES1   0.0000
    14 N14     -7.3788 -11.0942 -10.5291   N.2       1 RES1   0.0000
    15 C15     -6.0457 -11.2450 -10.4412   C.2       1 RES1   0.0000
    16 C16     -5.2430 -10.1666 -10.8102   C.2       1 RES1   0.0000
    17 C17     -3.8545 -10.2537 -10.7432   C.2       1 RES1   0.0000
    18 C18     -3.2404 -11.4270 -10.3002   C.2       1 RES1   0.0000
    19 N19     -1.8289 -11.5021 -10.2288   N.3       1 RES1   0.0000
    20 C20     -1.2243 -10.2763 -10.7415   C.3       1 RES1   0.0000
    21 C21      0.3461 -10.3624 -10.7555   C.3       1 RES1   0.0000
    22 O22      0.7199 -11.4984 -11.5341   O.3       1 RES1   0.0000
    23 C23      0.2114 -12.6664 -10.9487   C.3       1 RES1   0.0000
    24 C24     -1.3194 -12.6495 -10.9810   C.3       1 RES1   0.0000
    25 C25     -4.0415 -12.5104  -9.9246   C.2       1 RES1   0.0000
    26 C26     -5.4318 -12.4187  -9.9921   C.2       1 RES1   0.0000
    27 N27     -7.9689 -12.2989  -8.6008   N.2       1 RES1   0.0000
    28 C28     -7.3204 -14.2523  -6.6847   C.2       1 RES1   0.0000
    29 C29     -6.9018 -14.9836  -5.5752   C.2       1 RES1   0.0000
@<TRIPOS>BOND
     1     1     2    1
     2     2     3    2
     3     2     4   am
     4     4     5    1
     5     5     6    2
     6     6     7    1
     7     7     8    2
     8     8     9    1
     9     9    10    2
    10    10    11    1
    11    11    12    2
    12    12    13    1
    13    13    14    1
    14    14    15    1
    15    15    16    2
    16    16    17    1
    17    17    18    2
    18    18    19    1
    19    19    20    1
    20    20    21    1
    21    21    22    1
    22    22    23    1
    23    23    24    1
    24    18    25    1
    25    25    26    2
    26    13    27    2
    27     8    28    1
    28    28    29    2
    29    29     5    1
    30    27     9    1
    31    26    15    1
    32    24    19    1
@<TRIPOS>SUBSTRUCTURE
     1 RES1        1 GROUP             0 ****  ****    0  
@<TRIPOS>MOLECULE
ligand_75
    29    32     1     0     0
SMALL
NO_CHARGES
****
Generated from the CSD

@<TRIPOS>ATOM
     1 C1     -18.1204 -10.6239 -11.3787   C.3       1 RES1   0.0000
     2 C2     -16.6446 -10.2983 -11.1489   C.2       1 RES1   0.0000
     3 O3     -16.3072  -9.5911 -10.1999   O.2       1 RES1   0.0000
     4 N4     -15.8167 -10.8410 -12.0484   N.am      1 RES1   0.0000
     5 C5     -14.4802 -10.7315 -12.0705   C.2       1 RES1   0.0000
     6 C6     -13.7062 -10.6221 -10.9105   C.2       1 RES1   0.0000
     7 C7     -12.3186 -10.5140 -10.9954   C.2       1 RES1   0.0000
     8 C8     -11.6898 -10.5092 -12.2430   C.2       1 RES1   0.0000
     9 C9     -10.3012 -10.4087 -12.3543   C.2       1 RES1   0.0000
    10 C10     -9.7017  -9.7940 -13.4506   C.2       1 RES1   0.0000
    11 C11     -8.3133  -9.7221 -13.4908   C.2       1 RES1   0.0000
    12 N12     -7.5920 -10.2302 -12.5021   N.2       1 RES1   0.0000
    13 C13     -8.1761 -10.8201 -11.4414   C.2       1 RES1   0.0000
    14 N14     -7.3911 -11.3146 -10.4722   N.2       1 RES1   0.0000
    15 C15     -6.0490 -11.2630 -10.4104   C.2       1 RES1   0.0000
    16 C16     -5.3770 -12.3794  -9.9149   C.2       1 RES1   0.0000
    17 C17     -3.9872 -12.3945  -9.8237   C.2       1 RES1   0.0000
    18 C18     -3.2400 -11.2876 -10.2318   C.2       1 RES1   0.0000
    19 N19     -1.8279 -11.3164 -10.1419   N.3       1 RES1   0.0000
    20 C20     -1.2579 -10.0658 -10.6342   C.3       1 RES1   0.0000
    21 C21      0.3145 -10.0994 -10.6278   C.3       1 RES1   0.0000
    22 O22      0.7364 -11.2142 -11.4124   O.3       1 RES1   0.0000
    23 C23      0.2595 -12.4045 -10.8455   C.3       1 RES1   0.0000
    24 C24     -1.2705 -12.4383 -10.8985   C.3       1 RES1   0.0000
    25 C25     -3.9093 -10.1666 -10.7338   C.2       1 RES1   0.0000
    26 C26     -5.3014 -10.1560 -10.8246   C.2       1 RES1   0.0000
    27 N27     -9.5191 -10.9037 -11.3784   N.2       1 RES1   0.0000
    28 C28    -12.4636 -10.6211 -13.3998   C.2       1 RES1   0.0000
    29 C29    -13.8500 -10.7302 -13.3142   C.2       1 RES1   0.0000
@<TRIPOS>BOND
     1     1     2    1
     2     2     3    2
     3     2     4   am
     4     4     5    1
     5     5     6    2
     6     6     7    1
     7     7     8    2
     8     8     9    1
     9     9    10    2
    10    10    11    1
    11    11    12    2
    12    12    13    1
    13    13    14    1
    14    14    15    1
    15    15    16    2
    16    16    17    1
    17    17    18    2
    18    18    19    1
    19    19    20    1
    20    20    21    1
    21    21    22    1
    22    22    23    1
    23    23    24    1
    24    18    25    1
    25    25    26    2
    26    13    27    2
    27     8    28    1
    28    28    29    2
    29    29     5    1
    30    27     9    1
    31    26    15    1
    32    24    19    1
@<TRIPOS>SUBSTRUCTURE
     1 RES1        1 GROUP             0 ****  ****    0  
@<TRIPOS>MOLECULE
ligand_76
    29    32     1     0     0
SMALL
NO_CHARGES
****
Generated from the CSD

@<TRIPOS>ATOM
     1 C1      -6.1205 -17.4248  -2.0788   C.3       1 RES1   0.0000
     2 C2      -6.5653 -16.8781  -3.4353   C.2       1 RES1   0.0000
     3 O3      -6.3214 -17.5053  -4.4656   O.2       1 RES1   0.0000
     4 N4      -7.2109 -15.7084  -3.3703   N.am      1 RES1   0.0000
     5 C5      -7.6633 -14.9883  -4.4073   C.2       1 RES1   0.0000
     6 C6      -8.8514 -14.2514  -4.3616   C.2       1 RES1   0.0000
     7 C7      -9.2705 -13.5184  -5.4713   C.2       1 RES1   0.0000
     8 C8      -8.5074 -13.5184  -6.6416   C.2       1 RES1   0.0000
     9 C9      -8.9022 -12.7871  -7.7641   C.2       1 RES1   0.0000
    10 C10    -10.2452 -12.5375  -8.0347   C.2       1 RES1   0.0000
    11 C11    -10.5647 -11.7943  -9.1661   C.2       1 RES1   0.0000
    12 N12     -9.6034 -11.3410  -9.9575   N.2       1 RES1   0.0000
    13 C13     -8.3054 -11.5810  -9.6897   C.2       1 RES1   0.0000
    14 N14     -7.3788 -11.0942 -10.5291   N.2       1 RES1   0.0000
    15 C15     -6.0457 -11.2450 -10.4412   C.2       1 RES1   0.0000
    16 C16     -5.2430 -10.1667 -10.8102   C.2       1 RES1   0.0000
    17 C17     -3.8545 -10.2537 -10.7432   C.2       1 RES1   0.0000
    18 C18     -3.2404 -11.4270 -10.3002   C.2       1 RES1   0.0000
    19 N19     -1.8289 -11.5021 -10.2288   N.3       1 RES1   0.0000
    20 C20     -1.2243 -10.2763 -10.7415   C.3       1 RES1   0.0000
    21 C21      0.3461 -10.3623 -10.7555   C.3       1 RES1   0.0000
    22 O22      0.7199 -11.4984 -11.5341   O.3       1 RES1   0.0000
    23 C23      0.2114 -12.6664 -10.9487   C.3       1 RES1   0.0000
    24 C24     -1.3194 -12.6495 -10.9810   C.3       1 RES1   0.0000
    25 C25     -4.0414 -12.5104  -9.9246   C.2       1 RES1   0.0000
    26 C26     -5.4318 -12.4187  -9.9920   C.2       1 RES1   0.0000
    27 N27     -7.9689 -12.2989  -8.6008   N.2       1 RES1   0.0000
    28 C28     -7.3204 -14.2523  -6.6847   C.2       1 RES1   0.0000
    29 C29     -6.9018 -14.9836  -5.5752   C.2       1 RES1   0.0000
@<TRIPOS>BOND
     1     1     2    1
     2     2     3    2
     3     2     4   am
     4     4     5    1
     5     5     6    2
     6     6     7    1
     7     7     8    2
     8     8     9    1
     9     9    10    2
    10    10    11    1
    11    11    12    2
    12    12    13    1
    13    13    14    1
    14    14    15    1
    15    15    16    2
    16    16    17    1
    17    17    18    2
    18    18    19    1
    19    19    20    1
    20    20    21    1
    21    21    22    1
    22    22    23    1
    23    23    24    1
    24    18    25    1
    25    25    26    2
    26    13    27    2
    27     8    28    1
    28    28    29    2
    29    29     5    1
    30    27     9    1
    31    26    15    1
    32    24    19    1
@<TRIPOS>SUBSTRUCTURE
     1 RES1        1 GROUP             0 ****  ****    0  
@<TRIPOS>MOLECULE
ligand_77
    29    32     1     0     0
SMALL
NO_CHARGES
****
Generated from the CSD

@<TRIPOS>ATOM
     1 C1     -18.1263 -10.0037 -11.9381   C.3       1 RES1   0.0000
     2 C2     -16.6392  -9.6506 -11.9157   C.2       1 RES1   0.0000
     3 O3     -16.2831  -8.4766 -11.8186   O.2       1 RES1   0.0000
     4 N4     -15.8233 -10.7064 -12.0090   N.am      1 RES1   0.0000
     5 C5     -14.4836 -10.6769 -12.0626   C.2       1 RES1   0.0000
     6 C6     -13.6763 -11.6515 -11.4664   C.2       1 RES1   0.0000
     7 C7     -12.2873 -11.5700 -11.5578   C.2       1 RES1   0.0000
     8 C8     -11.6898 -10.5092 -12.2430   C.2       1 RES1   0.0000
     9 C9     -10.3012 -10.4087 -12.3543   C.2       1 RES1   0.0000
    10 C10     -9.7017  -9.7940 -13.4506   C.2       1 RES1   0.0000
    11 C11     -8.3133  -9.7221 -13.4908   C.2       1 RES1   0.0000
    12 N12     -7.5920 -10.2302 -12.5021   N.2       1 RES1   0.0000
    13 C13     -8.1761 -10.8201 -11.4414   C.2       1 RES1   0.0000
    14 N14     -7.3911 -11.3146 -10.4722   N.2       1 RES1   0.0000
    15 C15     -6.0490 -11.2630 -10.4103   C.2       1 RES1   0.0000
    16 C16     -5.3770 -12.3793  -9.9148   C.2       1 RES1   0.0000
    17 C17     -3.9872 -12.3943  -9.8236   C.2       1 RES1   0.0000
    18 C18     -3.2400 -11.2874 -10.2317   C.2       1 RES1   0.0000
    19 N19     -1.8279 -11.3162 -10.1418   N.3       1 RES1   0.0000
    20 C20     -1.2580 -10.0657 -10.6342   C.3       1 RES1   0.0000
    21 C21      0.3145 -10.0992 -10.6278   C.3       1 RES1   0.0000
    22 O22      0.7364 -11.2141 -11.4122   O.3       1 RES1   0.0000
    23 C23      0.2596 -12.4043 -10.8452   C.3       1 RES1   0.0000
    24 C24     -1.2704 -12.4382 -10.8982   C.3       1 RES1   0.0000
    25 C25     -3.9094 -10.1664 -10.7338   C.2       1 RES1   0.0000
    26 C26     -5.3014 -10.1560 -10.8246   C.2       1 RES1   0.0000
    27 N27     -9.5191 -10.9037 -11.3784   N.2       1 RES1   0.0000
    28 C28    -12.4970  -9.5386 -12.8398   C.2       1 RES1   0.0000
    29 C29    -13.8849  -9.6213 -12.7489   C.2       1 RES1   0.0000
@<TRIPOS>BOND
     1     1     2    1
     2     2     3    2
     3     2     4   am
     4     4     5    1
     5     5     6    2
     6     6     7    1
     7     7     8    2
     8     8     9    1
     9     9    10    2
    10    10    11    1
    11    11    12    2
    12    12    13    1
    13    13    14    1
    14    14    15    1
    15    15    16    2
    16    16    17    1
    17    17    18    2
    18    18    19    1
    19    19    20    1
    20    20    21    1
    21    21    22    1
    22    22    23    1
    23    23    24    1
    24    18    25    1
    25    25    26    2
    26    13    27    2
    27     8    28    1
    28    28    29    2
    29    29     5    1
    30    27     9    1
    31    26    15    1
    32    24    19    1
@<TRIPOS>SUBSTRUCTURE
     1 RES1        1 GROUP             0 ****  ****    0  
@<TRIPOS>MOLECULE
ligand_78
    29    32     1     0     0
SMALL
NO_CHARGES
****
Generated from the CSD

@<TRIPOS>ATOM
     1 C1      -5.1198 -21.6843 -12.4416   C.3       1 RES1   0.0000
     2 C2      -5.5138 -20.2142 -12.5850   C.2       1 RES1   0.0000
     3 O3      -5.1006 -19.5526 -13.5369   O.2       1 RES1   0.0000
     4 N4      -6.3117 -19.7627 -11.6110   N.am      1 RES1   0.0000
     5 C5      -6.7876 -18.5154 -11.4837   C.2       1 RES1   0.0000
     6 C6      -6.0797 -17.3841 -11.9030   C.2       1 RES1   0.0000
     7 C7      -6.6271 -16.1110 -11.7475   C.2       1 RES1   0.0000
     8 C8      -7.8877 -15.9552 -11.1658   C.2       1 RES1   0.0000
     9 C9      -8.4605 -14.6916 -11.0050   C.2       1 RES1   0.0000
    10 C10     -9.8413 -14.5116 -11.0174   C.2       1 RES1   0.0000
    11 C11    -10.3420 -13.2259 -10.8425   C.2       1 RES1   0.0000
    12 N12     -9.5128 -12.2070 -10.6688   N.2       1 RES1   0.0000
    13 C13     -8.1780 -12.3862 -10.6531   C.2       1 RES1   0.0000
    14 N14     -7.3911 -11.3146 -10.4722   N.2       1 RES1   0.0000
    15 C15     -6.0500 -11.2999 -10.3780   C.2       1 RES1   0.0000
    16 C16     -5.4372 -12.3218  -9.6544   C.2       1 RES1   0.0000
    17 C17     -4.0520 -12.3685  -9.5170   C.2       1 RES1   0.0000
    18 C18     -3.2497 -11.3895 -10.1071   C.2       1 RES1   0.0000
    19 N19     -1.8427 -11.4507  -9.9676   N.3       1 RES1   0.0000
    20 C20     -1.2094 -10.3409 -10.6736   C.3       1 RES1   0.0000
    21 C21      0.3596 -10.4287 -10.6098   C.3       1 RES1   0.0000
    22 O22      0.7545 -11.6891 -11.1500   O.3       1 RES1   0.0000
    23 C23      0.2149 -12.7287 -10.3795   C.3       1 RES1   0.0000
    24 C24     -1.3134 -12.7175 -10.4745   C.3       1 RES1   0.0000
    25 C25     -3.8595 -10.3644 -10.8379   C.2       1 RES1   0.0000
    26 C26     -5.2472 -10.3221 -10.9741   C.2       1 RES1   0.0000
    27 N27     -7.6670 -13.6212 -10.8211   N.2       1 RES1   0.0000
    28 C28     -8.5942 -17.0856 -10.7502   C.2       1 RES1   0.0000
    29 C29     -8.0470 -18.3573 -10.9068   C.2       1 RES1   0.0000
@<TRIPOS>BOND
     1     1     2    1
     2     2     3    2
     3     2     4   am
     4     4     5    1
     5     5     6    2
     6     6     7    1
     7     7     8    2
     8     8     9    1
     9     9    10    2
    10    10    11    1
    11    11    12    2
    12    12    13    1
    13    13    14    1
    14    14    15    1
    15    15    16    2
    16    16    17    1
    17    17    18    2
    18    18    19    1
    19    19    20    1
    20    20    21    1
    21    21    22    1
    22    22    23    1
    23    23    24    1
    24    18    25    1
    25    25    26    2
    26    13    27    2
    27     8    28    1
    28    28    29    2
    29    29     5    1
    30    27     9    1
    31    26    15    1
    32    24    19    1
@<TRIPOS>SUBSTRUCTURE
     1 RES1        1 GROUP             0 ****  ****    0  
@<TRIPOS>MOLECULE
ligand_79
    29    32     1     0     0
SMALL
NO_CHARGES
****
Generated from the CSD

@<TRIPOS>ATOM
     1 C1     -17.9168  -9.0166 -11.6260   C.3       1 RES1   0.0000
     2 C2     -16.4093  -9.1243 -11.8559   C.2       1 RES1   0.0000
     3 O3     -15.9729  -9.4432 -12.9616   O.2       1 RES1   0.0000
     4 N4     -15.6688  -8.8475 -10.7770   N.am      1 RES1   0.0000
     5 C5     -14.3306  -8.8844 -10.6971   C.2       1 RES1   0.0000
     6 C6     -13.5486  -9.7814 -11.4324   C.2       1 RES1   0.0000
     7 C7     -12.1595  -9.7712 -11.3104   C.2       1 RES1   0.0000
     8 C8     -11.5372  -8.8662 -10.4470   C.2       1 RES1   0.0000
     9 C9     -10.1475  -8.8317 -10.3121   C.2       1 RES1   0.0000
    10 C10     -9.4768  -7.6549  -9.9889   C.2       1 RES1   0.0000
    11 C11     -8.0923  -7.6965  -9.8622   C.2       1 RES1   0.0000
    12 N12     -7.4414  -8.8358 -10.0469   N.2       1 RES1   0.0000
    13 C13     -8.0945  -9.9727 -10.3553   C.2       1 RES1   0.0000
    14 N14     -7.3788 -11.0942 -10.5291   N.2       1 RES1   0.0000
    15 C15     -6.0403 -11.2155 -10.4942   C.2       1 RES1   0.0000
    16 C16     -5.2805 -10.2228 -11.1113   C.2       1 RES1   0.0000
    17 C17     -3.8891 -10.2852 -11.1125   C.2       1 RES1   0.0000
    18 C18     -3.2285 -11.3465 -10.4901   C.2       1 RES1   0.0000
    19 N19     -1.8141 -11.3962 -10.4907   N.3       1 RES1   0.0000
    20 C20     -1.2632 -10.2879 -11.2648   C.3       1 RES1   0.0000
    21 C21      0.3051 -10.3636 -11.3565   C.3       1 RES1   0.0000
    22 O22      0.6546 -11.6258 -11.9234   O.3       1 RES1   0.0000
    23 C23      0.2027 -12.6626 -11.0949   C.3       1 RES1   0.0000
    24 C24     -1.3275 -12.6634 -11.0377   C.3       1 RES1   0.0000
    25 C25     -3.9862 -12.3429  -9.8657   C.2       1 RES1   0.0000
    26 C26     -5.3796 -12.2760  -9.8657   C.2       1 RES1   0.0000
    27 N27     -9.4352  -9.9595 -10.4847   N.2       1 RES1   0.0000
    28 C28    -12.3190  -7.9697  -9.7157   C.2       1 RES1   0.0000
    29 C29    -13.7068  -7.9797  -9.8389   C.2       1 RES1   0.0000
@<TRIPOS>BOND
     1     1     2    1
     2     2     3    2
     3     2     4   am
     4     4     5    1
     5     5     6    2
     6     6     7    1
     7     7     8    2
     8     8     9    1
     9     9    10    2
    10    10    11    1
    11    11    12    2
    12    12    13    1
    13    13    14    1
    14    14    15    1
    15    15    16    2
    16    16    17    1
    17    17    18    2
    18    18    19    1
    19    19    20    1
    20    20    21    1
    21    21    22    1
    22    22    23    1
    23    23    24    1
    24    18    25    1
    25    25    26    2
    26    13    27    2
    27     8    28    1
    28    28    29    2
    29    29     5    1
    30    27     9    1
    31    26    15    1
    32    24    19    1
@<TRIPOS>SUBSTRUCTURE
     1 RES1        1 GROUP             0 ****  ****    0  
@<TRIPOS>MOLECULE
ligand_80
    29    32     1     0     0
SMALL
NO_CHARGES
****
Generated from the CSD

@<TRIPOS>ATOM
     1 C1     -18.0580 -10.9993 -11.7255   C.3       1 RES1   0.0000
     2 C2     -16.5340 -11.0594 -11.8280   C.2       1 RES1   0.0000
     3 O3     -15.9541 -10.5075 -12.7627   O.2       1 RES1   0.0000
     4 N4     -15.9444 -11.7422 -10.8404   N.am      1 RES1   0.0000
     5 C5     -14.6268 -11.9326 -10.6783   C.2       1 RES1   0.0000
     6 C6     -13.6681 -10.9913 -11.0678   C.2       1 RES1   0.0000
     7 C7     -12.3108 -11.2434 -10.8712   C.2       1 RES1   0.0000
     8 C8     -11.8970 -12.4430 -10.2867   C.2       1 RES1   0.0000
     9 C9     -10.5441 -12.7162 -10.0730   C.2       1 RES1   0.0000
    10 C10    -10.1241 -13.9223  -9.5180   C.2       1 RES1   0.0000
    11 C11     -8.7601 -14.1297  -9.3420   C.2       1 RES1   0.0000
    12 N12     -7.8933 -13.1931  -9.6993   N.2       1 RES1   0.0000
    13 C13     -8.3036 -12.0297 -10.2397   C.2       1 RES1   0.0000
    14 N14     -7.3770 -11.1215 -10.5814   N.2       1 RES1   0.0000
    15 C15     -6.0482 -11.2099 -10.3970   C.2       1 RES1   0.0000
    16 C16     -5.2180 -10.6391 -11.3605   C.2       1 RES1   0.0000
    17 C17     -3.8321 -10.6934 -11.2322   C.2       1 RES1   0.0000
    18 C18     -3.2483 -11.3206 -10.1296   C.2       1 RES1   0.0000
    19 N19     -1.8392 -11.3634 -10.0053   N.3       1 RES1   0.0000
    20 C20     -1.2418 -10.1372 -10.5255   C.3       1 RES1   0.0000
    21 C21      0.3295 -10.1895 -10.4805   C.3       1 RES1   0.0000
    22 O22      0.7552 -11.3353 -11.2171   O.3       1 RES1   0.0000
    23 C23      0.2500 -12.4998 -10.6221   C.3       1 RES1   0.0000
    24 C24     -1.2787 -12.5169 -10.7103   C.3       1 RES1   0.0000
    25 C25     -4.0770 -11.8911  -9.1578   C.2       1 RES1   0.0000
    26 C26     -5.4646 -11.8335  -9.2894   C.2       1 RES1   0.0000
    27 N27     -9.6192 -11.8033 -10.4201   N.2       1 RES1   0.0000
    28 C28    -12.8553 -13.3803  -9.8960   C.2       1 RES1   0.0000
    29 C29    -14.2113 -13.1273 -10.0919   C.2       1 RES1   0.0000
@<TRIPOS>BOND
     1     1     2    1
     2     2     3    2
     3     2     4   am
     4     4     5    1
     5     5     6    2
     6     6     7    1
     7     7     8    2
     8     8     9    1
     9     9    10    2
    10    10    11    1
    11    11    12    2
    12    12    13    1
    13    13    14    1
    14    14    15    1
    15    15    16    2
    16    16    17    1
    17    17    18    2
    18    18    19    1
    19    19    20    1
    20    20    21    1
    21    21    22    1
    22    22    23    1
    23    23    24    1
    24    18    25    1
    25    25    26    2
    26    13    27    2
    27     8    28    1
    28    28    29    2
    29    29     5    1
    30    27     9    1
    31    26    15    1
    32    24    19    1
@<TRIPOS>SUBSTRUCTURE
     1 RES1        1 GROUP             0 ****  ****    0  
@<TRIPOS>MOLECULE
ligand_81
    29    32     1     0     0
SMALL
NO_CHARGES
****
Generated from the CSD

@<TRIPOS>ATOM
     1 C1      -6.2584   3.4071  13.6806   C.3       1 RES1   0.0000
     2 C2      -5.4206   2.5931  12.6945   C.2       1 RES1   0.0000
     3 O3      -4.9662   3.1250  11.6820   O.2       1 RES1   0.0000
     4 N4      -5.2526   1.3129  13.0437   N.am      1 RES1   0.0000
     5 C5      -4.5501   0.3886  12.3723   C.2       1 RES1   0.0000
     6 C6      -3.4088   0.6952  11.6238   C.2       1 RES1   0.0000
     7 C7      -2.7167  -0.3094  10.9484   C.2       1 RES1   0.0000
     8 C8      -3.1619  -1.6322  11.0103   C.2       1 RES1   0.0000
     9 C9      -2.4824  -2.6572  10.3483   C.2       1 RES1   0.0000
    10 C10     -3.1515  -3.7761   9.8589   C.2       1 RES1   0.0000
    11 C11     -2.4119  -4.7539   9.2019   C.2       1 RES1   0.0000
    12 N12     -1.1032  -4.6098   9.0525   N.2       1 RES1   0.0000
    13 C13     -0.4606  -3.5238   9.5237   C.2       1 RES1   0.0000
    14 N14      0.8656  -3.4359   9.3402   N.2       1 RES1   0.0000
    15 C15      1.6829  -2.4645   9.7828   C.2       1 RES1   0.0000
    16 C16      2.9934  -2.4498   9.3078   C.2       1 RES1   0.0000
    17 C17      3.8933  -1.4717   9.7241   C.2       1 RES1   0.0000
    18 C18      3.4953  -0.4828  10.6262   C.2       1 RES1   0.0000
    19 N19      4.4156   0.5109  11.0367   N.pl3     1 RES1   0.0000
    20 C20      4.6521   0.8533  12.4461   C.3       1 RES1   0.0000
    21 C21      4.9598   2.3316  12.5524   C.3       1 RES1   0.0000
    22 O22      6.0869   2.6759  11.7433   O.3       1 RES1   0.0000
    23 C23      5.8293   2.3646  10.3799   C.3       1 RES1   0.0000
    24 C24      5.5417   0.8837  10.1819   C.3       1 RES1   0.0000
    25 C25      2.1801  -0.4905  11.1025   C.2       1 RES1   0.0000
    26 C26      1.2815  -1.4713  10.6820   C.2       1 RES1   0.0000
    27 N27     -1.1533  -2.5626  10.1646   N.2       1 RES1   0.0000
    28 C28     -4.2997  -1.9370  11.7600   C.2       1 RES1   0.0000
    29 C29     -4.9901  -0.9329  12.4355   C.2       1 RES1   0.0000
@<TRIPOS>BOND
     1     1     2    1
     2     2     3    2
     3     2     4   am
     4     4     5    1
     5     5     6    2
     6     6     7    1
     7     7     8    2
     8     8     9    1
     9     9    10    2
    10    10    11    1
    11    11    12    2
    12    12    13    1
    13    13    14    1
    14    14    15    1
    15    15    16    2
    16    16    17    1
    17    17    18    2
    18    18    19    1
    19    19    20    1
    20    20    21    1
    21    21    22    1
    22    22    23    1
    23    23    24    1
    24    18    25    1
    25    25    26    2
    26    13    27    2
    27     8    28    1
    28    28    29    2
    29    29     5    1
    30    27     9    1
    31    26    15    1
    32    24    19    1
@<TRIPOS>SUBSTRUCTURE
     1 RES1        1 GROUP             0 ****  ****    0  
@<TRIPOS>MOLECULE
ligand_82
    29    32     1     0     0
SMALL
NO_CHARGES
****
Generated from the CSD

@<TRIPOS>ATOM
     1 C1      -6.3610   2.8264  14.4743   C.3       1 RES1   0.0000
     2 C2      -5.7662   1.4791  14.0647   C.2       1 RES1   0.0000
     3 O3      -5.9184   0.4912  14.7826   O.2       1 RES1   0.0000
     4 N4      -5.1015   1.5031  12.9041   N.am      1 RES1   0.0000
     5 C5      -4.5018   0.4629  12.3067   C.2       1 RES1   0.0000
     6 C6      -4.9767  -0.8491  12.4058   C.2       1 RES1   0.0000
     7 C7      -4.3123  -1.8909  11.7595   C.2       1 RES1   0.0000
     8 C8      -3.1619  -1.6322  11.0103   C.2       1 RES1   0.0000
     9 C9      -2.4824  -2.6572  10.3483   C.2       1 RES1   0.0000
    10 C10     -3.1515  -3.7761   9.8589   C.2       1 RES1   0.0000
    11 C11     -2.4119  -4.7539   9.2019   C.2       1 RES1   0.0000
    12 N12     -1.1032  -4.6098   9.0525   N.2       1 RES1   0.0000
    13 C13     -0.4606  -3.5238   9.5237   C.2       1 RES1   0.0000
    14 N14      0.8656  -3.4359   9.3402   N.2       1 RES1   0.0000
    15 C15      1.6829  -2.4645   9.7828   C.2       1 RES1   0.0000
    16 C16      2.9934  -2.4498   9.3078   C.2       1 RES1   0.0000
    17 C17      3.8933  -1.4717   9.7241   C.2       1 RES1   0.0000
    18 C18      3.4953  -0.4828  10.6262   C.2       1 RES1   0.0000
    19 N19      4.4156   0.5109  11.0367   N.pl3     1 RES1   0.0000
    20 C20      4.6521   0.8533  12.4461   C.3       1 RES1   0.0000
    21 C21      4.9598   2.3316  12.5524   C.3       1 RES1   0.0000
    22 O22      6.0869   2.6759  11.7433   O.3       1 RES1   0.0000
    23 C23      5.8293   2.3646  10.3799   C.3       1 RES1   0.0000
    24 C24      5.5417   0.8837  10.1819   C.3       1 RES1   0.0000
    25 C25      2.1801  -0.4905  11.1025   C.2       1 RES1   0.0000
    26 C26      1.2815  -1.4713  10.6820   C.2       1 RES1   0.0000
    27 N27     -1.1533  -2.5626  10.1646   N.2       1 RES1   0.0000
    28 C28     -2.6907  -0.3216  10.9102   C.2       1 RES1   0.0000
    29 C29     -3.3556   0.7190  11.5554   C.2       1 RES1   0.0000
@<TRIPOS>BOND
     1     1     2    1
     2     2     3    2
     3     2     4   am
     4     4     5    1
     5     5     6    2
     6     6     7    1
     7     7     8    2
     8     8     9    1
     9     9    10    2
    10    10    11    1
    11    11    12    2
    12    12    13    1
    13    13    14    1
    14    14    15    1
    15    15    16    2
    16    16    17    1
    17    17    18    2
    18    18    19    1
    19    19    20    1
    20    20    21    1
    21    21    22    1
    22    22    23    1
    23    23    24    1
    24    18    25    1
    25    25    26    2
    26    13    27    2
    27     8    28    1
    28    28    29    2
    29    29     5    1
    30    27     9    1
    31    26    15    1
    32    24    19    1
@<TRIPOS>SUBSTRUCTURE
     1 RES1        1 GROUP             0 ****  ****    0  
@<TRIPOS>MOLECULE
ligand_83
    29    32     1     0     0
SMALL
NO_CHARGES
****
Generated from the CSD

@<TRIPOS>ATOM
     1 C1       3.7461  13.2694   6.8200   C.3       1 RES1   0.0000
     2 C2       4.0259  12.1647   5.8011   C.2       1 RES1   0.0000
     3 O3       4.9468  11.3698   5.9871   O.2       1 RES1   0.0000
     4 N4       3.2004  12.1674   4.7487   N.am      1 RES1   0.0000
     5 C5       3.1921  11.2846   3.7391   C.2       1 RES1   0.0000
     6 C6       2.9003  11.6414   2.4184   C.2       1 RES1   0.0000
     7 C7       2.9100  10.6796   1.4088   C.2       1 RES1   0.0000
     8 C8       3.2071   9.3482   1.7104   C.2       1 RES1   0.0000
     9 C9       3.2297   8.3676   0.7161   C.2       1 RES1   0.0000
    10 C10      2.9844   8.6790  -0.6188   C.2       1 RES1   0.0000
    11 C11      3.0321   7.6530  -1.5566   C.2       1 RES1   0.0000
    12 N12      3.3063   6.4143  -1.1740   N.2       1 RES1   0.0000
    13 C13      3.5473   6.1182   0.1177   C.2       1 RES1   0.0000
    14 N14      3.8199   4.8451   0.4417   N.2       1 RES1   0.0000
    15 C15      4.0174   4.3465   1.6746   C.2       1 RES1   0.0000
    16 C16      4.5128   3.0478   1.7798   C.2       1 RES1   0.0000
    17 C17      4.7417   2.4691   3.0259   C.2       1 RES1   0.0000
    18 C18      4.4803   3.1846   4.1963   C.2       1 RES1   0.0000
    19 N19      4.7235   2.5899   5.4572   N.pl3     1 RES1   0.0000
    20 C20      5.7533   1.5603   5.6328   C.3       1 RES1   0.0000
    21 C21      5.0768   0.2106   5.7810   C.3       1 RES1   0.0000
    22 O22      4.1607   0.2105   6.8781   O.3       1 RES1   0.0000
    23 C23      3.1598   1.2083   6.7151   C.3       1 RES1   0.0000
    24 C24      3.7680   2.5938   6.5734   C.3       1 RES1   0.0000
    25 C25      3.9872   4.4898   4.0961   C.2       1 RES1   0.0000
    26 C26      3.7605   5.0661   2.8461   C.2       1 RES1   0.0000
    27 N27      3.5064   7.0933   1.0461   N.2       1 RES1   0.0000
    28 C28      3.5007   8.9942   3.0287   C.2       1 RES1   0.0000
    29 C29      3.4919   9.9559   4.0367   C.2       1 RES1   0.0000
@<TRIPOS>BOND
     1     1     2    1
     2     2     3    2
     3     2     4   am
     4     4     5    1
     5     5     6    2
     6     6     7    1
     7     7     8    2
     8     8     9    1
     9     9    10    2
    10    10    11    1
    11    11    12    2
    12    12    13    1
    13    13    14    1
    14    14    15    1
    15    15    16    2
    16    16    17    1
    17    17    18    2
    18    18    19    1
    19    19    20    1
    20    20    21    1
    21    21    22    1
    22    22    23    1
    23    23    24    1
    24    18    25    1
    25    25    26    2
    26    13    27    2
    27     8    28    1
    28    28    29    2
    29    29     5    1
    30    27     9    1
    31    26    15    1
    32    24    19    1
@<TRIPOS>SUBSTRUCTURE
     1 RES1        1 GROUP             0 ****  ****    0  
@<TRIPOS>MOLECULE
ligand_84
    29    32     1     0     0
SMALL
NO_CHARGES
****
Generated from the CSD

@<TRIPOS>ATOM
     1 C1      -7.2217   4.4172   3.6419   C.3       1 RES1   0.0000
     2 C2      -6.8807   2.9363   3.8080   C.2       1 RES1   0.0000
     3 O3      -7.2516   2.3241   4.8090   O.2       1 RES1   0.0000
     4 N4      -6.1743   2.4194   2.7966   N.am      1 RES1   0.0000
     5 C5      -5.7290   1.1582   2.6972   C.2       1 RES1   0.0000
     6 C6      -5.3544   0.3936   3.8071   C.2       1 RES1   0.0000
     7 C7      -4.9011  -0.9148   3.6423   C.2       1 RES1   0.0000
     8 C8      -4.8130  -1.4715   2.3640   C.2       1 RES1   0.0000
     9 C9      -4.3686  -2.7818   2.1733   C.2       1 RES1   0.0000
    10 C10     -4.0207  -3.5959   3.2481   C.2       1 RES1   0.0000
    11 C11     -3.5947  -4.8933   2.9841   C.2       1 RES1   0.0000
    12 N12     -3.5274  -5.3301   1.7348   N.2       1 RES1   0.0000
    13 C13     -3.8689  -4.5406   0.6983   C.2       1 RES1   0.0000
    14 N14     -3.7799  -5.0414  -0.5432   N.2       1 RES1   0.0000
    15 C15     -4.0080  -4.3916  -1.6980   C.2       1 RES1   0.0000
    16 C16     -4.0842  -5.1481  -2.8664   C.2       1 RES1   0.0000
    17 C17     -4.3188  -4.5400  -4.0973   C.2       1 RES1   0.0000
    18 C18     -4.4854  -3.1561  -4.1816   C.2       1 RES1   0.0000
    19 N19     -4.7308  -2.5492  -5.4364   N.pl3     1 RES1   0.0000
    20 C20     -5.4832  -1.2950  -5.5467   C.3       1 RES1   0.0000
    21 C21     -4.5146  -0.1671  -5.8483   C.3       1 RES1   0.0000
    22 O22     -3.7757  -0.4276  -7.0437   O.3       1 RES1   0.0000
    23 C23     -3.0447  -1.6440  -6.9443   C.3       1 RES1   0.0000
    24 C24     -3.9576  -2.8240  -6.6552   C.3       1 RES1   0.0000
    25 C25     -4.4141  -2.3929  -3.0115   C.2       1 RES1   0.0000
    26 C26     -4.1802  -3.0061  -1.7805   C.2       1 RES1   0.0000
    27 N27     -4.2839  -3.2796   0.9266   N.2       1 RES1   0.0000
    28 C28     -5.1899  -0.7079   1.2575   C.2       1 RES1   0.0000
    29 C29     -5.6436   0.5990   1.4229   C.2       1 RES1   0.0000
@<TRIPOS>BOND
     1     1     2    1
     2     2     3    2
     3     2     4   am
     4     4     5    1
     5     5     6    2
     6     6     7    1
     7     7     8    2
     8     8     9    1
     9     9    10    2
    10    10    11    1
    11    11    12    2
    12    12    13    1
    13    13    14    1
    14    14    15    1
    15    15    16    2
    16    16    17    1
    17    17    18    2
    18    18    19    1
    19    19    20    1
    20    20    21    1
    21    21    22    1
    22    22    23    1
    23    23    24    1
    24    18    25    1
    25    25    26    2
    26    13    27    2
    27     8    28    1
    28    28    29    2
    29    29     5    1
    30    27     9    1
    31    26    15    1
    32    24    19    1
@<TRIPOS>SUBSTRUCTURE
     1 RES1        1 GROUP             0 ****  ****    0  
@<TRIPOS>MOLECULE
ligand_85
    29    32     1     0     0
SMALL
NO_CHARGES
****
Generated from the CSD

@<TRIPOS>ATOM
     1 C1      -6.6954  -6.1466  -0.9347   C.3       1 RES1   0.0000
     2 C2      -7.5607  -6.6674  -2.0823   C.2       1 RES1   0.0000
     3 O3      -8.7832  -6.5300  -2.0475   O.2       1 RES1   0.0000
     4 N4      -6.8710  -7.2540  -3.0668   N.am      1 RES1   0.0000
     5 C5      -7.3788  -7.7945  -4.1842   C.2       1 RES1   0.0000
     6 C6      -8.7486  -7.8113  -4.4671   C.2       1 RES1   0.0000
     7 C7      -9.2185  -8.3854  -5.6479   C.2       1 RES1   0.0000
     8 C8      -8.3229  -8.9537  -6.5571   C.2       1 RES1   0.0000
     9 C9      -8.7679  -9.5288  -7.7495   C.2       1 RES1   0.0000
    10 C10    -10.1180  -9.5447  -8.0903   C.2       1 RES1   0.0000
    11 C11    -10.4882 -10.1267  -9.2981   C.2       1 RES1   0.0000
    12 N12     -9.5670 -10.6486 -10.0950   N.2       1 RES1   0.0000
    13 C13     -8.2617 -10.6272  -9.7635   C.2       1 RES1   0.0000
    14 N14     -7.3773 -11.1713 -10.6131   N.2       1 RES1   0.0000
    15 C15     -6.0460 -11.2627 -10.4493   C.2       1 RES1   0.0000
    16 C16     -5.2389 -11.0963 -11.5738   C.2       1 RES1   0.0000
    17 C17     -3.8519 -11.1776 -11.4761   C.2       1 RES1   0.0000
    18 C18     -3.2434 -11.4253 -10.2438   C.2       1 RES1   0.0000
    19 N19     -1.8329 -11.4984 -10.1544   N.3       1 RES1   0.0000
    20 C20     -1.2253 -10.2545 -10.6177   C.3       1 RES1   0.0000
    21 C21      0.3454 -10.3353 -10.6118   C.3       1 RES1   0.0000
    22 O22      0.7344 -11.4440 -11.4217   O.3       1 RES1   0.0000
    23 C23      0.2217 -12.6321 -10.8825   C.3       1 RES1   0.0000
    24 C24     -1.3086 -12.6189 -10.9364   C.3       1 RES1   0.0000
    25 C25     -4.0486 -11.5887  -9.1117   C.2       1 RES1   0.0000
    26 C26     -5.4374 -11.5053  -9.2137   C.2       1 RES1   0.0000
    27 N27     -7.8766 -10.0703  -8.5989   N.2       1 RES1   0.0000
    28 C28     -6.9556  -8.9337  -6.2745   C.2       1 RES1   0.0000
    29 C29     -6.4868  -8.3591  -5.0950   C.2       1 RES1   0.0000
@<TRIPOS>BOND
     1     1     2    1
     2     2     3    2
     3     2     4   am
     4     4     5    1
     5     5     6    2
     6     6     7    1
     7     7     8    2
     8     8     9    1
     9     9    10    2
    10    10    11    1
    11    11    12    2
    12    12    13    1
    13    13    14    1
    14    14    15    1
    15    15    16    2
    16    16    17    1
    17    17    18    2
    18    18    19    1
    19    19    20    1
    20    20    21    1
    21    21    22    1
    22    22    23    1
    23    23    24    1
    24    18    25    1
    25    25    26    2
    26    13    27    2
    27     8    28    1
    28    28    29    2
    29    29     5    1
    30    27     9    1
    31    26    15    1
    32    24    19    1
@<TRIPOS>SUBSTRUCTURE
     1 RES1        1 GROUP             0 ****  ****    0  
@<TRIPOS>MOLECULE
ligand_86
    29    32     1     0     0
SMALL
NO_CHARGES
****
Generated from the CSD

@<TRIPOS>ATOM
     1 C1      -5.8235  -6.4248  -1.1259   C.3       1 RES1   0.0000
     2 C2      -5.8946  -7.1107  -2.4903   C.2       1 RES1   0.0000
     3 O3      -4.8643  -7.4865  -3.0487   O.2       1 RES1   0.0000
     4 N4      -7.1348  -7.2438  -2.9732   N.am      1 RES1   0.0000
     5 C5      -7.4800  -7.8046  -4.1416   C.2       1 RES1   0.0000
     6 C6      -6.5455  -8.3398  -5.0344   C.2       1 RES1   0.0000
     7 C7      -6.9642  -8.9135  -6.2345   C.2       1 RES1   0.0000
     8 C8      -8.3229  -8.9537  -6.5571   C.2       1 RES1   0.0000
     9 C9      -8.7679  -9.5288  -7.7495   C.2       1 RES1   0.0000
    10 C10    -10.1180  -9.5447  -8.0903   C.2       1 RES1   0.0000
    11 C11    -10.4882 -10.1267  -9.2981   C.2       1 RES1   0.0000
    12 N12     -9.5670 -10.6486 -10.0950   N.2       1 RES1   0.0000
    13 C13     -8.2617 -10.6272  -9.7635   C.2       1 RES1   0.0000
    14 N14     -7.3773 -11.1713 -10.6131   N.2       1 RES1   0.0000
    15 C15     -6.0460 -11.2629 -10.4492   C.2       1 RES1   0.0000
    16 C16     -5.2389 -11.0964 -11.5736   C.2       1 RES1   0.0000
    17 C17     -3.8519 -11.1779 -11.4758   C.2       1 RES1   0.0000
    18 C18     -3.2435 -11.4258 -10.2436   C.2       1 RES1   0.0000
    19 N19     -1.8330 -11.4991 -10.1541   N.3       1 RES1   0.0000
    20 C20     -1.2252 -10.2551 -10.6171   C.3       1 RES1   0.0000
    21 C21      0.3455 -10.3361 -10.6110   C.3       1 RES1   0.0000
    22 O22      0.7344 -11.4446 -11.4212   O.3       1 RES1   0.0000
    23 C23      0.2215 -12.6328 -10.8822   C.3       1 RES1   0.0000
    24 C24     -1.3087 -12.6194 -10.9363   C.3       1 RES1   0.0000
    25 C25     -4.0487 -11.5892  -9.1115   C.2       1 RES1   0.0000
    26 C26     -5.4375 -11.5056  -9.2136   C.2       1 RES1   0.0000
    27 N27     -7.8766 -10.0703  -8.5989   N.2       1 RES1   0.0000
    28 C28     -9.2545  -8.4214  -5.6636   C.2       1 RES1   0.0000
    29 C29     -8.8356  -7.8493  -4.4643   C.2       1 RES1   0.0000
@<TRIPOS>BOND
     1     1     2    1
     2     2     3    2
     3     2     4   am
     4     4     5    1
     5     5     6    2
     6     6     7    1
     7     7     8    2
     8     8     9    1
     9     9    10    2
    10    10    11    1
    11    11    12    2
    12    12    13    1
    13    13    14    1
    14    14    15    1
    15    15    16    2
    16    16    17    1
    17    17    18    2
    18    18    19    1
    19    19    20    1
    20    20    21    1
    21    21    22    1
    22    22    23    1
    23    23    24    1
    24    18    25    1
    25    25    26    2
    26    13    27    2
    27     8    28    1
    28    28    29    2
    29    29     5    1
    30    27     9    1
    31    26    15    1
    32    24    19    1
@<TRIPOS>SUBSTRUCTURE
     1 RES1        1 GROUP             0 ****  ****    0  
@<TRIPOS>MOLECULE
ligand_87
    29    32     1     0     0
SMALL
NO_CHARGES
****
Generated from the CSD

@<TRIPOS>ATOM
     1 C1      18.1977   9.8746  10.6216   C.3       1 RES1   0.0000
     2 C2      16.8315   9.6508   9.9733   C.2       1 RES1   0.0000
     3 O3      16.6982   8.8098   9.0849   O.2       1 RES1   0.0000
     4 N4      15.8598  10.4316  10.4583   N.am      1 RES1   0.0000
     5 C5      14.5802  10.4547  10.0574   C.2       1 RES1   0.0000
     6 C6      14.1909  10.1969   8.7388   C.2       1 RES1   0.0000
     7 C7      12.8437  10.2323   8.3808   C.2       1 RES1   0.0000
     8 C8      11.8706  10.5309   9.3378   C.2       1 RES1   0.0000
     9 C9      10.5144  10.5659   9.0058   C.2       1 RES1   0.0000
    10 C10     10.0740  10.2880   7.7143   C.2       1 RES1   0.0000
    11 C11      8.7078  10.3329   7.4577   C.2       1 RES1   0.0000
    12 N12      7.8580  10.6338   8.4290   N.2       1 RES1   0.0000
    13 C13      8.2880  10.8977   9.6779   C.2       1 RES1   0.0000
    14 N14      7.3780  11.1950  10.6179   N.2       1 RES1   0.0000
    15 C15      6.0496  11.3175  10.4506   C.2       1 RES1   0.0000
    16 C16      5.2219  10.9132  11.4970   C.2       1 RES1   0.0000
    17 C17      3.8366  11.0128  11.3915   C.2       1 RES1   0.0000
    18 C18      3.2510  11.5245  10.2316   C.2       1 RES1   0.0000
    19 N19      1.8427  11.6284  10.1379   N.3       1 RES1   0.0000
    20 C20      1.2125  10.3514  10.4592   C.3       1 RES1   0.0000
    21 C21     -0.3567  10.4564  10.4479   C.3       1 RES1   0.0000
    22 O22     -0.7384  11.4775  11.3689   O.3       1 RES1   0.0000
    23 C23     -0.2031  12.7087  10.9652   C.3       1 RES1   0.0000
    24 C24      1.3262  12.6663  11.0312   C.3       1 RES1   0.0000
    25 C25      4.0773  11.9356   9.1805   C.2       1 RES1   0.0000
    26 C26      5.4644  11.8353   9.2907   C.2       1 RES1   0.0000
    27 N27      9.6062  10.8618   9.9528   N.2       1 RES1   0.0000
    28 C28     12.2606  10.7853  10.6541   C.2       1 RES1   0.0000
    29 C29     13.6068  10.7489  11.0113   C.2       1 RES1   0.0000
@<TRIPOS>BOND
     1     1     2    1
     2     2     3    2
     3     2     4   am
     4     4     5    1
     5     5     6    2
     6     6     7    1
     7     7     8    2
     8     8     9    1
     9     9    10    2
    10    10    11    1
    11    11    12    2
    12    12    13    1
    13    13    14    1
    14    14    15    1
    15    15    16    2
    16    16    17    1
    17    17    18    2
    18    18    19    1
    19    19    20    1
    20    20    21    1
    21    21    22    1
    22    22    23    1
    23    23    24    1
    24    18    25    1
    25    25    26    2
    26    13    27    2
    27     8    28    1
    28    28    29    2
    29    29     5    1
    30    27     9    1
    31    26    15    1
    32    24    19    1
@<TRIPOS>SUBSTRUCTURE
     1 RES1        1 GROUP             0 ****  ****    0  
@<TRIPOS>MOLECULE
ligand_88
    29    32     1     0     0
SMALL
NO_CHARGES
****
Generated from the CSD

@<TRIPOS>ATOM
     1 C1       7.3840   8.2299   0.0520   C.3       1 RES1   0.0000
     2 C2       7.9309   8.2801   1.4786   C.2       1 RES1   0.0000
     3 O3       8.8416   7.5257   1.8193   O.2       1 RES1   0.0000
     4 N4       7.3363   9.1863   2.2623   N.am      1 RES1   0.0000
     5 C5       7.6524   9.4712   3.5342   C.2       1 RES1   0.0000
     6 C6       6.6974   9.8115   4.4980   C.2       1 RES1   0.0000
     7 C7       7.0856  10.0949   5.8070   C.2       1 RES1   0.0000
     8 C8       8.4350  10.0458   6.1653   C.2       1 RES1   0.0000
     9 C9       8.8484  10.3189   7.4712   C.2       1 RES1   0.0000
    10 C10     10.1946  10.3008   7.8270   C.2       1 RES1   0.0000
    11 C11     10.5342  10.5913   9.1441   C.2       1 RES1   0.0000
    12 N12      9.5886  10.8771  10.0274   N.2       1 RES1   0.0000
    13 C13      8.2880  10.8977   9.6779   C.2       1 RES1   0.0000
    14 N14      7.3780  11.1950  10.6179   N.2       1 RES1   0.0000
    15 C15      6.0478  11.3013  10.4540   C.2       1 RES1   0.0000
    16 C16      5.2290  10.9277  11.5186   C.2       1 RES1   0.0000
    17 C17      3.8424  11.0129  11.4176   C.2       1 RES1   0.0000
    18 C18      3.2465  11.4789  10.2438   C.2       1 RES1   0.0000
    19 N19      1.8369  11.5687  10.1545   N.3       1 RES1   0.0000
    20 C20      1.2186  10.2989  10.5240   C.3       1 RES1   0.0000
    21 C21     -0.3515  10.3914  10.5180   C.3       1 RES1   0.0000
    22 O22     -0.7362  11.4412  11.4047   O.3       1 RES1   0.0000
    23 C23     -0.2128  12.6616  10.9550   C.3       1 RES1   0.0000
    24 C24      1.3171  12.6333  11.0137   C.3       1 RES1   0.0000
    25 C25      4.0639  11.8592   9.1742   C.2       1 RES1   0.0000
    26 C26      5.4522  11.7735   9.2799   C.2       1 RES1   0.0000
    27 N27      7.9321  10.6191   8.4089   N.2       1 RES1   0.0000
    28 C28      9.3867   9.7033   5.2028   C.2       1 RES1   0.0000
    29 C29      8.9981   9.4192   3.8953   C.2       1 RES1   0.0000
@<TRIPOS>BOND
     1     1     2    1
     2     2     3    2
     3     2     4   am
     4     4     5    1
     5     5     6    2
     6     6     7    1
     7     7     8    2
     8     8     9    1
     9     9    10    2
    10    10    11    1
    11    11    12    2
    12    12    13    1
    13    13    14    1
    14    14    15    1
    15    15    16    2
    16    16    17    1
    17    17    18    2
    18    18    19    1
    19    19    20    1
    20    20    21    1
    21    21    22    1
    22    22    23    1
    23    23    24    1
    24    18    25    1
    25    25    26    2
    26    13    27    2
    27     8    28    1
    28    28    29    2
    29    29     5    1
    30    27     9    1
    31    26    15    1
    32    24    19    1
@<TRIPOS>SUBSTRUCTURE
     1 RES1        1 GROUP             0 ****  ****    0  
@<TRIPOS>MOLECULE
ligand_89
    29    32     1     0     0
SMALL
NO_CHARGES
****
Generated from the CSD

@<TRIPOS>ATOM
     1 C1       3.8962   3.7458  17.5312   C.3       1 RES1   0.0000
     2 C2       4.3346   4.6233  16.3587   C.2       1 RES1   0.0000
     3 O3       3.6650   4.6573  15.3267   O.2       1 RES1   0.0000
     4 N4       5.4637   5.3063  16.5770   N.am      1 RES1   0.0000
     5 C5       6.0568   6.1590  15.7286   C.2       1 RES1   0.0000
     6 C6       5.3435   6.9510  14.8226   C.2       1 RES1   0.0000
     7 C7       6.0150   7.8225  13.9659   C.2       1 RES1   0.0000
     8 C8       7.4090   7.9078  14.0027   C.2       1 RES1   0.0000
     9 C9       8.1043   8.7777  13.1598   C.2       1 RES1   0.0000
    10 C10      9.4951   8.8455  13.1712   C.2       1 RES1   0.0000
    11 C11     10.1212   9.7287  12.2980   C.2       1 RES1   0.0000
    12 N12      9.3984  10.4803  11.4804   N.2       1 RES1   0.0000
    13 C13      8.0535  10.4085  11.4696   C.2       1 RES1   0.0000
    14 N14      7.3780  11.1950  10.6179   N.2       1 RES1   0.0000
    15 C15      6.0434  11.3193  10.5136   C.2       1 RES1   0.0000
    16 C16      5.2911  11.2653  11.6861   C.2       1 RES1   0.0000
    17 C17      3.9041  11.3877  11.6513   C.2       1 RES1   0.0000
    18 C18      3.2409  11.5704  10.4361   C.2       1 RES1   0.0000
    19 N19      1.8319  11.7012  10.4129   N.3       1 RES1   0.0000
    20 C20      1.2032  10.5963  11.1305   C.3       1 RES1   0.0000
    21 C21     -0.3599  10.7583  11.1967   C.3       1 RES1   0.0000
    22 O22     -0.6488  12.0147  11.8086   O.3       1 RES1   0.0000
    23 C23     -0.1219  13.0562  11.0321   C.3       1 RES1   0.0000
    24 C24      1.4067  12.9713  11.0028   C.3       1 RES1   0.0000
    25 C25      3.9915  11.6296   9.2572   C.2       1 RES1   0.0000
    26 C26      5.3806  11.5078   9.2966   C.2       1 RES1   0.0000
    27 N27      7.4222   9.5620  12.3060   N.2       1 RES1   0.0000
    28 C28      8.1194   7.1186  14.9094   C.2       1 RES1   0.0000
    29 C29      7.4477   6.2488  15.7658   C.2       1 RES1   0.0000
@<TRIPOS>BOND
     1     1     2    1
     2     2     3    2
     3     2     4   am
     4     4     5    1
     5     5     6    2
     6     6     7    1
     7     7     8    2
     8     8     9    1
     9     9    10    2
    10    10    11    1
    11    11    12    2
    12    12    13    1
    13    13    14    1
    14    14    15    1
    15    15    16    2
    16    16    17    1
    17    17    18    2
    18    18    19    1
    19    19    20    1
    20    20    21    1
    21    21    22    1
    22    22    23    1
    23    23    24    1
    24    18    25    1
    25    25    26    2
    26    13    27    2
    27     8    28    1
    28    28    29    2
    29    29     5    1
    30    27     9    1
    31    26    15    1
    32    24    19    1
@<TRIPOS>SUBSTRUCTURE
     1 RES1        1 GROUP             0 ****  ****    0  
@<TRIPOS>MOLECULE
ligand_90
    29    32     1     0     0
SMALL
NO_CHARGES
****
Generated from the CSD

@<TRIPOS>ATOM
     1 C1       1.8062   9.1649  -9.2989   C.3       1 RES1   0.0000
     2 C2       2.3592   8.1053  -8.3458   C.2       1 RES1   0.0000
     3 O3       2.4819   6.9394  -8.7202   O.2       1 RES1   0.0000
     4 N4       2.6733   8.5702  -7.1316   N.am      1 RES1   0.0000
     5 C5       3.1918   7.8636  -6.1164   C.2       1 RES1   0.0000
     6 C6       4.0571   6.7810  -6.3064   C.2       1 RES1   0.0000
     7 C7       4.5679   6.0851  -5.2113   C.2       1 RES1   0.0000
     8 C8       4.2145   6.4617  -3.9132   C.2       1 RES1   0.0000
     9 C9       4.7178   5.7849  -2.7999   C.2       1 RES1   0.0000
    10 C10      5.9764   5.1894  -2.8181   C.2       1 RES1   0.0000
    11 C11      6.4170   4.5396  -1.6699   C.2       1 RES1   0.0000
    12 N12      5.6467   4.4973  -0.5925   N.2       1 RES1   0.0000
    13 C13      4.4317   5.0785  -0.5778   C.2       1 RES1   0.0000
    14 N14      3.6997   5.0016   0.5440   N.2       1 RES1   0.0000
    15 C15      4.0170   4.3497   1.6763   C.2       1 RES1   0.0000
    16 C16      3.6030   4.9062   2.8855   C.2       1 RES1   0.0000
    17 C17      3.8968   4.2836   4.0963   C.2       1 RES1   0.0000
    18 C18      4.6117   3.0843   4.1192   C.2       1 RES1   0.0000
    19 N19      4.8983   2.4561   5.3546   N.pl3     1 RES1   0.0000
    20 C20      5.7953   1.2985   5.4355   C.3       1 RES1   0.0000
    21 C21      4.9646   0.0493   5.6610   C.3       1 RES1   0.0000
    22 O22      4.1700   0.1648   6.8434   O.3       1 RES1   0.0000
    23 C23      3.2985   1.2870   6.7724   C.3       1 RES1   0.0000
    24 C24      4.0673   2.5806   6.5599   C.3       1 RES1   0.0000
    25 C25      5.0257   2.5194   2.9083   C.2       1 RES1   0.0000
    26 C26      4.7283   3.1457   1.6977   C.2       1 RES1   0.0000
    27 N27      3.9809   5.7134  -1.6770   N.2       1 RES1   0.0000
    28 C28      3.3528   7.5441  -3.7252   C.2       1 RES1   0.0000
    29 C29      2.8436   8.2397  -4.8198   C.2       1 RES1   0.0000
@<TRIPOS>BOND
     1     1     2    1
     2     2     3    2
     3     2     4   am
     4     4     5    1
     5     5     6    2
     6     6     7    1
     7     7     8    2
     8     8     9    1
     9     9    10    2
    10    10    11    1
    11    11    12    2
    12    12    13    1
    13    13    14    1
    14    14    15    1
    15    15    16    2
    16    16    17    1
    17    17    18    2
    18    18    19    1
    19    19    20    1
    20    20    21    1
    21    21    22    1
    22    22    23    1
    23    23    24    1
    24    18    25    1
    25    25    26    2
    26    13    27    2
    27     8    28    1
    28    28    29    2
    29    29     5    1
    30    27     9    1
    31    26    15    1
    32    24    19    1
@<TRIPOS>SUBSTRUCTURE
     1 RES1        1 GROUP             0 ****  ****    0  
@<TRIPOS>MOLECULE
ligand_91
    29    32     1     0     0
SMALL
NO_CHARGES
****
Generated from the CSD

@<TRIPOS>ATOM
     1 C1       6.7916  -5.2022  -2.3071   C.3       1 RES1   0.0000
     2 C2       6.7517  -3.6872  -2.5074   C.2       1 RES1   0.0000
     3 O3       7.6583  -3.1191  -3.1156   O.2       1 RES1   0.0000
     4 N4       5.6792  -3.0916  -1.9745   N.am      1 RES1   0.0000
     5 C5       5.3879  -1.7833  -2.0209   C.2       1 RES1   0.0000
     6 C6       5.7387  -0.9631  -3.0984   C.2       1 RES1   0.0000
     7 C7       5.4062   0.3911  -3.0922   C.2       1 RES1   0.0000
     8 C8       4.7227   0.9412  -2.0050   C.2       1 RES1   0.0000
     9 C9       4.3724   2.2930  -1.9780   C.2       1 RES1   0.0000
    10 C10      4.0915   2.9954  -3.1471   C.2       1 RES1   0.0000
    11 C11      3.7408   4.3373  -3.0441   C.2       1 RES1   0.0000
    12 N12      3.6790   4.9193  -1.8552   N.2       1 RES1   0.0000
    13 C13      3.9474   4.2351  -0.7265   C.2       1 RES1   0.0000
    14 N14      3.8668   4.8805   0.4470   N.2       1 RES1   0.0000
    15 C15      4.1675   4.3927   1.6632   C.2       1 RES1   0.0000
    16 C16      5.2483   3.5180   1.7645   C.2       1 RES1   0.0000
    17 C17      5.6157   2.9757   2.9936   C.2       1 RES1   0.0000
    18 C18      4.9062   3.3028   4.1510   C.2       1 RES1   0.0000
    19 N19      5.2927   2.7520   5.3961   N.pl3     1 RES1   0.0000
    20 C20      6.4918   1.9174   5.5255   C.3       1 RES1   0.0000
    21 C21      6.0670   0.4693   5.6794   C.3       1 RES1   0.0000
    22 O22      5.2031   0.3022   6.8058   O.3       1 RES1   0.0000
    23 C23      4.0384   1.1105   6.6877   C.3       1 RES1   0.0000
    24 C24      4.3900   2.5818   6.5429   C.3       1 RES1   0.0000
    25 C25      3.8236   4.1834   4.0555   C.2       1 RES1   0.0000
    26 C26      3.4597   4.7254   2.8226   C.2       1 RES1   0.0000
    27 N27      4.2904   2.9344  -0.7986   N.2       1 RES1   0.0000
    28 C28      4.3709   0.1207  -0.9315   C.2       1 RES1   0.0000
    29 C29      4.7026  -1.2325  -0.9388   C.2       1 RES1   0.0000
@<TRIPOS>BOND
     1     1     2    1
     2     2     3    2
     3     2     4   am
     4     4     5    1
     5     5     6    2
     6     6     7    1
     7     7     8    2
     8     8     9    1
     9     9    10    2
    10    10    11    1
    11    11    12    2
    12    12    13    1
    13    13    14    1
    14    14    15    1
    15    15    16    2
    16    16    17    1
    17    17    18    2
    18    18    19    1
    19    19    20    1
    20    20    21    1
    21    21    22    1
    22    22    23    1
    23    23    24    1
    24    18    25    1
    25    25    26    2
    26    13    27    2
    27     8    28    1
    28    28    29    2
    29    29     5    1
    30    27     9    1
    31    26    15    1
    32    24    19    1
@<TRIPOS>SUBSTRUCTURE
     1 RES1        1 GROUP             0 ****  ****    0  
@<TRIPOS>MOLECULE
ligand_92
    29    32     1     0     0
SMALL
NO_CHARGES
****
Generated from the CSD

@<TRIPOS>ATOM
     1 C1       5.5557  -5.4472  -1.4861   C.3       1 RES1   0.0000
     2 C2       4.9220  -4.0568  -1.4414   C.2       1 RES1   0.0000
     3 O3       3.8068  -3.9004  -0.9449   O.2       1 RES1   0.0000
     4 N4       5.6792  -3.0916  -1.9745   N.am      1 RES1   0.0000
     5 C5       5.3879  -1.7833  -2.0209   C.2       1 RES1   0.0000
     6 C6       5.7387  -0.9631  -3.0984   C.2       1 RES1   0.0000
     7 C7       5.4062   0.3911  -3.0922   C.2       1 RES1   0.0000
     8 C8       4.7227   0.9412  -2.0050   C.2       1 RES1   0.0000
     9 C9       4.3724   2.2930  -1.9780   C.2       1 RES1   0.0000
    10 C10      4.0915   2.9954  -3.1471   C.2       1 RES1   0.0000
    11 C11      3.7408   4.3373  -3.0441   C.2       1 RES1   0.0000
    12 N12      3.6790   4.9193  -1.8552   N.2       1 RES1   0.0000
    13 C13      3.9474   4.2351  -0.7265   C.2       1 RES1   0.0000
    14 N14      3.8668   4.8805   0.4470   N.2       1 RES1   0.0000
    15 C15      4.1675   4.3926   1.6632   C.2       1 RES1   0.0000
    16 C16      5.2483   3.5179   1.7645   C.2       1 RES1   0.0000
    17 C17      5.6156   2.9756   2.9936   C.2       1 RES1   0.0000
    18 C18      4.9061   3.3028   4.1511   C.2       1 RES1   0.0000
    19 N19      5.2926   2.7520   5.3961   N.pl3     1 RES1   0.0000
    20 C20      6.4917   1.9173   5.5255   C.3       1 RES1   0.0000
    21 C21      6.0667   0.4692   5.6795   C.3       1 RES1   0.0000
    22 O22      5.2029   0.3021   6.8058   O.3       1 RES1   0.0000
    23 C23      4.0382   1.1105   6.6877   C.3       1 RES1   0.0000
    24 C24      4.3899   2.5818   6.5429   C.3       1 RES1   0.0000
    25 C25      3.8236   4.1835   4.0555   C.2       1 RES1   0.0000
    26 C26      3.4597   4.7254   2.8226   C.2       1 RES1   0.0000
    27 N27      4.2904   2.9344  -0.7986   N.2       1 RES1   0.0000
    28 C28      4.3709   0.1207  -0.9315   C.2       1 RES1   0.0000
    29 C29      4.7026  -1.2325  -0.9388   C.2       1 RES1   0.0000
@<TRIPOS>BOND
     1     1     2    1
     2     2     3    2
     3     2     4   am
     4     4     5    1
     5     5     6    2
     6     6     7    1
     7     7     8    2
     8     8     9    1
     9     9    10    2
    10    10    11    1
    11    11    12    2
    12    12    13    1
    13    13    14    1
    14    14    15    1
    15    15    16    2
    16    16    17    1
    17    17    18    2
    18    18    19    1
    19    19    20    1
    20    20    21    1
    21    21    22    1
    22    22    23    1
    23    23    24    1
    24    18    25    1
    25    25    26    2
    26    13    27    2
    27     8    28    1
    28    28    29    2
    29    29     5    1
    30    27     9    1
    31    26    15    1
    32    24    19    1
@<TRIPOS>SUBSTRUCTURE
     1 RES1        1 GROUP             0 ****  ****    0  
@<TRIPOS>MOLECULE
ligand_93
    29    32     1     0     0
SMALL
NO_CHARGES
****
Generated from the CSD

@<TRIPOS>ATOM
     1 C1      17.9907  10.2146  13.0076   C.3       1 RES1   0.0000
     2 C2      16.5437  10.3431  13.4837   C.2       1 RES1   0.0000
     3 O3      16.2886  10.3755  14.6872   O.2       1 RES1   0.0000
     4 N4      15.6451  10.4112  12.4953   N.am      1 RES1   0.0000
     5 C5      14.3159  10.5258  12.6322   C.2       1 RES1   0.0000
     6 C6      13.6817  10.5901  13.8774   C.2       1 RES1   0.0000
     7 C7      12.2949  10.7122  13.9577   C.2       1 RES1   0.0000
     8 C8      11.5263  10.7665  12.7924   C.2       1 RES1   0.0000
     9 C9      10.1366  10.8954  12.8462   C.2       1 RES1   0.0000
    10 C10      9.4613  10.9927  14.0601   C.2       1 RES1   0.0000
    11 C11      8.0772  11.1279  14.0378   C.2       1 RES1   0.0000
    12 N12      7.4308  11.1623  12.8815   N.2       1 RES1   0.0000
    13 C13      8.0884  11.0722  11.7095   C.2       1 RES1   0.0000
    14 N14      7.3772  11.1141  10.5725   N.2       1 RES1   0.0000
    15 C15      6.0438  11.2392  10.4542   C.2       1 RES1   0.0000
    16 C16      5.2472  10.2041  10.9415   C.2       1 RES1   0.0000
    17 C17      3.8587  10.2684  10.8522   C.2       1 RES1   0.0000
    18 C18      3.2382  11.3773  10.2732   C.2       1 RES1   0.0000
    19 N19      1.8264  11.4359  10.1944   N.3       1 RES1   0.0000
    20 C20      1.2299  10.2528  10.8072   C.3       1 RES1   0.0000
    21 C21     -0.3411  10.3282  10.8125   C.3       1 RES1   0.0000
    22 O22     -0.7243  11.5225  11.4931   O.3       1 RES1   0.0000
    23 C23     -0.2234  12.6412  10.8127   C.3       1 RES1   0.0000
    24 C24      1.3075  12.6383  10.8477   C.3       1 RES1   0.0000
    25 C25      4.0329  12.4207   9.7867   C.2       1 RES1   0.0000
    26 C26      5.4232  12.3529   9.8791   C.2       1 RES1   0.0000
    27 N27      9.4289  10.9397  11.7032   N.2       1 RES1   0.0000
    28 C28     12.1610  10.7048  11.5503   C.2       1 RES1   0.0000
    29 C29     13.5468  10.5839  11.4707   C.2       1 RES1   0.0000
@<TRIPOS>BOND
     1     1     2    1
     2     2     3    2
     3     2     4   am
     4     4     5    1
     5     5     6    2
     6     6     7    1
     7     7     8    2
     8     8     9    1
     9     9    10    2
    10    10    11    1
    11    11    12    2
    12    12    13    1
    13    13    14    1
    14    14    15    1
    15    15    16    2
    16    16    17    1
    17    17    18    2
    18    18    19    1
    19    19    20    1
    20    20    21    1
    21    21    22    1
    22    22    23    1
    23    23    24    1
    24    18    25    1
    25    25    26    2
    26    13    27    2
    27     8    28    1
    28    28    29    2
    29    29     5    1
    30    27     9    1
    31    26    15    1
    32    24    19    1
@<TRIPOS>SUBSTRUCTURE
     1 RES1        1 GROUP             0 ****  ****    0  
@<TRIPOS>MOLECULE
ligand_94
    29    32     1     0     0
SMALL
NO_CHARGES
****
Generated from the CSD

@<TRIPOS>ATOM
     1 C1      17.9466  10.1282  12.0776   C.3       1 RES1   0.0000
     2 C2      16.4689  10.2752  11.7149   C.2       1 RES1   0.0000
     3 O3      16.1217  10.3106  10.5347   O.2       1 RES1   0.0000
     4 N4      15.6506  10.3558  12.7699   N.am      1 RES1   0.0000
     5 C5      14.3165  10.4891  12.7362   C.2       1 RES1   0.0000
     6 C6      13.5889  10.5638  11.5438   C.2       1 RES1   0.0000
     7 C7      12.2013  10.6993  11.5710   C.2       1 RES1   0.0000
     8 C8      11.5263  10.7665  12.7924   C.2       1 RES1   0.0000
     9 C9      10.1366  10.8954  12.8462   C.2       1 RES1   0.0000
    10 C10      9.4613  10.9927  14.0601   C.2       1 RES1   0.0000
    11 C11      8.0772  11.1279  14.0378   C.2       1 RES1   0.0000
    12 N12      7.4308  11.1623  12.8815   N.2       1 RES1   0.0000
    13 C13      8.0884  11.0722  11.7095   C.2       1 RES1   0.0000
    14 N14      7.3772  11.1141  10.5725   N.2       1 RES1   0.0000
    15 C15      6.0438  11.2392  10.4542   C.2       1 RES1   0.0000
    16 C16      5.2472  10.2041  10.9415   C.2       1 RES1   0.0000
    17 C17      3.8587  10.2684  10.8522   C.2       1 RES1   0.0000
    18 C18      3.2382  11.3773  10.2732   C.2       1 RES1   0.0000
    19 N19      1.8264  11.4359  10.1944   N.3       1 RES1   0.0000
    20 C20      1.2298  10.2531  10.8077   C.3       1 RES1   0.0000
    21 C21     -0.3411  10.3286  10.8131   C.3       1 RES1   0.0000
    22 O22     -0.7243  11.5232  11.4931   O.3       1 RES1   0.0000
    23 C23     -0.2233  12.6416  10.8121   C.3       1 RES1   0.0000
    24 C24      1.3075  12.6387  10.8471   C.3       1 RES1   0.0000
    25 C25      4.0329  12.4207   9.7867   C.2       1 RES1   0.0000
    26 C26      5.4232  12.3529   9.8791   C.2       1 RES1   0.0000
    27 N27      9.4289  10.9397  11.7032   N.2       1 RES1   0.0000
    28 C28     12.2537  10.6891  13.9816   C.2       1 RES1   0.0000
    29 C29     13.6401  10.5527  13.9537   C.2       1 RES1   0.0000
@<TRIPOS>BOND
     1     1     2    1
     2     2     3    2
     3     2     4   am
     4     4     5    1
     5     5     6    2
     6     6     7    1
     7     7     8    2
     8     8     9    1
     9     9    10    2
    10    10    11    1
    11    11    12    2
    12    12    13    1
    13    13    14    1
    14    14    15    1
    15    15    16    2
    16    16    17    1
    17    17    18    2
    18    18    19    1
    19    19    20    1
    20    20    21    1
    21    21    22    1
    22    22    23    1
    23    23    24    1
    24    18    25    1
    25    25    26    2
    26    13    27    2
    27     8    28    1
    28    28    29    2
    29    29     5    1
    30    27     9    1
    31    26    15    1
    32    24    19    1
@<TRIPOS>SUBSTRUCTURE
     1 RES1        1 GROUP             0 ****  ****    0  
@<TRIPOS>MOLECULE
ligand_95
    29    32     1     0     0
SMALL
NO_CHARGES
****
Generated from the CSD

@<TRIPOS>ATOM
     1 C1       0.8615  -5.0650  -1.6313   C.3       1 RES1   0.0000
     2 C2       1.0489  -3.6163  -1.1807   C.2       1 RES1   0.0000
     3 O3       0.7862  -3.2890  -0.0239   O.2       1 RES1   0.0000
     4 N4       1.5040  -2.7991  -2.1368   N.am      1 RES1   0.0000
     5 C5       1.7731  -1.4917  -2.0071   C.2       1 RES1   0.0000
     6 C6       2.2412  -0.9253  -0.8167   C.2       1 RES1   0.0000
     7 C7       2.5069   0.4415  -0.7421   C.2       1 RES1   0.0000
     8 C8       2.3024   1.2584  -1.8568   C.2       1 RES1   0.0000
     9 C9       2.5673   2.6289  -1.8094   C.2       1 RES1   0.0000
    10 C10      2.3370   3.4530  -2.9080   C.2       1 RES1   0.0000
    11 C11      2.6156   4.8102  -2.7863   C.2       1 RES1   0.0000
    12 N12      3.0877   5.2927  -1.6460   N.2       1 RES1   0.0000
    13 C13      3.3049   4.4928  -0.5844   C.2       1 RES1   0.0000
    14 N14      3.7834   5.0417   0.5425   N.2       1 RES1   0.0000
    15 C15      4.1133   4.4033   1.6789   C.2       1 RES1   0.0000
    16 C16      4.3929   5.1785   2.8032   C.2       1 RES1   0.0000
    17 C17      4.7407   4.5828   4.0133   C.2       1 RES1   0.0000
    18 C18      4.8125   3.1925   4.1218   C.2       1 RES1   0.0000
    19 N19      5.1595   2.5973   5.3581   N.pl3     1 RES1   0.0000
    20 C20      6.2070   1.5748   5.4489   C.3       1 RES1   0.0000
    21 C21      5.5539   0.2201   5.6474   C.3       1 RES1   0.0000
    22 O22      4.7280   0.2117   6.8139   O.3       1 RES1   0.0000
    23 C23      3.7105   1.2027   6.7333   C.3       1 RES1   0.0000
    24 C24      4.2958   2.5926   6.5468   C.3       1 RES1   0.0000
    25 C25      4.5287   2.4099   2.9977   C.2       1 RES1   0.0000
    26 C26      4.1795   3.0105   1.7879   C.2       1 RES1   0.0000
    27 N27      3.0443   3.1744  -0.6762   N.2       1 RES1   0.0000
    28 C28      1.8376   0.6911  -3.0450   C.2       1 RES1   0.0000
    29 C29      1.5734  -0.6748  -3.1192   C.2       1 RES1   0.0000
@<TRIPOS>BOND
     1     1     2    1
     2     2     3    2
     3     2     4   am
     4     4     5    1
     5     5     6    2
     6     6     7    1
     7     7     8    2
     8     8     9    1
     9     9    10    2
    10    10    11    1
    11    11    12    2
    12    12    13    1
    13    13    14    1
    14    14    15    1
    15    15    16    2
    16    16    17    1
    17    17    18    2
    18    18    19    1
    19    19    20    1
    20    20    21    1
    21    21    22    1
    22    22    23    1
    23    23    24    1
    24    18    25    1
    25    25    26    2
    26    13    27    2
    27     8    28    1
    28    28    29    2
    29    29     5    1
    30    27     9    1
    31    26    15    1
    32    24    19    1
@<TRIPOS>SUBSTRUCTURE
     1 RES1        1 GROUP             0 ****  ****    0  
@<TRIPOS>MOLECULE
ligand_96
    29    32     1     0     0
SMALL
NO_CHARGES
****
Generated from the CSD

@<TRIPOS>ATOM
     1 C1     -14.4287  -6.5250   0.2635   C.3       1 RES1   0.0000
     2 C2     -13.0023  -6.8458   0.7100   C.2       1 RES1   0.0000
     3 O3     -12.7755  -7.8511   1.3826   O.2       1 RES1   0.0000
     4 N4     -12.0883  -5.9565   0.3065   N.am      1 RES1   0.0000
     5 C5     -10.7743  -5.9862   0.5734   C.2       1 RES1   0.0000
     6 C6     -10.2506  -6.5054   1.7621   C.2       1 RES1   0.0000
     7 C7      -8.8738  -6.5124   1.9832   C.2       1 RES1   0.0000
     8 C8      -8.0053  -5.9952   1.0187   C.2       1 RES1   0.0000
     9 C9      -6.6223  -5.9969   1.2135   C.2       1 RES1   0.0000
    10 C10     -6.0499  -6.5369   2.3624   C.2       1 RES1   0.0000
    11 C11     -4.6647  -6.5122   2.4852   C.2       1 RES1   0.0000
    12 N12     -3.9209  -5.9848   1.5235   N.2       1 RES1   0.0000
    13 C13     -4.4785  -5.4675   0.4119   C.2       1 RES1   0.0000
    14 N14     -3.6715  -4.9487  -0.5261   N.2       1 RES1   0.0000
    15 C15     -4.0406  -4.3301  -1.6613   C.2       1 RES1   0.0000
    16 C16     -3.0533  -4.0673  -2.6098   C.2       1 RES1   0.0000
    17 C17     -3.3655  -3.4302  -3.8084   C.2       1 RES1   0.0000
    18 C18     -4.6794  -3.0449  -4.0827   C.2       1 RES1   0.0000
    19 N19     -4.9871  -2.4049  -5.3069   N.pl3     1 RES1   0.0000
    20 C20     -5.7602  -1.1592  -5.3471   C.3       1 RES1   0.0000
    21 C21     -4.8206  -0.0088  -5.6558   C.3       1 RES1   0.0000
    22 O22     -4.1308  -0.2231  -6.8891   O.3       1 RES1   0.0000
    23 C23     -3.3800  -1.4310  -6.8577   C.3       1 RES1   0.0000
    24 C24     -4.2637  -2.6323  -6.5654   C.3       1 RES1   0.0000
    25 C25     -5.6746  -3.3102  -3.1361   C.2       1 RES1   0.0000
    26 C26     -5.3578  -3.9497  -1.9374   C.2       1 RES1   0.0000
    27 N27     -5.8178  -5.4781   0.2686   N.2       1 RES1   0.0000
    28 C28     -8.5294  -5.4799  -0.1684   C.2       1 RES1   0.0000
    29 C29     -9.9051  -5.4742  -0.3890   C.2       1 RES1   0.0000
@<TRIPOS>BOND
     1     1     2    1
     2     2     3    2
     3     2     4   am
     4     4     5    1
     5     5     6    2
     6     6     7    1
     7     7     8    2
     8     8     9    1
     9     9    10    2
    10    10    11    1
    11    11    12    2
    12    12    13    1
    13    13    14    1
    14    14    15    1
    15    15    16    2
    16    16    17    1
    17    17    18    2
    18    18    19    1
    19    19    20    1
    20    20    21    1
    21    21    22    1
    22    22    23    1
    23    23    24    1
    24    18    25    1
    25    25    26    2
    26    13    27    2
    27     8    28    1
    28    28    29    2
    29    29     5    1
    30    27     9    1
    31    26    15    1
    32    24    19    1
@<TRIPOS>SUBSTRUCTURE
     1 RES1        1 GROUP             0 ****  ****    0  
@<TRIPOS>MOLECULE
ligand_97
    29    32     1     0     0
SMALL
NO_CHARGES
****
Generated from the CSD

@<TRIPOS>ATOM
     1 C1      -5.6560 -13.8025  -6.0497   C.3       1 RES1   0.0000
     2 C2      -5.6298 -12.4909  -5.2649   C.2       1 RES1   0.0000
     3 O3      -6.3436 -11.5493  -5.6090   O.2       1 RES1   0.0000
     4 N4      -4.7892 -12.4909  -4.2245   N.am      1 RES1   0.0000
     5 C5      -4.5581 -11.4704  -3.3856   C.2       1 RES1   0.0000
     6 C6      -4.6166 -10.1304  -3.7829   C.2       1 RES1   0.0000
     7 C7      -4.3695  -9.1105  -2.8646   C.2       1 RES1   0.0000
     8 C8      -4.0560  -9.4203  -1.5389   C.2       1 RES1   0.0000
     9 C9      -3.8109  -8.4169  -0.5987   C.2       1 RES1   0.0000
    10 C10     -3.4687  -8.7201   0.7167   C.2       1 RES1   0.0000
    11 C11     -3.2300  -7.6698   1.5966   C.2       1 RES1   0.0000
    12 N12     -3.3291  -6.4162   1.1786   N.2       1 RES1   0.0000
    13 C13     -3.6562  -6.1274  -0.0957   C.2       1 RES1   0.0000
    14 N14     -3.7397  -4.8383  -0.4579   N.2       1 RES1   0.0000
    15 C15     -4.1030  -4.3553  -1.6589   C.2       1 RES1   0.0000
    16 C16     -3.9233  -2.9930  -1.8940   C.2       1 RES1   0.0000
    17 C17     -4.2773  -2.4261  -3.1160   C.2       1 RES1   0.0000
    18 C18     -4.8178  -3.2170  -4.1320   C.2       1 RES1   0.0000
    19 N19     -5.1669  -2.6321  -5.3726   N.pl3     1 RES1   0.0000
    20 C20     -5.9925  -1.4220  -5.4436   C.3       1 RES1   0.0000
    21 C21     -5.1064  -0.2443  -5.8030   C.3       1 RES1   0.0000
    22 O22     -4.4230  -0.4709  -7.0377   O.3       1 RES1   0.0000
    23 C23     -3.6214  -1.6446  -6.9764   C.3       1 RES1   0.0000
    24 C24     -4.4498  -2.8714  -6.6325   C.3       1 RES1   0.0000
    25 C25     -4.9960  -4.5853  -3.9027   C.2       1 RES1   0.0000
    26 C26     -4.6390  -5.1494  -2.6778   C.2       1 RES1   0.0000
    27 N27     -3.8933  -7.1262  -0.9680   N.2       1 RES1   0.0000
    28 C28     -4.0006 -10.7582  -1.1433   C.2       1 RES1   0.0000
    29 C29     -4.2486 -11.7767  -2.0611   C.2       1 RES1   0.0000
@<TRIPOS>BOND
     1     1     2    1
     2     2     3    2
     3     2     4   am
     4     4     5    1
     5     5     6    2
     6     6     7    1
     7     7     8    2
     8     8     9    1
     9     9    10    2
    10    10    11    1
    11    11    12    2
    12    12    13    1
    13    13    14    1
    14    14    15    1
    15    15    16    2
    16    16    17    1
    17    17    18    2
    18    18    19    1
    19    19    20    1
    20    20    21    1
    21    21    22    1
    22    22    23    1
    23    23    24    1
    24    18    25    1
    25    25    26    2
    26    13    27    2
    27     8    28    1
    28    28    29    2
    29    29     5    1
    30    27     9    1
    31    26    15    1
    32    24    19    1
@<TRIPOS>SUBSTRUCTURE
     1 RES1        1 GROUP             0 ****  ****    0  
@<TRIPOS>MOLECULE
ligand_98
    29    32     1     0     0
SMALL
NO_CHARGES
****
Generated from the CSD

@<TRIPOS>ATOM
     1 C1      17.9090  11.2309  12.6090   C.3       1 RES1   0.0000
     2 C2      16.4815  11.2856  12.0649   C.2       1 RES1   0.0000
     3 O3      16.1702  12.1316  11.2271   O.2       1 RES1   0.0000
     4 N4      15.6631  10.3604  12.5783   N.am      1 RES1   0.0000
     5 C5      14.3630  10.1983  12.2920   C.2       1 RES1   0.0000
     6 C6      13.5177  11.2630  11.9621   C.2       1 RES1   0.0000
     7 C7      12.1736  11.0330  11.6706   C.2       1 RES1   0.0000
     8 C8      11.6587   9.7349  11.7107   C.2       1 RES1   0.0000
     9 C9      10.3178   9.4777  11.4163   C.2       1 RES1   0.0000
    10 C10      9.7924   8.1898  11.4825   C.2       1 RES1   0.0000
    11 C11      8.4459   8.0090  11.1844   C.2       1 RES1   0.0000
    12 N12      7.6939   9.0470  10.8480   N.2       1 RES1   0.0000
    13 C13      8.2052  10.2916  10.7894   C.2       1 RES1   0.0000
    14 N14      7.3922  11.3012  10.4431   N.2       1 RES1   0.0000
    15 C15      6.0508  11.3283  10.5298   C.2       1 RES1   0.0000
    16 C16      5.3771  12.3594   9.8768   C.2       1 RES1   0.0000
    17 C17      3.9879  12.4480   9.9245   C.2       1 RES1   0.0000
    18 C18      3.2429  11.4992  10.6279   C.2       1 RES1   0.0000
    19 N19      1.8313  11.5942  10.6636   N.3       1 RES1   0.0000
    20 C20      1.2687  10.5457  11.5093   C.3       1 RES1   0.0000
    21 C21     -0.2933  10.6765  11.6387   C.3       1 RES1   0.0000
    22 O22     -0.5877  11.9768  12.1476   O.3       1 RES1   0.0000
    23 C23     -0.1278  12.9543  11.2541   C.3       1 RES1   0.0000
    24 C24      1.3995  12.9030  11.1561   C.3       1 RES1   0.0000
    25 C25      3.9138  10.4601  11.2813   C.2       1 RES1   0.0000
    26 C26      5.3053  10.3744  11.2300   C.2       1 RES1   0.0000
    27 N27      9.5066  10.4940  11.0724   N.2       1 RES1   0.0000
    28 C28     12.5043   8.6730  12.0375   C.2       1 RES1   0.0000
    29 C29     13.8474   8.9034  12.3276   C.2       1 RES1   0.0000
@<TRIPOS>BOND
     1     1     2    1
     2     2     3    2
     3     2     4   am
     4     4     5    1
     5     5     6    2
     6     6     7    1
     7     7     8    2
     8     8     9    1
     9     9    10    2
    10    10    11    1
    11    11    12    2
    12    12    13    1
    13    13    14    1
    14    14    15    1
    15    15    16    2
    16    16    17    1
    17    17    18    2
    18    18    19    1
    19    19    20    1
    20    20    21    1
    21    21    22    1
    22    22    23    1
    23    23    24    1
    24    18    25    1
    25    25    26    2
    26    13    27    2
    27     8    28    1
    28    28    29    2
    29    29     5    1
    30    27     9    1
    31    26    15    1
    32    24    19    1
@<TRIPOS>SUBSTRUCTURE
     1 RES1        1 GROUP             0 ****  ****    0  
@<TRIPOS>MOLECULE
ligand_99
    29    32     1     0     0
SMALL
NO_CHARGES
****
Generated from the CSD

@<TRIPOS>ATOM
     1 C1      18.0028  11.5243  13.0297   C.3       1 RES1   0.0000
     2 C2      16.5610  11.9438  13.3163   C.2       1 RES1   0.0000
     3 O3      16.3295  12.8902  14.0681   O.2       1 RES1   0.0000
     4 N4      15.6396  11.2033  12.6904   N.am      1 RES1   0.0000
     5 C5      14.3087  11.3423  12.7806   C.2       1 RES1   0.0000
     6 C6      13.6666  11.7843  13.9421   C.2       1 RES1   0.0000
     7 C7      12.2784  11.9122  13.9760   C.2       1 RES1   0.0000
     8 C8      11.5164  11.5946  12.8490   C.2       1 RES1   0.0000
     9 C9      10.1254  11.7207  12.8556   C.2       1 RES1   0.0000
    10 C10      9.4422  12.1847  13.9767   C.2       1 RES1   0.0000
    11 C11      8.0572  12.2932  13.9089   C.2       1 RES1   0.0000
    12 N12      7.4175  11.9599  12.7973   N.2       1 RES1   0.0000
    13 C13      8.0827  11.5157  11.7137   C.2       1 RES1   0.0000
    14 N14      7.3780  11.1950  10.6179   N.2       1 RES1   0.0000
    15 C15      6.0403  11.2017  10.4833   C.2       1 RES1   0.0000
    16 C16      5.2774  10.7081  11.5405   C.2       1 RES1   0.0000
    17 C17      3.8866  10.6859  11.4686   C.2       1 RES1   0.0000
    18 C18      3.2299  11.1628  10.3322   C.2       1 RES1   0.0000
    19 N19      1.8160  11.1427  10.2726   N.3       1 RES1   0.0000
    20 C20      1.3093   9.8095  10.5840   C.3       1 RES1   0.0000
    21 C21     -0.2629   9.7748  10.6105   C.3       1 RES1   0.0000
    22 O22     -0.7108  10.7423  11.5591   O.3       1 RES1   0.0000
    23 C23     -0.2965  12.0228  11.1666   C.3       1 RES1   0.0000
    24 C24      1.2317  12.1154  11.1969   C.3       1 RES1   0.0000
    25 C25      3.9907  11.6632   9.2704   C.2       1 RES1   0.0000
    26 C26      5.3834  11.6847   9.3470   C.2       1 RES1   0.0000
    27 N27      9.4242  11.4005  11.7533   N.2       1 RES1   0.0000
    28 C28     12.1591  11.1561  11.6896   C.2       1 RES1   0.0000
    29 C29     13.5462  11.0294  11.6561   C.2       1 RES1   0.0000
@<TRIPOS>BOND
     1     1     2    1
     2     2     3    2
     3     2     4   am
     4     4     5    1
     5     5     6    2
     6     6     7    1
     7     7     8    2
     8     8     9    1
     9     9    10    2
    10    10    11    1
    11    11    12    2
    12    12    13    1
    13    13    14    1
    14    14    15    1
    15    15    16    2
    16    16    17    1
    17    17    18    2
    18    18    19    1
    19    19    20    1
    20    20    21    1
    21    21    22    1
    22    22    23    1
    23    23    24    1
    24    18    25    1
    25    25    26    2
    26    13    27    2
    27     8    28    1
    28    28    29    2
    29    29     5    1
    30    27     9    1
    31    26    15    1
    32    24    19    1
@<TRIPOS>SUBSTRUCTURE
     1 RES1        1 GROUP             0 ****  ****    0  
