@<TRIPOS>MOLECULE
native
    40    43     1     0     0
SMALL
NO_CHARGES
****
Generated from the CSD

@<TRIPOS>ATOM
     1 C1      22.2010  34.8180  16.4970   C.3       1 RES1   0.0000
     2 C2      22.3540  33.3630  16.9120   C.3       1 RES1   0.0000
     3 C3      21.6270  32.3790  15.9880   C.3       1 RES1   0.0000
     4 C4      22.2330  32.4320  14.5850   C.3       1 RES1   0.0000
     5 C5      20.1170  32.6720  16.0360   C.3       1 RES1   0.0000
     6 N6      19.3380  31.6740  15.2670   N.3       1 RES1   0.0000
     7 C7      19.0960  30.4320  16.0480   C.3       1 RES1   0.0000
     8 C8      19.9440  29.2990  15.4520   C.3       1 RES1   0.0000
     9 O9      19.8780  28.1760  16.3360   O.3       1 RES1   0.0000
    10 C10     19.5100  28.8850  14.0440   C.3       1 RES1   0.0000
    11 C11     18.1880  28.1130  13.9920   C.3       1 RES1   0.0000
    12 C12     17.7990  27.7770  12.5600   C.2       1 RES1   0.0000
    13 C13     17.7010  26.4470  12.1700   C.2       1 RES1   0.0000
    14 C14     17.3410  26.1240  10.8630   C.2       1 RES1   0.0000
    15 C15     17.0710  27.1300   9.9430   C.2       1 RES1   0.0000
    16 C16     17.1660  28.4610  10.3320   C.2       1 RES1   0.0000
    17 C17     17.5220  28.7780  11.6400   C.2       1 RES1   0.0000
    18 N18     20.5450  28.0630  13.4380   N.am      1 RES1   0.0000
    19 C19     21.3290  28.4180  12.4250   C.2       1 RES1   0.0000
    20 O20     21.3440  29.5100  11.8810   O.2       1 RES1   0.0000
    21 O21     22.2100  27.3810  11.9170   O.3       1 RES1   0.0000
    22 C22     22.8550  27.5520  10.6540   C.3       1 RES1   0.0000
    23 C23     22.4460  26.3660   9.7980   C.3       1 RES1   0.0000
    24 C24     20.9310  26.2580   9.6210   C.3       1 RES1   0.0000
    25 C25     20.4700  25.1100  10.5050   C.3       1 RES1   0.0000
    26 C26     21.7650  24.4410  10.8910   C.2       1 RES1   0.0000
    27 O27     21.8200  23.3930  11.4910   O.2       1 RES1   0.0000
    28 N28     22.8010  25.1420  10.4650   N.am      1 RES1   0.0000
    29 S29     18.0170  32.2920  14.5410   S.o2      1 RES1   0.0000
    30 O30     17.2470  31.1870  14.0580   O.2       1 RES1   0.0000
    31 O31     18.5130  33.1710  13.5080   O.2       1 RES1   0.0000
    32 C32     17.1270  33.1930  15.5900   C.2       1 RES1   0.0000
    33 C33     16.1470  32.5440  16.3440   C.2       1 RES1   0.0000
    34 C34     15.3930  33.2270  17.2970   C.2       1 RES1   0.0000
    35 C35     15.5810  34.5770  17.5140   C.2       1 RES1   0.0000
    36 N36     14.9560  35.4140  18.3750   N.2       1 RES1   0.0000
    37 C37     15.4140  36.6730  18.2880   C.2       1 RES1   0.0000
    38 S38     16.6740  36.9330  17.1210   S.3       1 RES1   0.0000
    39 C39     16.5410  35.2630  16.7670   C.2       1 RES1   0.0000
    40 C40     17.3050  34.5670  15.8150   C.2       1 RES1   0.0000
@<TRIPOS>BOND
     1     1     2    1
     2     2     3    1
     3     3     4    1
     4     3     5    1
     5     5     6    1
     6     6     7    1
     7     7     8    1
     8     8     9    1
     9     8    10    1
    10    10    11    1
    11    11    12    1
    12    12    13    2
    13    13    14    1
    14    14    15    2
    15    15    16    1
    16    16    17    2
    17    10    18    1
    18    18    19   am
    19    19    20    2
    20    19    21    1
    21    21    22    1
    22    23    22    1
    23    23    24    1
    24    24    25    1
    25    25    26    1
    26    26    27    2
    27    26    28   am
    28     6    29    1
    29    29    30    2
    30    29    31    2
    31    29    32    1
    32    32    33    2
    33    33    34    1
    34    34    35    2
    35    35    36    1
    36    36    37    2
    37    37    38    1
    38    38    39    1
    39    39    40    2
    40    17    12    1
    41    28    23    1
    42    40    32    1
    43    39    35    1
@<TRIPOS>SUBSTRUCTURE
     1 RES1        1 GROUP             0 ****  ****    0  
@<TRIPOS>MOLECULE
ligand_0
    40    43     1     0     0
SMALL
NO_CHARGES
****
Generated from the CSD

@<TRIPOS>ATOM
     1 C1      -0.4223  10.8706  14.7303   C.3       1 RES1   0.0000
     2 C2      -0.6355  10.2923  13.3401   C.3       1 RES1   0.0000
     3 C3      -1.2642   8.8940  13.3441   C.3       1 RES1   0.0000
     4 C4      -0.3558   7.9129  14.0862   C.3       1 RES1   0.0000
     5 C5      -1.5848   8.4867  11.8951   C.3       1 RES1   0.0000
     6 N6      -2.6046   9.3724  11.2873   N.3       1 RES1   0.0000
     7 C7      -2.2352   9.7849   9.9072   C.3       1 RES1   0.0000
     8 C8      -2.5165  11.2860   9.7469   C.3       1 RES1   0.0000
     9 O9      -1.6888  11.9991  10.6707   O.3       1 RES1   0.0000
    10 C10     -2.2842  11.8041   8.3257   C.3       1 RES1   0.0000
    11 C11     -2.5070  13.3103   8.1582   C.3       1 RES1   0.0000
    12 C12     -2.0832  13.7823   6.7753   C.2       1 RES1   0.0000
    13 C13     -0.7767  14.2062   6.5659   C.2       1 RES1   0.0000
    14 C14     -0.3728  14.6367   5.3035   C.2       1 RES1   0.0000
    15 C15     -1.2723  14.6384   4.2442   C.2       1 RES1   0.0000
    16 C16     -2.5790  14.2123   4.4512   C.2       1 RES1   0.0000
    17 C17     -2.9761  13.7794   5.7133   C.2       1 RES1   0.0000
    18 N18     -3.1644  11.1051   7.4033   N.am      1 RES1   0.0000
    19 C19     -2.7881  10.2186   6.4871   C.2       1 RES1   0.0000
    20 O20     -1.6441   9.8510   6.2752   O.2       1 RES1   0.0000
    21 O21     -3.8509   9.6843   5.6538   O.3       1 RES1   0.0000
    22 C22     -3.5407   8.7521   4.6169   C.3       1 RES1   0.0000
    23 C23     -4.8576   8.3990   3.9477   C.3       1 RES1   0.0000
    24 C24     -5.6277   9.6998   3.6518   C.3       1 RES1   0.0000
    25 C25     -6.6200   9.9283   4.8215   C.3       1 RES1   0.0000
    26 C26     -6.6630   8.6219   5.5608   C.2       1 RES1   0.0000
    27 O27     -7.3997   8.3402   6.4769   O.2       1 RES1   0.0000
    28 N28     -5.7632   7.7733   4.9697   N.am      1 RES1   0.0000
    29 S29     -4.1299   8.8239  11.4504   S.o2      1 RES1   0.0000
    30 O30     -5.0030   9.8819  11.0434   O.2       1 RES1   0.0000
    31 O31     -4.2621   8.4406  12.8365   O.2       1 RES1   0.0000
    32 C32     -4.3844   7.4868  10.5275   C.2       1 RES1   0.0000
    33 C33     -4.8581   7.6685   9.2265   C.2       1 RES1   0.0000
    34 C34     -5.0415   6.5895   8.3630   C.2       1 RES1   0.0000
    35 C35     -4.7751   5.2995   8.7752   C.2       1 RES1   0.0000
    36 N36     -4.8927   4.1307   8.1026   N.2       1 RES1   0.0000
    37 C37     -4.5427   3.0723   8.8508   C.2       1 RES1   0.0000
    38 S38     -4.0297   3.4362  10.4700   S.3       1 RES1   0.0000
    39 C39     -4.3153   5.0777  10.0750   C.2       1 RES1   0.0000
    40 C40     -4.1228   6.1702  10.9375   C.2       1 RES1   0.0000
@<TRIPOS>BOND
     1     1     2    1
     2     2     3    1
     3     3     4    1
     4     3     5    1
     5     5     6    1
     6     6     7    1
     7     7     8    1
     8     8     9    1
     9     8    10    1
    10    10    11    1
    11    11    12    1
    12    12    13    2
    13    13    14    1
    14    14    15    2
    15    15    16    1
    16    16    17    2
    17    10    18    1
    18    18    19   am
    19    19    20    2
    20    19    21    1
    21    21    22    1
    22    23    22    1
    23    23    24    1
    24    24    25    1
    25    25    26    1
    26    26    27    2
    27    26    28   am
    28     6    29    1
    29    29    30    2
    30    29    31    2
    31    29    32    1
    32    32    33    2
    33    33    34    1
    34    34    35    2
    35    35    36    1
    36    36    37    2
    37    37    38    1
    38    38    39    1
    39    39    40    2
    40    17    12    1
    41    28    23    1
    42    40    32    1
    43    39    35    1
@<TRIPOS>SUBSTRUCTURE
     1 RES1        1 GROUP             0 ****  ****    0  
@<TRIPOS>MOLECULE
ligand_1
    40    43     1     0     0
SMALL
NO_CHARGES
****
Generated from the CSD

@<TRIPOS>ATOM
     1 C1      -3.6496  12.1588  14.4083   C.3       1 RES1   0.0000
     2 C2      -2.8592  11.5447  13.2634   C.3       1 RES1   0.0000
     3 C3      -2.2985  10.1530  13.5785   C.3       1 RES1   0.0000
     4 C4      -1.3281  10.2335  14.7576   C.3       1 RES1   0.0000
     5 C5      -1.6881   9.5589  12.2968   C.3       1 RES1   0.0000
     6 N6      -2.7112   9.3481  11.2465   N.3       1 RES1   0.0000
     7 C7      -2.2352   9.7849   9.9072   C.3       1 RES1   0.0000
     8 C8      -2.5165  11.2860   9.7469   C.3       1 RES1   0.0000
     9 O9      -1.6888  11.9991  10.6707   O.3       1 RES1   0.0000
    10 C10     -2.2842  11.8041   8.3257   C.3       1 RES1   0.0000
    11 C11     -2.5070  13.3103   8.1582   C.3       1 RES1   0.0000
    12 C12     -2.0832  13.7823   6.7753   C.2       1 RES1   0.0000
    13 C13     -0.7767  14.2062   6.5659   C.2       1 RES1   0.0000
    14 C14     -0.3728  14.6367   5.3035   C.2       1 RES1   0.0000
    15 C15     -1.2723  14.6384   4.2442   C.2       1 RES1   0.0000
    16 C16     -2.5790  14.2123   4.4512   C.2       1 RES1   0.0000
    17 C17     -2.9761  13.7794   5.7133   C.2       1 RES1   0.0000
    18 N18     -3.1644  11.1051   7.4033   N.am      1 RES1   0.0000
    19 C19     -2.7881  10.2186   6.4871   C.2       1 RES1   0.0000
    20 O20     -1.6441   9.8510   6.2752   O.2       1 RES1   0.0000
    21 O21     -3.8509   9.6843   5.6538   O.3       1 RES1   0.0000
    22 C22     -3.5407   8.7521   4.6169   C.3       1 RES1   0.0000
    23 C23     -4.8576   8.3990   3.9477   C.3       1 RES1   0.0000
    24 C24     -5.6275   9.6998   3.6515   C.3       1 RES1   0.0000
    25 C25     -6.6199   9.9287   4.8211   C.3       1 RES1   0.0000
    26 C26     -6.6631   8.6224   5.5607   C.2       1 RES1   0.0000
    27 O27     -7.3998   8.3409   6.4768   O.2       1 RES1   0.0000
    28 N28     -5.7634   7.7736   4.9697   N.am      1 RES1   0.0000
    29 S29     -3.3894   7.8672  11.2803   S.o2      1 RES1   0.0000
    30 O30     -4.5119   7.8986  10.3936   O.2       1 RES1   0.0000
    31 O31     -3.7274   7.6227  12.6629   O.2       1 RES1   0.0000
    32 C32     -2.3200   6.7111  10.8070   C.2       1 RES1   0.0000
    33 C33     -2.2589   6.3907   9.4492   C.2       1 RES1   0.0000
    34 C34     -1.3372   5.4652   8.9621   C.2       1 RES1   0.0000
    35 C35     -0.4631   4.8208   9.8139   C.2       1 RES1   0.0000
    36 N36      0.4892   3.8968   9.5457   N.2       1 RES1   0.0000
    37 C37      1.1374   3.4946  10.6504   C.2       1 RES1   0.0000
    38 S38      0.6201   4.2349  12.1341   S.3       1 RES1   0.0000
    39 C39     -0.5062   5.1036  11.1808   C.2       1 RES1   0.0000
    40 C40     -1.4305   6.0449  11.6645   C.2       1 RES1   0.0000
@<TRIPOS>BOND
     1     1     2    1
     2     2     3    1
     3     3     4    1
     4     3     5    1
     5     5     6    1
     6     6     7    1
     7     7     8    1
     8     8     9    1
     9     8    10    1
    10    10    11    1
    11    11    12    1
    12    12    13    2
    13    13    14    1
    14    14    15    2
    15    15    16    1
    16    16    17    2
    17    10    18    1
    18    18    19   am
    19    19    20    2
    20    19    21    1
    21    21    22    1
    22    23    22    1
    23    23    24    1
    24    24    25    1
    25    25    26    1
    26    26    27    2
    27    26    28   am
    28     6    29    1
    29    29    30    2
    30    29    31    2
    31    29    32    1
    32    32    33    2
    33    33    34    1
    34    34    35    2
    35    35    36    1
    36    36    37    2
    37    37    38    1
    38    38    39    1
    39    39    40    2
    40    17    12    1
    41    28    23    1
    42    40    32    1
    43    39    35    1
@<TRIPOS>SUBSTRUCTURE
     1 RES1        1 GROUP             0 ****  ****    0  
@<TRIPOS>MOLECULE
ligand_2
    40    43     1     0     0
SMALL
NO_CHARGES
****
Generated from the CSD

@<TRIPOS>ATOM
     1 C1      -3.6477  12.1587  14.4090   C.3       1 RES1   0.0000
     2 C2      -2.8579  11.5444  13.2638   C.3       1 RES1   0.0000
     3 C3      -2.2979  10.1523  13.5786   C.3       1 RES1   0.0000
     4 C4      -1.3273  10.2320  14.7576   C.3       1 RES1   0.0000
     5 C5      -1.6880   9.5582  12.2967   C.3       1 RES1   0.0000
     6 N6      -2.7113   9.3481  11.2465   N.3       1 RES1   0.0000
     7 C7      -2.2352   9.7849   9.9072   C.3       1 RES1   0.0000
     8 C8      -2.5165  11.2860   9.7469   C.3       1 RES1   0.0000
     9 O9      -1.6888  11.9991  10.6707   O.3       1 RES1   0.0000
    10 C10     -2.2842  11.8041   8.3257   C.3       1 RES1   0.0000
    11 C11     -2.5070  13.3103   8.1582   C.3       1 RES1   0.0000
    12 C12     -2.0832  13.7823   6.7753   C.2       1 RES1   0.0000
    13 C13     -0.7767  14.2062   6.5659   C.2       1 RES1   0.0000
    14 C14     -0.3728  14.6367   5.3035   C.2       1 RES1   0.0000
    15 C15     -1.2723  14.6384   4.2442   C.2       1 RES1   0.0000
    16 C16     -2.5790  14.2123   4.4512   C.2       1 RES1   0.0000
    17 C17     -2.9761  13.7794   5.7133   C.2       1 RES1   0.0000
    18 N18     -3.1644  11.1051   7.4033   N.am      1 RES1   0.0000
    19 C19     -2.7881  10.2186   6.4871   C.2       1 RES1   0.0000
    20 O20     -1.6441   9.8510   6.2752   O.2       1 RES1   0.0000
    21 O21     -3.8509   9.6843   5.6538   O.3       1 RES1   0.0000
    22 C22     -3.5407   8.7521   4.6169   C.3       1 RES1   0.0000
    23 C23     -4.8576   8.3990   3.9477   C.3       1 RES1   0.0000
    24 C24     -5.6276   9.6998   3.6516   C.3       1 RES1   0.0000
    25 C25     -6.6200   9.9286   4.8212   C.3       1 RES1   0.0000
    26 C26     -6.6631   8.6223   5.5607   C.2       1 RES1   0.0000
    27 O27     -7.3998   8.3407   6.4768   O.2       1 RES1   0.0000
    28 N28     -5.7633   7.7735   4.9697   N.am      1 RES1   0.0000
    29 S29     -3.3902   7.8676  11.2800   S.o2      1 RES1   0.0000
    30 O30     -4.5128   7.8996  10.3934   O.2       1 RES1   0.0000
    31 O31     -3.7282   7.6229  12.6626   O.2       1 RES1   0.0000
    32 C32     -2.3215   6.7109  10.8064   C.2       1 RES1   0.0000
    33 C33     -1.5299   6.1086  11.7866   C.2       1 RES1   0.0000
    34 C34     -0.6441   5.0789  11.4732   C.2       1 RES1   0.0000
    35 C35     -0.5088   4.6320  10.1745   C.2       1 RES1   0.0000
    36 N36      0.2890   3.6629   9.6677   N.2       1 RES1   0.0000
    37 C37      0.1432   3.5221   8.3405   C.2       1 RES1   0.0000
    38 S38     -1.0089   4.5878   7.5961   S.3       1 RES1   0.0000
    39 C39     -1.2722   5.2218   9.1647   C.2       1 RES1   0.0000
    40 C40     -2.1708   6.2524   9.4884   C.2       1 RES1   0.0000
@<TRIPOS>BOND
     1     1     2    1
     2     2     3    1
     3     3     4    1
     4     3     5    1
     5     5     6    1
     6     6     7    1
     7     7     8    1
     8     8     9    1
     9     8    10    1
    10    10    11    1
    11    11    12    1
    12    12    13    2
    13    13    14    1
    14    14    15    2
    15    15    16    1
    16    16    17    2
    17    10    18    1
    18    18    19   am
    19    19    20    2
    20    19    21    1
    21    21    22    1
    22    23    22    1
    23    23    24    1
    24    24    25    1
    25    25    26    1
    26    26    27    2
    27    26    28   am
    28     6    29    1
    29    29    30    2
    30    29    31    2
    31    29    32    1
    32    32    33    2
    33    33    34    1
    34    34    35    2
    35    35    36    1
    36    36    37    2
    37    37    38    1
    38    38    39    1
    39    39    40    2
    40    17    12    1
    41    28    23    1
    42    40    32    1
    43    39    35    1
@<TRIPOS>SUBSTRUCTURE
     1 RES1        1 GROUP             0 ****  ****    0  
@<TRIPOS>MOLECULE
ligand_3
    40    43     1     0     0
SMALL
NO_CHARGES
****
Generated from the CSD

@<TRIPOS>ATOM
     1 C1       3.6723  16.7286   3.6914   C.3       1 RES1   0.0000
     2 C2       2.6144  15.7362   4.1484   C.3       1 RES1   0.0000
     3 C3       1.2724  16.3865   4.5041   C.3       1 RES1   0.0000
     4 C4       1.4598  17.3832   5.6486   C.3       1 RES1   0.0000
     5 C5       0.2423  15.2799   4.7916   C.3       1 RES1   0.0000
     6 N6      -0.0282  14.4545   3.5917   N.3       1 RES1   0.0000
     7 C7      -0.0481  13.0013   3.9062   C.3       1 RES1   0.0000
     8 C8       0.7423  12.2497   2.8253   C.3       1 RES1   0.0000
     9 O9       2.0930  12.7210   2.8475   O.3       1 RES1   0.0000
    10 C10      0.7141  10.7287   2.9925   C.3       1 RES1   0.0000
    11 C11      1.5569   9.9649   1.9666   C.3       1 RES1   0.0000
    12 C12      1.6294   8.4828   2.3029   C.2       1 RES1   0.0000
    13 C13      2.6516   8.0140   3.1190   C.2       1 RES1   0.0000
    14 C14      2.7280   6.6599   3.4396   C.2       1 RES1   0.0000
    15 C15      1.7784   5.7707   2.9508   C.2       1 RES1   0.0000
    16 C16      0.7537   6.2383   2.1364   C.2       1 RES1   0.0000
    17 C17      0.6797   7.5926   1.8226   C.2       1 RES1   0.0000
    18 N18     -0.6576  10.2549   2.9029   N.am      1 RES1   0.0000
    19 C19     -1.3797   9.7637   3.9050   C.2       1 RES1   0.0000
    20 O20     -1.0139   9.6548   5.0638   O.2       1 RES1   0.0000
    21 O21     -2.7056   9.2875   3.5515   O.3       1 RES1   0.0000
    22 C22     -3.5435   8.7088   4.5532   C.3       1 RES1   0.0000
    23 C23     -4.8306   8.3037   3.8561   C.3       1 RES1   0.0000
    24 C24     -5.6299   9.5750   3.5133   C.3       1 RES1   0.0000
    25 C25     -6.6604   9.7966   4.6509   C.3       1 RES1   0.0000
    26 C26     -6.6855   8.5041   5.4150   C.2       1 RES1   0.0000
    27 O27     -7.4386   8.2183   6.3165   O.2       1 RES1   0.0000
    28 N28     -5.7454   7.6713   4.8657   N.am      1 RES1   0.0000
    29 S29     -1.2918  14.9788   2.7071   S.o2      1 RES1   0.0000
    30 O30     -1.2970  14.2228   1.4923   O.2       1 RES1   0.0000
    31 O31     -1.0826  16.3964   2.5272   O.2       1 RES1   0.0000
    32 C32     -2.7101  14.7733   3.5136   C.2       1 RES1   0.0000
    33 C33     -3.4013  13.5739   3.3296   C.2       1 RES1   0.0000
    34 C34     -4.5788  13.3004   4.0238   C.2       1 RES1   0.0000
    35 C35     -5.1100  14.2188   4.9065   C.2       1 RES1   0.0000
    36 N36     -6.2308  14.1496   5.6625   N.2       1 RES1   0.0000
    37 C37     -6.4218  15.2572   6.3968   C.2       1 RES1   0.0000
    38 S38     -5.2158  16.4940   6.2150   S.3       1 RES1   0.0000
    39 C39     -4.4550  15.4362   5.1040   C.2       1 RES1   0.0000
    40 C40     -3.2630  15.7020   4.4090   C.2       1 RES1   0.0000
@<TRIPOS>BOND
     1     1     2    1
     2     2     3    1
     3     3     4    1
     4     3     5    1
     5     5     6    1
     6     6     7    1
     7     7     8    1
     8     8     9    1
     9     8    10    1
    10    10    11    1
    11    11    12    1
    12    12    13    2
    13    13    14    1
    14    14    15    2
    15    15    16    1
    16    16    17    2
    17    10    18    1
    18    18    19   am
    19    19    20    2
    20    19    21    1
    21    21    22    1
    22    23    22    1
    23    23    24    1
    24    24    25    1
    25    25    26    1
    26    26    27    2
    27    26    28   am
    28     6    29    1
    29    29    30    2
    30    29    31    2
    31    29    32    1
    32    32    33    2
    33    33    34    1
    34    34    35    2
    35    35    36    1
    36    36    37    2
    37    37    38    1
    38    38    39    1
    39    39    40    2
    40    17    12    1
    41    28    23    1
    42    40    32    1
    43    39    35    1
@<TRIPOS>SUBSTRUCTURE
     1 RES1        1 GROUP             0 ****  ****    0  
@<TRIPOS>MOLECULE
ligand_4
    40    43     1     0     0
SMALL
NO_CHARGES
****
Generated from the CSD

@<TRIPOS>ATOM
     1 C1       2.3607  16.1903   0.4533   C.3       1 RES1   0.0000
     2 C2       2.0113  15.3493   1.6712   C.3       1 RES1   0.0000
     3 C3       1.5286  16.1730   2.8708   C.3       1 RES1   0.0000
     4 C4       2.6311  17.1290   3.3280   C.3       1 RES1   0.0000
     5 C5       1.0290  15.2141   3.9659   C.3       1 RES1   0.0000
     6 N6      -0.1479  14.4335   3.5188   N.3       1 RES1   0.0000
     7 C7      -0.0481  13.0013   3.9062   C.3       1 RES1   0.0000
     8 C8       0.7423  12.2497   2.8253   C.3       1 RES1   0.0000
     9 O9       2.0930  12.7210   2.8475   O.3       1 RES1   0.0000
    10 C10      0.7141  10.7287   2.9925   C.3       1 RES1   0.0000
    11 C11      1.5421   9.9639   1.9553   C.3       1 RES1   0.0000
    12 C12      1.6169   8.4817   2.2903   C.2       1 RES1   0.0000
    13 C13      2.6491   8.0111   3.0927   C.2       1 RES1   0.0000
    14 C14      2.7278   6.6569   3.4119   C.2       1 RES1   0.0000
    15 C15      1.7705   5.7692   2.9355   C.2       1 RES1   0.0000
    16 C16      0.7357   6.2385   2.1349   C.2       1 RES1   0.0000
    17 C17      0.6596   7.5930   1.8224   C.2       1 RES1   0.0000
    18 N18     -0.6594  10.2569   2.9210   N.am      1 RES1   0.0000
    19 C19     -1.3700   9.7698   3.9333   C.2       1 RES1   0.0000
    20 O20     -0.9821   9.6415   5.0829   O.2       1 RES1   0.0000
    21 O21     -2.7124   9.3240   3.6033   O.3       1 RES1   0.0000
    22 C22     -3.5407   8.7521   4.6169   C.3       1 RES1   0.0000
    23 C23     -4.8576   8.3990   3.9477   C.3       1 RES1   0.0000
    24 C24     -5.6301   9.6994   3.6568   C.3       1 RES1   0.0000
    25 C25     -6.6218   9.9225   4.8281   C.3       1 RES1   0.0000
    26 C26     -6.6620   8.6136   5.5631   C.2       1 RES1   0.0000
    27 O27     -7.3973   8.3275   6.4790   O.2       1 RES1   0.0000
    28 N28     -5.7613   7.7684   4.9684   N.am      1 RES1   0.0000
    29 S29     -1.5738  15.1382   3.8712   S.o2      1 RES1   0.0000
    30 O30     -2.5867  14.4119   3.1684   O.2       1 RES1   0.0000
    31 O31     -1.4392  16.5181   3.4668   O.2       1 RES1   0.0000
    32 C32     -1.8692  15.1097   5.4886   C.2       1 RES1   0.0000
    33 C33     -2.5547  14.0109   6.0109   C.2       1 RES1   0.0000
    34 C34     -2.7901  13.8850   7.3791   C.2       1 RES1   0.0000
    35 C35     -2.3655  14.8562   8.2629   C.2       1 RES1   0.0000
    36 N36     -2.4993  14.9252   9.6083   N.2       1 RES1   0.0000
    37 C37     -1.9568  16.0416  10.1198   C.2       1 RES1   0.0000
    38 S38     -1.2237  17.1146   8.9672   S.3       1 RES1   0.0000
    39 C39     -1.6909  15.9776   7.7753   C.2       1 RES1   0.0000
    40 C40     -1.4476  16.0939   6.3963   C.2       1 RES1   0.0000
@<TRIPOS>BOND
     1     1     2    1
     2     2     3    1
     3     3     4    1
     4     3     5    1
     5     5     6    1
     6     6     7    1
     7     7     8    1
     8     8     9    1
     9     8    10    1
    10    10    11    1
    11    11    12    1
    12    12    13    2
    13    13    14    1
    14    14    15    2
    15    15    16    1
    16    16    17    2
    17    10    18    1
    18    18    19   am
    19    19    20    2
    20    19    21    1
    21    21    22    1
    22    23    22    1
    23    23    24    1
    24    24    25    1
    25    25    26    1
    26    26    27    2
    27    26    28   am
    28     6    29    1
    29    29    30    2
    30    29    31    2
    31    29    32    1
    32    32    33    2
    33    33    34    1
    34    34    35    2
    35    35    36    1
    36    36    37    2
    37    37    38    1
    38    38    39    1
    39    39    40    2
    40    17    12    1
    41    28    23    1
    42    40    32    1
    43    39    35    1
@<TRIPOS>SUBSTRUCTURE
     1 RES1        1 GROUP             0 ****  ****    0  
@<TRIPOS>MOLECULE
ligand_5
    40    43     1     0     0
SMALL
NO_CHARGES
****
Generated from the CSD

@<TRIPOS>ATOM
     1 C1       2.3608  16.1903   0.4533   C.3       1 RES1   0.0000
     2 C2       2.0114  15.3493   1.6712   C.3       1 RES1   0.0000
     3 C3       1.5286  16.1730   2.8708   C.3       1 RES1   0.0000
     4 C4       2.6311  17.1290   3.3280   C.3       1 RES1   0.0000
     5 C5       1.0290  15.2141   3.9659   C.3       1 RES1   0.0000
     6 N6      -0.1479  14.4335   3.5188   N.3       1 RES1   0.0000
     7 C7      -0.0481  13.0013   3.9062   C.3       1 RES1   0.0000
     8 C8       0.7423  12.2497   2.8253   C.3       1 RES1   0.0000
     9 O9       2.0930  12.7210   2.8475   O.3       1 RES1   0.0000
    10 C10      0.7141  10.7287   2.9925   C.3       1 RES1   0.0000
    11 C11      1.5421   9.9639   1.9553   C.3       1 RES1   0.0000
    12 C12      1.6169   8.4817   2.2903   C.2       1 RES1   0.0000
    13 C13      2.6491   8.0111   3.0927   C.2       1 RES1   0.0000
    14 C14      2.7278   6.6569   3.4119   C.2       1 RES1   0.0000
    15 C15      1.7705   5.7692   2.9355   C.2       1 RES1   0.0000
    16 C16      0.7357   6.2385   2.1349   C.2       1 RES1   0.0000
    17 C17      0.6596   7.5930   1.8224   C.2       1 RES1   0.0000
    18 N18     -0.6594  10.2569   2.9210   N.am      1 RES1   0.0000
    19 C19     -1.3700   9.7698   3.9333   C.2       1 RES1   0.0000
    20 O20     -0.9821   9.6415   5.0829   O.2       1 RES1   0.0000
    21 O21     -2.7124   9.3240   3.6033   O.3       1 RES1   0.0000
    22 C22     -3.5407   8.7521   4.6169   C.3       1 RES1   0.0000
    23 C23     -4.8576   8.3990   3.9477   C.3       1 RES1   0.0000
    24 C24     -5.6301   9.6994   3.6568   C.3       1 RES1   0.0000
    25 C25     -6.6218   9.9225   4.8281   C.3       1 RES1   0.0000
    26 C26     -6.6620   8.6136   5.5631   C.2       1 RES1   0.0000
    27 O27     -7.3973   8.3275   6.4790   O.2       1 RES1   0.0000
    28 N28     -5.7613   7.7684   4.9684   N.am      1 RES1   0.0000
    29 S29     -1.5739  15.1381   3.8711   S.o2      1 RES1   0.0000
    30 O30     -2.5867  14.4119   3.1683   O.2       1 RES1   0.0000
    31 O31     -1.4393  16.5180   3.4667   O.2       1 RES1   0.0000
    32 C32     -1.8692  15.1097   5.4886   C.2       1 RES1   0.0000
    33 C33     -1.4193  16.1859   6.2564   C.2       1 RES1   0.0000
    34 C34     -1.6832  16.2637   7.6230   C.2       1 RES1   0.0000
    35 C35     -2.3866  15.2655   8.2662   C.2       1 RES1   0.0000
    36 N36     -2.7364  15.1500   9.5689   N.2       1 RES1   0.0000
    37 C37     -3.4176  14.0201   9.8175   C.2       1 RES1   0.0000
    38 S38     -3.6896  12.9916   8.4444   S.3       1 RES1   0.0000
    39 C39     -2.8384  14.1656   7.5339   C.2       1 RES1   0.0000
    40 C40     -2.5781  14.0978   6.1547   C.2       1 RES1   0.0000
@<TRIPOS>BOND
     1     1     2    1
     2     2     3    1
     3     3     4    1
     4     3     5    1
     5     5     6    1
     6     6     7    1
     7     7     8    1
     8     8     9    1
     9     8    10    1
    10    10    11    1
    11    11    12    1
    12    12    13    2
    13    13    14    1
    14    14    15    2
    15    15    16    1
    16    16    17    2
    17    10    18    1
    18    18    19   am
    19    19    20    2
    20    19    21    1
    21    21    22    1
    22    23    22    1
    23    23    24    1
    24    24    25    1
    25    25    26    1
    26    26    27    2
    27    26    28   am
    28     6    29    1
    29    29    30    2
    30    29    31    2
    31    29    32    1
    32    32    33    2
    33    33    34    1
    34    34    35    2
    35    35    36    1
    36    36    37    2
    37    37    38    1
    38    38    39    1
    39    39    40    2
    40    17    12    1
    41    28    23    1
    42    40    32    1
    43    39    35    1
@<TRIPOS>SUBSTRUCTURE
     1 RES1        1 GROUP             0 ****  ****    0  
@<TRIPOS>MOLECULE
ligand_6
    40    43     1     0     0
SMALL
NO_CHARGES
****
Generated from the CSD

@<TRIPOS>ATOM
     1 C1       0.8572  10.8554  14.0521   C.3       1 RES1   0.0000
     2 C2       0.2455  10.2642  12.7915   C.3       1 RES1   0.0000
     3 C3      -0.4623   8.9236  13.0204   C.3       1 RES1   0.0000
     4 C4       0.5305   7.8914  13.5565   C.3       1 RES1   0.0000
     5 C5      -1.1698   8.5043  11.7197   C.3       1 RES1   0.0000
     6 N6      -2.2539   9.4454  11.3548   N.3       1 RES1   0.0000
     7 C7      -2.2352   9.7849   9.9072   C.3       1 RES1   0.0000
     8 C8      -2.5165  11.2860   9.7469   C.3       1 RES1   0.0000
     9 O9      -1.6888  11.9991  10.6707   O.3       1 RES1   0.0000
    10 C10     -2.2842  11.8041   8.3257   C.3       1 RES1   0.0000
    11 C11     -2.5070  13.3103   8.1582   C.3       1 RES1   0.0000
    12 C12     -2.0832  13.7823   6.7753   C.2       1 RES1   0.0000
    13 C13     -0.7767  14.2062   6.5659   C.2       1 RES1   0.0000
    14 C14     -0.3728  14.6367   5.3035   C.2       1 RES1   0.0000
    15 C15     -1.2723  14.6384   4.2442   C.2       1 RES1   0.0000
    16 C16     -2.5790  14.2123   4.4512   C.2       1 RES1   0.0000
    17 C17     -2.9761  13.7794   5.7133   C.2       1 RES1   0.0000
    18 N18     -3.1644  11.1051   7.4033   N.am      1 RES1   0.0000
    19 C19     -2.7881  10.2186   6.4871   C.2       1 RES1   0.0000
    20 O20     -1.6441   9.8510   6.2752   O.2       1 RES1   0.0000
    21 O21     -3.8509   9.6843   5.6538   O.3       1 RES1   0.0000
    22 C22     -3.5407   8.7521   4.6169   C.3       1 RES1   0.0000
    23 C23     -4.8576   8.3990   3.9477   C.3       1 RES1   0.0000
    24 C24     -5.6275   9.6998   3.6515   C.3       1 RES1   0.0000
    25 C25     -6.6199   9.9287   4.8211   C.3       1 RES1   0.0000
    26 C26     -6.6631   8.6224   5.5607   C.2       1 RES1   0.0000
    27 O27     -7.3998   8.3409   6.4768   O.2       1 RES1   0.0000
    28 N28     -5.7633   7.7736   4.9697   N.am      1 RES1   0.0000
    29 S29     -3.7146   9.0198  11.9372   S.o2      1 RES1   0.0000
    30 O30     -4.5913  10.1307  11.7263   O.2       1 RES1   0.0000
    31 O31     -3.5001   8.6836  13.3252   O.2       1 RES1   0.0000
    32 C32     -4.2937   7.6827  11.1748   C.2       1 RES1   0.0000
    33 C33     -3.9799   6.4331  11.7134   C.2       1 RES1   0.0000
    34 C34     -4.4826   5.2566  11.1599   C.2       1 RES1   0.0000
    35 C35     -5.2967   5.2896  10.0458   C.2       1 RES1   0.0000
    36 N36     -5.8738   4.2745   9.3609   N.2       1 RES1   0.0000
    37 C37     -6.5967   4.7082   8.3161   C.2       1 RES1   0.0000
    38 S38     -6.6272   6.4300   8.0889   S.3       1 RES1   0.0000
    39 C39     -5.6188   6.5204   9.4698   C.2       1 RES1   0.0000
    40 C40     -5.1174   7.7035  10.0384   C.2       1 RES1   0.0000
@<TRIPOS>BOND
     1     1     2    1
     2     2     3    1
     3     3     4    1
     4     3     5    1
     5     5     6    1
     6     6     7    1
     7     7     8    1
     8     8     9    1
     9     8    10    1
    10    10    11    1
    11    11    12    1
    12    12    13    2
    13    13    14    1
    14    14    15    2
    15    15    16    1
    16    16    17    2
    17    10    18    1
    18    18    19   am
    19    19    20    2
    20    19    21    1
    21    21    22    1
    22    23    22    1
    23    23    24    1
    24    24    25    1
    25    25    26    1
    26    26    27    2
    27    26    28   am
    28     6    29    1
    29    29    30    2
    30    29    31    2
    31    29    32    1
    32    32    33    2
    33    33    34    1
    34    34    35    2
    35    35    36    1
    36    36    37    2
    37    37    38    1
    38    38    39    1
    39    39    40    2
    40    17    12    1
    41    28    23    1
    42    40    32    1
    43    39    35    1
@<TRIPOS>SUBSTRUCTURE
     1 RES1        1 GROUP             0 ****  ****    0  
@<TRIPOS>MOLECULE
ligand_7
    40    43     1     0     0
SMALL
NO_CHARGES
****
Generated from the CSD

@<TRIPOS>ATOM
     1 C1       4.1658  16.0574   4.7956   C.3       1 RES1   0.0000
     2 C2       2.9089  15.2133   4.9383   C.3       1 RES1   0.0000
     3 C3       1.6328  16.0380   5.1433   C.3       1 RES1   0.0000
     4 C4       1.7495  16.8766   6.4167   C.3       1 RES1   0.0000
     5 C5       0.4184  15.0930   5.1176   C.3       1 RES1   0.0000
     6 N6       0.2459  14.4545   3.7922   N.3       1 RES1   0.0000
     7 C7      -0.0481  13.0013   3.9062   C.3       1 RES1   0.0000
     8 C8       0.7423  12.2497   2.8253   C.3       1 RES1   0.0000
     9 O9       2.0930  12.7210   2.8475   O.3       1 RES1   0.0000
    10 C10      0.7141  10.7287   2.9925   C.3       1 RES1   0.0000
    11 C11      1.5421   9.9639   1.9553   C.3       1 RES1   0.0000
    12 C12      1.6169   8.4817   2.2903   C.2       1 RES1   0.0000
    13 C13      2.6491   8.0111   3.0927   C.2       1 RES1   0.0000
    14 C14      2.7278   6.6569   3.4119   C.2       1 RES1   0.0000
    15 C15      1.7705   5.7692   2.9355   C.2       1 RES1   0.0000
    16 C16      0.7357   6.2385   2.1349   C.2       1 RES1   0.0000
    17 C17      0.6596   7.5930   1.8224   C.2       1 RES1   0.0000
    18 N18     -0.6594  10.2569   2.9210   N.am      1 RES1   0.0000
    19 C19     -1.3700   9.7698   3.9333   C.2       1 RES1   0.0000
    20 O20     -0.9821   9.6415   5.0829   O.2       1 RES1   0.0000
    21 O21     -2.7124   9.3240   3.6033   O.3       1 RES1   0.0000
    22 C22     -3.5407   8.7521   4.6169   C.3       1 RES1   0.0000
    23 C23     -4.8576   8.3990   3.9477   C.3       1 RES1   0.0000
    24 C24     -5.6301   9.6994   3.6568   C.3       1 RES1   0.0000
    25 C25     -6.6218   9.9225   4.8281   C.3       1 RES1   0.0000
    26 C26     -6.6620   8.6136   5.5631   C.2       1 RES1   0.0000
    27 O27     -7.3973   8.3275   6.4790   O.2       1 RES1   0.0000
    28 N28     -5.7613   7.7684   4.9684   N.am      1 RES1   0.0000
    29 S29     -0.7458  15.2752   2.7936   S.o2      1 RES1   0.0000
    30 O30     -0.6147  14.6883   1.4953   O.2       1 RES1   0.0000
    31 O31     -0.3250  16.6546   2.8706   O.2       1 RES1   0.0000
    32 C32     -2.3071  15.1915   3.3031   C.2       1 RES1   0.0000
    33 C33     -2.7645  16.1775   4.1799   C.2       1 RES1   0.0000
    34 C34     -4.0904  16.2094   4.6089   C.2       1 RES1   0.0000
    35 C35     -4.9930  15.2523   4.1916   C.2       1 RES1   0.0000
    36 N36     -6.3041  15.1038   4.4941   N.2       1 RES1   0.0000
    37 C37     -6.8498  14.0341   3.8936   C.2       1 RES1   0.0000
    38 S38     -5.7758  13.1097   2.8891   S.3       1 RES1   0.0000
    39 C39     -4.5676  14.2411   3.3274   C.2       1 RES1   0.0000
    40 C40     -3.2324  14.2201   2.8903   C.2       1 RES1   0.0000
@<TRIPOS>BOND
     1     1     2    1
     2     2     3    1
     3     3     4    1
     4     3     5    1
     5     5     6    1
     6     6     7    1
     7     7     8    1
     8     8     9    1
     9     8    10    1
    10    10    11    1
    11    11    12    1
    12    12    13    2
    13    13    14    1
    14    14    15    2
    15    15    16    1
    16    16    17    2
    17    10    18    1
    18    18    19   am
    19    19    20    2
    20    19    21    1
    21    21    22    1
    22    23    22    1
    23    23    24    1
    24    24    25    1
    25    25    26    1
    26    26    27    2
    27    26    28   am
    28     6    29    1
    29    29    30    2
    30    29    31    2
    31    29    32    1
    32    32    33    2
    33    33    34    1
    34    34    35    2
    35    35    36    1
    36    36    37    2
    37    37    38    1
    38    38    39    1
    39    39    40    2
    40    17    12    1
    41    28    23    1
    42    40    32    1
    43    39    35    1
@<TRIPOS>SUBSTRUCTURE
     1 RES1        1 GROUP             0 ****  ****    0  
@<TRIPOS>MOLECULE
ligand_8
    40    43     1     0     0
SMALL
NO_CHARGES
****
Generated from the CSD

@<TRIPOS>ATOM
     1 C1       4.1035  16.2588   1.1851   C.3       1 RES1   0.0000
     2 C2       3.0680  15.6029   2.0851   C.3       1 RES1   0.0000
     3 C3       1.8312  16.4731   2.3375   C.3       1 RES1   0.0000
     4 C4       2.2392  17.7774   3.0238   C.3       1 RES1   0.0000
     5 C5       0.7907  15.6480   3.1152   C.3       1 RES1   0.0000
     6 N6       0.3024  14.4935   2.3260   N.3       1 RES1   0.0000
     7 C7       0.2472  13.2471   3.1351   C.3       1 RES1   0.0000
     8 C8       0.8238  12.0914   2.3046   C.3       1 RES1   0.0000
     9 O9       2.1935  12.3862   2.0151   O.3       1 RES1   0.0000
    10 C10      0.7141  10.7287   2.9925   C.3       1 RES1   0.0000
    11 C11      1.6336   9.6511   2.4097   C.3       1 RES1   0.0000
    12 C12      1.6066   8.3850   3.2529   C.2       1 RES1   0.0000
    13 C13      2.5111   8.2372   4.2973   C.2       1 RES1   0.0000
    14 C14      2.4951   7.0851   5.0812   C.2       1 RES1   0.0000
    15 C15      1.5699   6.0795   4.8280   C.2       1 RES1   0.0000
    16 C16      0.6626   6.2268   3.7853   C.2       1 RES1   0.0000
    17 C17      0.6803   7.3815   3.0079   C.2       1 RES1   0.0000
    18 N18     -0.6576  10.2529   2.9133   N.am      1 RES1   0.0000
    19 C19     -1.3723   9.7633   3.9214   C.2       1 RES1   0.0000
    20 O20     -0.9923   9.6410   5.0743   O.2       1 RES1   0.0000
    21 O21     -2.7088   9.3066   3.5824   O.3       1 RES1   0.0000
    22 C22     -3.5406   8.7313   4.5911   C.3       1 RES1   0.0000
    23 C23     -4.8479   8.3623   3.9119   C.3       1 RES1   0.0000
    24 C24     -5.6293   9.6539   3.6057   C.3       1 RES1   0.0000
    25 C25     -6.6339   9.8751   4.7663   C.3       1 RES1   0.0000
    26 C26     -6.6693   8.5704   5.5090   C.2       1 RES1   0.0000
    27 O27     -7.4107   8.2834   6.4196   O.2       1 RES1   0.0000
    28 N28     -5.7555   7.7298   4.9279   N.am      1 RES1   0.0000
    29 S29     -1.0452  14.8098   1.4670   S.o2      1 RES1   0.0000
    30 O30     -1.2512  13.7022   0.5850   O.2       1 RES1   0.0000
    31 O31     -0.7981  16.0666   0.7996   O.2       1 RES1   0.0000
    32 C32     -2.3475  15.0055   2.4518   C.2       1 RES1   0.0000
    33 C33     -2.6295  16.2912   2.9184   C.2       1 RES1   0.0000
    34 C34     -3.7495  16.5479   3.7077   C.2       1 RES1   0.0000
    35 C35     -4.6097  15.5307   4.0685   C.2       1 RES1   0.0000
    36 N36     -5.7325  15.5692   4.8239   N.2       1 RES1   0.0000
    37 C37     -6.2992  14.3597   4.9599   C.2       1 RES1   0.0000
    38 S38     -5.4837  13.0551   4.1539   S.3       1 RES1   0.0000
    39 C39     -4.3508  14.2291   3.6340   C.2       1 RES1   0.0000
    40 C40     -3.2259  13.9782   2.8302   C.2       1 RES1   0.0000
@<TRIPOS>BOND
     1     1     2    1
     2     2     3    1
     3     3     4    1
     4     3     5    1
     5     5     6    1
     6     6     7    1
     7     7     8    1
     8     8     9    1
     9     8    10    1
    10    10    11    1
    11    11    12    1
    12    12    13    2
    13    13    14    1
    14    14    15    2
    15    15    16    1
    16    16    17    2
    17    10    18    1
    18    18    19   am
    19    19    20    2
    20    19    21    1
    21    21    22    1
    22    23    22    1
    23    23    24    1
    24    24    25    1
    25    25    26    1
    26    26    27    2
    27    26    28   am
    28     6    29    1
    29    29    30    2
    30    29    31    2
    31    29    32    1
    32    32    33    2
    33    33    34    1
    34    34    35    2
    35    35    36    1
    36    36    37    2
    37    37    38    1
    38    38    39    1
    39    39    40    2
    40    17    12    1
    41    28    23    1
    42    40    32    1
    43    39    35    1
@<TRIPOS>SUBSTRUCTURE
     1 RES1        1 GROUP             0 ****  ****    0  
@<TRIPOS>MOLECULE
ligand_9
    40    43     1     0     0
SMALL
NO_CHARGES
****
Generated from the CSD

@<TRIPOS>ATOM
     1 C1      -5.2455  12.0423  14.3704   C.3       1 RES1   0.0000
     2 C2      -4.0112  12.2851  13.5158   C.3       1 RES1   0.0000
     3 C3      -2.6991  11.8855  14.2008   C.3       1 RES1   0.0000
     4 C4      -2.5069  12.7000  15.4808   C.3       1 RES1   0.0000
     5 C5      -1.5474  12.0172  13.1887   C.3       1 RES1   0.0000
     6 N6      -1.6999  11.0751  12.0558   N.3       1 RES1   0.0000
     7 C7      -1.4381  11.7292  10.7463   C.3       1 RES1   0.0000
     8 C8      -2.5165  11.2860   9.7469   C.3       1 RES1   0.0000
     9 O9      -3.7871  11.7319  10.2303   O.3       1 RES1   0.0000
    10 C10     -2.2842  11.8041   8.3257   C.3       1 RES1   0.0000
    11 C11     -2.5071  13.3103   8.1582   C.3       1 RES1   0.0000
    12 C12     -2.0832  13.7823   6.7753   C.2       1 RES1   0.0000
    13 C13     -0.7767  14.2062   6.5659   C.2       1 RES1   0.0000
    14 C14     -0.3728  14.6367   5.3035   C.2       1 RES1   0.0000
    15 C15     -1.2723  14.6384   4.2442   C.2       1 RES1   0.0000
    16 C16     -2.5790  14.2123   4.4512   C.2       1 RES1   0.0000
    17 C17     -2.9761  13.7793   5.7133   C.2       1 RES1   0.0000
    18 N18     -3.1643  11.1051   7.4033   N.am      1 RES1   0.0000
    19 C19     -2.7880  10.2186   6.4871   C.2       1 RES1   0.0000
    20 O20     -1.6441   9.8510   6.2752   O.2       1 RES1   0.0000
    21 O21     -3.8508   9.6843   5.6537   O.3       1 RES1   0.0000
    22 C22     -3.5406   8.7520   4.6169   C.3       1 RES1   0.0000
    23 C23     -4.8575   8.3989   3.9477   C.3       1 RES1   0.0000
    24 C24     -5.6274   9.6997   3.6515   C.3       1 RES1   0.0000
    25 C25     -6.6199   9.9285   4.8211   C.3       1 RES1   0.0000
    26 C26     -6.6630   8.6223   5.5606   C.2       1 RES1   0.0000
    27 O27     -7.3997   8.3408   6.4768   O.2       1 RES1   0.0000
    28 N28     -5.7632   7.7735   4.9697   N.am      1 RES1   0.0000
    29 S29     -0.9309   9.6559  12.2757   S.o2      1 RES1   0.0000
    30 O30     -1.3654   8.7764  11.2342   O.2       1 RES1   0.0000
    31 O31     -1.2817   9.2228  13.6080   O.2       1 RES1   0.0000
    32 C32      0.7014   9.8472  12.2175   C.2       1 RES1   0.0000
    33 C33      1.3341   9.7092  10.9803   C.2       1 RES1   0.0000
    34 C34      2.7055   9.9156  10.8389   C.2       1 RES1   0.0000
    35 C35      3.4875  10.2479  11.9266   C.2       1 RES1   0.0000
    36 N36      4.8190  10.4801  12.0010   N.2       1 RES1   0.0000
    37 C37      5.2187  10.7710  13.2492   C.2       1 RES1   0.0000
    38 S38      3.9666  10.7845  14.4529   S.3       1 RES1   0.0000
    39 C39      2.8921  10.3787  13.1830   C.2       1 RES1   0.0000
    40 C40      1.5076  10.1794  13.3175   C.2       1 RES1   0.0000
@<TRIPOS>BOND
     1     1     2    1
     2     2     3    1
     3     3     4    1
     4     3     5    1
     5     5     6    1
     6     6     7    1
     7     7     8    1
     8     8     9    1
     9     8    10    1
    10    10    11    1
    11    11    12    1
    12    12    13    2
    13    13    14    1
    14    14    15    2
    15    15    16    1
    16    16    17    2
    17    10    18    1
    18    18    19   am
    19    19    20    2
    20    19    21    1
    21    21    22    1
    22    23    22    1
    23    23    24    1
    24    24    25    1
    25    25    26    1
    26    26    27    2
    27    26    28   am
    28     6    29    1
    29    29    30    2
    30    29    31    2
    31    29    32    1
    32    32    33    2
    33    33    34    1
    34    34    35    2
    35    35    36    1
    36    36    37    2
    37    37    38    1
    38    38    39    1
    39    39    40    2
    40    17    12    1
    41    28    23    1
    42    40    32    1
    43    39    35    1
@<TRIPOS>SUBSTRUCTURE
     1 RES1        1 GROUP             0 ****  ****    0  
@<TRIPOS>MOLECULE
ligand_10
    40    43     1     0     0
SMALL
NO_CHARGES
****
Generated from the CSD

@<TRIPOS>ATOM
     1 C1      -5.2458  12.0411  14.3702   C.3       1 RES1   0.0000
     2 C2      -4.0116  12.2844  13.5157   C.3       1 RES1   0.0000
     3 C3      -2.6994  11.8852  14.2008   C.3       1 RES1   0.0000
     4 C4      -2.5074  12.6997  15.4807   C.3       1 RES1   0.0000
     5 C5      -1.5477  12.0173  13.1886   C.3       1 RES1   0.0000
     6 N6      -1.6999  11.0751  12.0558   N.3       1 RES1   0.0000
     7 C7      -1.4381  11.7292  10.7463   C.3       1 RES1   0.0000
     8 C8      -2.5165  11.2860   9.7469   C.3       1 RES1   0.0000
     9 O9      -3.7871  11.7319  10.2303   O.3       1 RES1   0.0000
    10 C10     -2.2842  11.8041   8.3257   C.3       1 RES1   0.0000
    11 C11     -2.5071  13.3103   8.1582   C.3       1 RES1   0.0000
    12 C12     -2.0833  13.7823   6.7753   C.2       1 RES1   0.0000
    13 C13     -0.7767  14.2062   6.5659   C.2       1 RES1   0.0000
    14 C14     -0.3728  14.6367   5.3035   C.2       1 RES1   0.0000
    15 C15     -1.2724  14.6384   4.2442   C.2       1 RES1   0.0000
    16 C16     -2.5791  14.2123   4.4511   C.2       1 RES1   0.0000
    17 C17     -2.9761  13.7793   5.7133   C.2       1 RES1   0.0000
    18 N18     -3.1643  11.1050   7.4033   N.am      1 RES1   0.0000
    19 C19     -2.7880  10.2185   6.4871   C.2       1 RES1   0.0000
    20 O20     -1.6440   9.8510   6.2752   O.2       1 RES1   0.0000
    21 O21     -3.8508   9.6842   5.6537   O.3       1 RES1   0.0000
    22 C22     -3.5406   8.7520   4.6169   C.3       1 RES1   0.0000
    23 C23     -4.8574   8.3989   3.9477   C.3       1 RES1   0.0000
    24 C24     -5.6273   9.6996   3.6515   C.3       1 RES1   0.0000
    25 C25     -6.6198   9.9285   4.8210   C.3       1 RES1   0.0000
    26 C26     -6.6629   8.6223   5.5606   C.2       1 RES1   0.0000
    27 O27     -7.3997   8.3408   6.4767   O.2       1 RES1   0.0000
    28 N28     -5.7632   7.7735   4.9697   N.am      1 RES1   0.0000
    29 S29     -0.9306   9.6561  12.2758   S.o2      1 RES1   0.0000
    30 O30     -1.3732   8.7729  11.2408   O.2       1 RES1   0.0000
    31 O31     -1.2723   9.2284  13.6123   O.2       1 RES1   0.0000
    32 C32      0.7014   9.8457  12.2053   C.2       1 RES1   0.0000
    33 C33      1.3810  10.1254  13.3928   C.2       1 RES1   0.0000
    34 C34      2.7699  10.2403  13.4250   C.2       1 RES1   0.0000
    35 C35      3.5191  10.0972  12.2747   C.2       1 RES1   0.0000
    36 N36      4.8583  10.1779  12.0943   N.2       1 RES1   0.0000
    37 C37      5.2145   9.9871  10.8140   C.2       1 RES1   0.0000
    38 S38      3.9081   9.6859   9.7097   S.3       1 RES1   0.0000
    39 C39      2.8726   9.8331  11.0653   C.2       1 RES1   0.0000
    40 C40      1.4732   9.7083  11.0410   C.2       1 RES1   0.0000
@<TRIPOS>BOND
     1     1     2    1
     2     2     3    1
     3     3     4    1
     4     3     5    1
     5     5     6    1
     6     6     7    1
     7     7     8    1
     8     8     9    1
     9     8    10    1
    10    10    11    1
    11    11    12    1
    12    12    13    2
    13    13    14    1
    14    14    15    2
    15    15    16    1
    16    16    17    2
    17    10    18    1
    18    18    19   am
    19    19    20    2
    20    19    21    1
    21    21    22    1
    22    23    22    1
    23    23    24    1
    24    24    25    1
    25    25    26    1
    26    26    27    2
    27    26    28   am
    28     6    29    1
    29    29    30    2
    30    29    31    2
    31    29    32    1
    32    32    33    2
    33    33    34    1
    34    34    35    2
    35    35    36    1
    36    36    37    2
    37    37    38    1
    38    38    39    1
    39    39    40    2
    40    17    12    1
    41    28    23    1
    42    40    32    1
    43    39    35    1
@<TRIPOS>SUBSTRUCTURE
     1 RES1        1 GROUP             0 ****  ****    0  
@<TRIPOS>MOLECULE
ligand_11
    40    43     1     0     0
SMALL
NO_CHARGES
****
Generated from the CSD

@<TRIPOS>ATOM
     1 C1      -5.2943   8.8617  12.9381   C.3       1 RES1   0.0000
     2 C2      -4.4179  10.0033  12.4471   C.3       1 RES1   0.0000
     3 C3      -3.5811  10.6573  13.5528   C.3       1 RES1   0.0000
     4 C4      -4.4986  11.2642  14.6150   C.3       1 RES1   0.0000
     5 C5      -2.6048  11.6601  12.9129   C.3       1 RES1   0.0000
     6 N6      -1.6318  10.9881  12.0208   N.3       1 RES1   0.0000
     7 C7      -1.4381  11.7292  10.7463   C.3       1 RES1   0.0000
     8 C8      -2.5165  11.2860   9.7469   C.3       1 RES1   0.0000
     9 O9      -3.7871  11.7319  10.2303   O.3       1 RES1   0.0000
    10 C10     -2.2842  11.8041   8.3257   C.3       1 RES1   0.0000
    11 C11     -2.5073  13.3102   8.1582   C.3       1 RES1   0.0000
    12 C12     -2.0834  13.7823   6.7753   C.2       1 RES1   0.0000
    13 C13     -0.7769  14.2064   6.5659   C.2       1 RES1   0.0000
    14 C14     -0.3730  14.6369   5.3035   C.2       1 RES1   0.0000
    15 C15     -1.2725  14.6385   4.2442   C.2       1 RES1   0.0000
    16 C16     -2.5792  14.2122   4.4511   C.2       1 RES1   0.0000
    17 C17     -2.9762  13.7792   5.7132   C.2       1 RES1   0.0000
    18 N18     -3.1642  11.1049   7.4032   N.am      1 RES1   0.0000
    19 C19     -2.7877  10.2184   6.4871   C.2       1 RES1   0.0000
    20 O20     -1.6437   9.8510   6.2753   O.2       1 RES1   0.0000
    21 O21     -3.8504   9.6840   5.6537   O.3       1 RES1   0.0000
    22 C22     -3.5400   8.7518   4.6169   C.3       1 RES1   0.0000
    23 C23     -4.8568   8.3985   3.9476   C.3       1 RES1   0.0000
    24 C24     -5.6269   9.6991   3.6514   C.3       1 RES1   0.0000
    25 C25     -6.6194   9.9279   4.8209   C.3       1 RES1   0.0000
    26 C26     -6.6624   8.6216   5.5605   C.2       1 RES1   0.0000
    27 O27     -7.3992   8.3400   6.4766   O.2       1 RES1   0.0000
    28 N28     -5.7625   7.7730   4.9696   N.am      1 RES1   0.0000
    29 S29     -0.2540  10.5455  12.7691   S.o2      1 RES1   0.0000
    30 O30      0.4635   9.7011  11.8639   O.2       1 RES1   0.0000
    31 O31     -0.6638   9.8973  13.9928   O.2       1 RES1   0.0000
    32 C32      0.6547  11.8565  13.1689   C.2       1 RES1   0.0000
    33 C33      1.5889  12.3155  12.2378   C.2       1 RES1   0.0000
    34 C34      2.3538  13.4558  12.4781   C.2       1 RES1   0.0000
    35 C35      2.2230  14.1607  13.6575   C.2       1 RES1   0.0000
    36 N36      2.8680  15.2729  14.0812   N.2       1 RES1   0.0000
    37 C37      2.4695  15.6613  15.3030   C.2       1 RES1   0.0000
    38 S38      1.2464  14.6735  16.0414   S.3       1 RES1   0.0000
    39 C39      1.3104  13.7220  14.6192   C.2       1 RES1   0.0000
    40 C40      0.5349  12.5778  14.3670   C.2       1 RES1   0.0000
@<TRIPOS>BOND
     1     1     2    1
     2     2     3    1
     3     3     4    1
     4     3     5    1
     5     5     6    1
     6     6     7    1
     7     7     8    1
     8     8     9    1
     9     8    10    1
    10    10    11    1
    11    11    12    1
    12    12    13    2
    13    13    14    1
    14    14    15    2
    15    15    16    1
    16    16    17    2
    17    10    18    1
    18    18    19   am
    19    19    20    2
    20    19    21    1
    21    21    22    1
    22    23    22    1
    23    23    24    1
    24    24    25    1
    25    25    26    1
    26    26    27    2
    27    26    28   am
    28     6    29    1
    29    29    30    2
    30    29    31    2
    31    29    32    1
    32    32    33    2
    33    33    34    1
    34    34    35    2
    35    35    36    1
    36    36    37    2
    37    37    38    1
    38    38    39    1
    39    39    40    2
    40    17    12    1
    41    28    23    1
    42    40    32    1
    43    39    35    1
@<TRIPOS>SUBSTRUCTURE
     1 RES1        1 GROUP             0 ****  ****    0  
@<TRIPOS>MOLECULE
ligand_12
    40    43     1     0     0
SMALL
NO_CHARGES
****
Generated from the CSD

@<TRIPOS>ATOM
     1 C1      -5.2943   8.8617  12.9382   C.3       1 RES1   0.0000
     2 C2      -4.4179  10.0033  12.4471   C.3       1 RES1   0.0000
     3 C3      -3.5811  10.6573  13.5528   C.3       1 RES1   0.0000
     4 C4      -4.4986  11.2642  14.6150   C.3       1 RES1   0.0000
     5 C5      -2.6048  11.6601  12.9129   C.3       1 RES1   0.0000
     6 N6      -1.6318  10.9881  12.0208   N.3       1 RES1   0.0000
     7 C7      -1.4381  11.7292  10.7463   C.3       1 RES1   0.0000
     8 C8      -2.5165  11.2860   9.7469   C.3       1 RES1   0.0000
     9 O9      -3.7871  11.7319  10.2303   O.3       1 RES1   0.0000
    10 C10     -2.2842  11.8041   8.3257   C.3       1 RES1   0.0000
    11 C11     -2.5073  13.3102   8.1582   C.3       1 RES1   0.0000
    12 C12     -2.0834  13.7823   6.7753   C.2       1 RES1   0.0000
    13 C13     -0.7769  14.2064   6.5659   C.2       1 RES1   0.0000
    14 C14     -0.3730  14.6369   5.3035   C.2       1 RES1   0.0000
    15 C15     -1.2725  14.6385   4.2442   C.2       1 RES1   0.0000
    16 C16     -2.5792  14.2122   4.4511   C.2       1 RES1   0.0000
    17 C17     -2.9762  13.7792   5.7132   C.2       1 RES1   0.0000
    18 N18     -3.1642  11.1049   7.4032   N.am      1 RES1   0.0000
    19 C19     -2.7877  10.2184   6.4871   C.2       1 RES1   0.0000
    20 O20     -1.6437   9.8510   6.2753   O.2       1 RES1   0.0000
    21 O21     -3.8504   9.6840   5.6537   O.3       1 RES1   0.0000
    22 C22     -3.5400   8.7518   4.6169   C.3       1 RES1   0.0000
    23 C23     -4.8568   8.3985   3.9476   C.3       1 RES1   0.0000
    24 C24     -5.6269   9.6991   3.6514   C.3       1 RES1   0.0000
    25 C25     -6.6194   9.9278   4.8209   C.3       1 RES1   0.0000
    26 C26     -6.6624   8.6216   5.5605   C.2       1 RES1   0.0000
    27 O27     -7.3991   8.3400   6.4766   O.2       1 RES1   0.0000
    28 N28     -5.7625   7.7729   4.9696   N.am      1 RES1   0.0000
    29 S29     -0.2540  10.5455  12.7691   S.o2      1 RES1   0.0000
    30 O30      0.4634   9.7010  11.8639   O.2       1 RES1   0.0000
    31 O31     -0.6638   9.8973  13.9928   O.2       1 RES1   0.0000
    32 C32      0.6547  11.8565  13.1689   C.2       1 RES1   0.0000
    33 C33      0.4454  12.4431  14.4187   C.2       1 RES1   0.0000
    34 C34      1.2169  13.5193  14.8543   C.2       1 RES1   0.0000
    35 C35      2.2057  14.0523  14.0524   C.2       1 RES1   0.0000
    36 N36      3.0484  15.0862  14.2831   N.2       1 RES1   0.0000
    37 C37      3.8740  15.3140  13.2492   C.2       1 RES1   0.0000
    38 S38      3.6782  14.2547  11.8866   S.3       1 RES1   0.0000
    39 C39      2.4329  13.5020  12.7891   C.2       1 RES1   0.0000
    40 C40      1.6588  12.4108  12.3596   C.2       1 RES1   0.0000
@<TRIPOS>BOND
     1     1     2    1
     2     2     3    1
     3     3     4    1
     4     3     5    1
     5     5     6    1
     6     6     7    1
     7     7     8    1
     8     8     9    1
     9     8    10    1
    10    10    11    1
    11    11    12    1
    12    12    13    2
    13    13    14    1
    14    14    15    2
    15    15    16    1
    16    16    17    2
    17    10    18    1
    18    18    19   am
    19    19    20    2
    20    19    21    1
    21    21    22    1
    22    23    22    1
    23    23    24    1
    24    24    25    1
    25    25    26    1
    26    26    27    2
    27    26    28   am
    28     6    29    1
    29    29    30    2
    30    29    31    2
    31    29    32    1
    32    32    33    2
    33    33    34    1
    34    34    35    2
    35    35    36    1
    36    36    37    2
    37    37    38    1
    38    38    39    1
    39    39    40    2
    40    17    12    1
    41    28    23    1
    42    40    32    1
    43    39    35    1
@<TRIPOS>SUBSTRUCTURE
     1 RES1        1 GROUP             0 ****  ****    0  
@<TRIPOS>MOLECULE
ligand_13
    40    43     1     0     0
SMALL
NO_CHARGES
****
Generated from the CSD

@<TRIPOS>ATOM
     1 C1       1.2645  16.3315  -0.7048   C.3       1 RES1   0.0000
     2 C2       1.8877  15.3589   0.2843   C.3       1 RES1   0.0000
     3 C3       2.6930  16.0419   1.3959   C.3       1 RES1   0.0000
     4 C4       3.8464  16.8433   0.7908   C.3       1 RES1   0.0000
     5 C5       3.1300  14.9799   2.4202   C.3       1 RES1   0.0000
     6 N6       1.9689  14.3619   3.1016   N.3       1 RES1   0.0000
     7 C7       2.0938  12.8826   3.1870   C.3       1 RES1   0.0000
     8 C8       0.7423  12.2497   2.8253   C.3       1 RES1   0.0000
     9 O9       0.4293  12.6008   1.4741   O.3       1 RES1   0.0000
    10 C10      0.7141  10.7287   2.9925   C.3       1 RES1   0.0000
    11 C11      1.5421   9.9639   1.9553   C.3       1 RES1   0.0000
    12 C12      1.6169   8.4817   2.2903   C.2       1 RES1   0.0000
    13 C13      2.6491   8.0111   3.0927   C.2       1 RES1   0.0000
    14 C14      2.7278   6.6569   3.4119   C.2       1 RES1   0.0000
    15 C15      1.7705   5.7692   2.9355   C.2       1 RES1   0.0000
    16 C16      0.7357   6.2385   2.1349   C.2       1 RES1   0.0000
    17 C17      0.6596   7.5930   1.8224   C.2       1 RES1   0.0000
    18 N18     -0.6594  10.2569   2.9210   N.am      1 RES1   0.0000
    19 C19     -1.3700   9.7698   3.9332   C.2       1 RES1   0.0000
    20 O20     -0.9821   9.6415   5.0829   O.2       1 RES1   0.0000
    21 O21     -2.7124   9.3240   3.6033   O.3       1 RES1   0.0000
    22 C22     -3.5407   8.7521   4.6168   C.3       1 RES1   0.0000
    23 C23     -4.8576   8.3990   3.9476   C.3       1 RES1   0.0000
    24 C24     -5.6301   9.6994   3.6568   C.3       1 RES1   0.0000
    25 C25     -6.6218   9.9225   4.8281   C.3       1 RES1   0.0000
    26 C26     -6.6620   8.6136   5.5631   C.2       1 RES1   0.0000
    27 O27     -7.3974   8.3275   6.4789   O.2       1 RES1   0.0000
    28 N28     -5.7613   7.7684   4.9683   N.am      1 RES1   0.0000
    29 S29      1.5631  15.0944   4.4990   S.o2      1 RES1   0.0000
    30 O30      0.3017  14.5551   4.9054   O.2       1 RES1   0.0000
    31 O31      1.5418  16.5088   4.2079   O.2       1 RES1   0.0000
    32 C32      2.6972  14.8322   5.6606   C.2       1 RES1   0.0000
    33 C33      2.5402  13.7208   6.4914   C.2       1 RES1   0.0000
    34 C34      3.4898  13.3977   7.4594   C.2       1 RES1   0.0000
    35 C35      4.6123  14.1803   7.6391   C.2       1 RES1   0.0000
    36 N36      5.6348  14.0447   8.5158   N.2       1 RES1   0.0000
    37 C37      6.5487  15.0202   8.3909   C.2       1 RES1   0.0000
    38 S38      6.2193  16.2026   7.1618   S.3       1 RES1   0.0000
    39 C39      4.7950  15.3092   6.8376   C.2       1 RES1   0.0000
    40 C40      3.8394  15.6240   5.8567   C.2       1 RES1   0.0000
@<TRIPOS>BOND
     1     1     2    1
     2     2     3    1
     3     3     4    1
     4     3     5    1
     5     5     6    1
     6     6     7    1
     7     7     8    1
     8     8     9    1
     9     8    10    1
    10    10    11    1
    11    11    12    1
    12    12    13    2
    13    13    14    1
    14    14    15    2
    15    15    16    1
    16    16    17    2
    17    10    18    1
    18    18    19   am
    19    19    20    2
    20    19    21    1
    21    21    22    1
    22    23    22    1
    23    23    24    1
    24    24    25    1
    25    25    26    1
    26    26    27    2
    27    26    28   am
    28     6    29    1
    29    29    30    2
    30    29    31    2
    31    29    32    1
    32    32    33    2
    33    33    34    1
    34    34    35    2
    35    35    36    1
    36    36    37    2
    37    37    38    1
    38    38    39    1
    39    39    40    2
    40    17    12    1
    41    28    23    1
    42    40    32    1
    43    39    35    1
@<TRIPOS>SUBSTRUCTURE
     1 RES1        1 GROUP             0 ****  ****    0  
@<TRIPOS>MOLECULE
ligand_14
    40    43     1     0     0
SMALL
NO_CHARGES
****
Generated from the CSD

@<TRIPOS>ATOM
     1 C1       1.2640  16.3317  -0.7045   C.3       1 RES1   0.0000
     2 C2       1.8875  15.3590   0.2843   C.3       1 RES1   0.0000
     3 C3       2.6929  16.0420   1.3958   C.3       1 RES1   0.0000
     4 C4       3.8463  16.8433   0.7907   C.3       1 RES1   0.0000
     5 C5       3.1300  14.9798   2.4201   C.3       1 RES1   0.0000
     6 N6       1.9689  14.3619   3.1015   N.3       1 RES1   0.0000
     7 C7       2.0938  12.8826   3.1870   C.3       1 RES1   0.0000
     8 C8       0.7423  12.2497   2.8253   C.3       1 RES1   0.0000
     9 O9       0.4293  12.6008   1.4741   O.3       1 RES1   0.0000
    10 C10      0.7141  10.7287   2.9925   C.3       1 RES1   0.0000
    11 C11      1.5420   9.9639   1.9553   C.3       1 RES1   0.0000
    12 C12      1.6168   8.4817   2.2903   C.2       1 RES1   0.0000
    13 C13      2.6491   8.0111   3.0926   C.2       1 RES1   0.0000
    14 C14      2.7278   6.6568   3.4118   C.2       1 RES1   0.0000
    15 C15      1.7705   5.7692   2.9354   C.2       1 RES1   0.0000
    16 C16      0.7357   6.2385   2.1349   C.2       1 RES1   0.0000
    17 C17      0.6595   7.5930   1.8224   C.2       1 RES1   0.0000
    18 N18     -0.6594  10.2569   2.9211   N.am      1 RES1   0.0000
    19 C19     -1.3700   9.7698   3.9333   C.2       1 RES1   0.0000
    20 O20     -0.9820   9.6415   5.0830   O.2       1 RES1   0.0000
    21 O21     -2.7124   9.3240   3.6035   O.3       1 RES1   0.0000
    22 C22     -3.5407   8.7521   4.6170   C.3       1 RES1   0.0000
    23 C23     -4.8576   8.3990   3.9479   C.3       1 RES1   0.0000
    24 C24     -5.6301   9.6995   3.6571   C.3       1 RES1   0.0000
    25 C25     -6.6218   9.9225   4.8284   C.3       1 RES1   0.0000
    26 C26     -6.6619   8.6136   5.5634   C.2       1 RES1   0.0000
    27 O27     -7.3972   8.3275   6.4793   O.2       1 RES1   0.0000
    28 N28     -5.7612   7.7685   4.9686   N.am      1 RES1   0.0000
    29 S29      1.5632  15.0945   4.4989   S.o2      1 RES1   0.0000
    30 O30      0.2965  14.5633   4.8997   O.2       1 RES1   0.0000
    31 O31      1.5530  16.5096   4.2106   O.2       1 RES1   0.0000
    32 C32      2.6912  14.8219   5.6641   C.2       1 RES1   0.0000
    33 C33      3.7505  15.7250   5.7754   C.2       1 RES1   0.0000
    34 C34      4.7129  15.5959   6.7755   C.2       1 RES1   0.0000
    35 C35      4.6578  14.5560   7.6814   C.2       1 RES1   0.0000
    36 N36      5.4866  14.2530   8.7079   N.2       1 RES1   0.0000
    37 C37      5.1038  13.1465   9.3650   C.2       1 RES1   0.0000
    38 S38      3.6671  12.3773   8.7639   S.3       1 RES1   0.0000
    39 C39      3.6217  13.6240   7.5909   C.2       1 RES1   0.0000
    40 C40      2.6489  13.7651   6.5869   C.2       1 RES1   0.0000
@<TRIPOS>BOND
     1     1     2    1
     2     2     3    1
     3     3     4    1
     4     3     5    1
     5     5     6    1
     6     6     7    1
     7     7     8    1
     8     8     9    1
     9     8    10    1
    10    10    11    1
    11    11    12    1
    12    12    13    2
    13    13    14    1
    14    14    15    2
    15    15    16    1
    16    16    17    2
    17    10    18    1
    18    18    19   am
    19    19    20    2
    20    19    21    1
    21    21    22    1
    22    23    22    1
    23    23    24    1
    24    24    25    1
    25    25    26    1
    26    26    27    2
    27    26    28   am
    28     6    29    1
    29    29    30    2
    30    29    31    2
    31    29    32    1
    32    32    33    2
    33    33    34    1
    34    34    35    2
    35    35    36    1
    36    36    37    2
    37    37    38    1
    38    38    39    1
    39    39    40    2
    40    17    12    1
    41    28    23    1
    42    40    32    1
    43    39    35    1
@<TRIPOS>SUBSTRUCTURE
     1 RES1        1 GROUP             0 ****  ****    0  
@<TRIPOS>MOLECULE
ligand_15
    40    43     1     0     0
SMALL
NO_CHARGES
****
Generated from the CSD

@<TRIPOS>ATOM
     1 C1      -1.4732  16.3721   1.4559   C.3       1 RES1   0.0000
     2 C2      -0.3248  15.3802   1.5553   C.3       1 RES1   0.0000
     3 C3       1.0588  16.0401   1.5817   C.3       1 RES1   0.0000
     4 C4       1.2927  16.8193   0.2869   C.3       1 RES1   0.0000
     5 C5       2.1196  14.9638   1.8724   C.3       1 RES1   0.0000
     6 N6       1.9392  14.3613   3.2135   N.3       1 RES1   0.0000
     7 C7       2.0938  12.8826   3.1870   C.3       1 RES1   0.0000
     8 C8       0.7423  12.2497   2.8253   C.3       1 RES1   0.0000
     9 O9       0.4293  12.6008   1.4741   O.3       1 RES1   0.0000
    10 C10      0.7141  10.7287   2.9925   C.3       1 RES1   0.0000
    11 C11      1.5419   9.9639   1.9552   C.3       1 RES1   0.0000
    12 C12      1.6167   8.4817   2.2902   C.2       1 RES1   0.0000
    13 C13      2.6491   8.0111   3.0923   C.2       1 RES1   0.0000
    14 C14      2.7278   6.6568   3.4115   C.2       1 RES1   0.0000
    15 C15      1.7704   5.7692   2.9353   C.2       1 RES1   0.0000
    16 C16      0.7355   6.2385   2.1348   C.2       1 RES1   0.0000
    17 C17      0.6593   7.5930   1.8224   C.2       1 RES1   0.0000
    18 N18     -0.6594  10.2570   2.9213   N.am      1 RES1   0.0000
    19 C19     -1.3699   9.7698   3.9336   C.2       1 RES1   0.0000
    20 O20     -0.9817   9.6415   5.0832   O.2       1 RES1   0.0000
    21 O21     -2.7123   9.3241   3.6039   O.3       1 RES1   0.0000
    22 C22     -3.5405   8.7521   4.6176   C.3       1 RES1   0.0000
    23 C23     -4.8575   8.3991   3.9486   C.3       1 RES1   0.0000
    24 C24     -5.6300   9.6995   3.6579   C.3       1 RES1   0.0000
    25 C25     -6.6215   9.9226   4.8294   C.3       1 RES1   0.0000
    26 C26     -6.6616   8.6137   5.5644   C.2       1 RES1   0.0000
    27 O27     -7.3968   8.3277   6.4803   O.2       1 RES1   0.0000
    28 N28     -5.7610   7.7685   4.9695   N.am      1 RES1   0.0000
    29 S29      2.7796  15.1144   4.3885   S.o2      1 RES1   0.0000
    30 O30      2.3160  14.5926   5.6375   O.2       1 RES1   0.0000
    31 O31      2.5339  16.5254   4.2028   O.2       1 RES1   0.0000
    32 C32      4.3953  14.8548   4.2257   C.2       1 RES1   0.0000
    33 C33      4.9495  13.7463   4.8694   C.2       1 RES1   0.0000
    34 C34      6.2989  13.4253   4.7304   C.2       1 RES1   0.0000
    35 C35      7.1373  14.2072   3.9619   C.2       1 RES1   0.0000
    36 N36      8.4603  14.0734   3.7086   N.2       1 RES1   0.0000
    37 C37      8.9300  15.0475   2.9129   C.2       1 RES1   0.0000
    38 S38      7.7611  16.2261   2.4015   S.3       1 RES1   0.0000
    39 C39      6.6219  15.3333   3.3164   C.2       1 RES1   0.0000
    40 C40      5.2587  15.6459   3.4519   C.2       1 RES1   0.0000
@<TRIPOS>BOND
     1     1     2    1
     2     2     3    1
     3     3     4    1
     4     3     5    1
     5     5     6    1
     6     6     7    1
     7     7     8    1
     8     8     9    1
     9     8    10    1
    10    10    11    1
    11    11    12    1
    12    12    13    2
    13    13    14    1
    14    14    15    2
    15    15    16    1
    16    16    17    2
    17    10    18    1
    18    18    19   am
    19    19    20    2
    20    19    21    1
    21    21    22    1
    22    23    22    1
    23    23    24    1
    24    24    25    1
    25    25    26    1
    26    26    27    2
    27    26    28   am
    28     6    29    1
    29    29    30    2
    30    29    31    2
    31    29    32    1
    32    32    33    2
    33    33    34    1
    34    34    35    2
    35    35    36    1
    36    36    37    2
    37    37    38    1
    38    38    39    1
    39    39    40    2
    40    17    12    1
    41    28    23    1
    42    40    32    1
    43    39    35    1
@<TRIPOS>SUBSTRUCTURE
     1 RES1        1 GROUP             0 ****  ****    0  
@<TRIPOS>MOLECULE
ligand_16
    40    43     1     0     0
SMALL
NO_CHARGES
****
Generated from the CSD

@<TRIPOS>ATOM
     1 C1      -1.4732  16.3721   1.4559   C.3       1 RES1   0.0000
     2 C2      -0.3248  15.3802   1.5553   C.3       1 RES1   0.0000
     3 C3       1.0588  16.0401   1.5817   C.3       1 RES1   0.0000
     4 C4       1.2928  16.8193   0.2869   C.3       1 RES1   0.0000
     5 C5       2.1196  14.9638   1.8724   C.3       1 RES1   0.0000
     6 N6       1.9392  14.3613   3.2135   N.3       1 RES1   0.0000
     7 C7       2.0938  12.8826   3.1870   C.3       1 RES1   0.0000
     8 C8       0.7423  12.2497   2.8253   C.3       1 RES1   0.0000
     9 O9       0.4293  12.6008   1.4741   O.3       1 RES1   0.0000
    10 C10      0.7141  10.7287   2.9925   C.3       1 RES1   0.0000
    11 C11      1.5419   9.9639   1.9552   C.3       1 RES1   0.0000
    12 C12      1.6167   8.4817   2.2902   C.2       1 RES1   0.0000
    13 C13      2.6491   8.0111   3.0923   C.2       1 RES1   0.0000
    14 C14      2.7278   6.6568   3.4115   C.2       1 RES1   0.0000
    15 C15      1.7704   5.7692   2.9353   C.2       1 RES1   0.0000
    16 C16      0.7355   6.2385   2.1348   C.2       1 RES1   0.0000
    17 C17      0.6593   7.5930   1.8224   C.2       1 RES1   0.0000
    18 N18     -0.6594  10.2570   2.9213   N.am      1 RES1   0.0000
    19 C19     -1.3699   9.7698   3.9336   C.2       1 RES1   0.0000
    20 O20     -0.9817   9.6415   5.0832   O.2       1 RES1   0.0000
    21 O21     -2.7123   9.3241   3.6039   O.3       1 RES1   0.0000
    22 C22     -3.5405   8.7521   4.6176   C.3       1 RES1   0.0000
    23 C23     -4.8575   8.3991   3.9487   C.3       1 RES1   0.0000
    24 C24     -5.6300   9.6995   3.6579   C.3       1 RES1   0.0000
    25 C25     -6.6215   9.9226   4.8294   C.3       1 RES1   0.0000
    26 C26     -6.6616   8.6137   5.5644   C.2       1 RES1   0.0000
    27 O27     -7.3968   8.3277   6.4804   O.2       1 RES1   0.0000
    28 N28     -5.7610   7.7686   4.9695   N.am      1 RES1   0.0000
    29 S29      2.7796  15.1144   4.3885   S.o2      1 RES1   0.0000
    30 O30      2.3159  14.5926   5.6375   O.2       1 RES1   0.0000
    31 O31      2.5339  16.5254   4.2028   O.2       1 RES1   0.0000
    32 C32      4.3953  14.8548   4.2257   C.2       1 RES1   0.0000
    33 C33      5.1297  15.7562   3.4523   C.2       1 RES1   0.0000
    34 C34      6.5119  15.6382   3.3159   C.2       1 RES1   0.0000
    35 C35      7.1990  14.6112   3.9308   C.2       1 RES1   0.0000
    36 N36      8.5210  14.3200   3.9176   N.2       1 RES1   0.0000
    37 C37      8.8106  13.2239   4.6368   C.2       1 RES1   0.0000
    38 S38      7.4567  12.4507   5.4024   S.3       1 RES1   0.0000
    39 C39      6.4957  13.6810   4.6991   C.2       1 RES1   0.0000
    40 C40      5.1038  13.8110   4.8411   C.2       1 RES1   0.0000
@<TRIPOS>BOND
     1     1     2    1
     2     2     3    1
     3     3     4    1
     4     3     5    1
     5     5     6    1
     6     6     7    1
     7     7     8    1
     8     8     9    1
     9     8    10    1
    10    10    11    1
    11    11    12    1
    12    12    13    2
    13    13    14    1
    14    14    15    2
    15    15    16    1
    16    16    17    2
    17    10    18    1
    18    18    19   am
    19    19    20    2
    20    19    21    1
    21    21    22    1
    22    23    22    1
    23    23    24    1
    24    24    25    1
    25    25    26    1
    26    26    27    2
    27    26    28   am
    28     6    29    1
    29    29    30    2
    30    29    31    2
    31    29    32    1
    32    32    33    2
    33    33    34    1
    34    34    35    2
    35    35    36    1
    36    36    37    2
    37    37    38    1
    38    38    39    1
    39    39    40    2
    40    17    12    1
    41    28    23    1
    42    40    32    1
    43    39    35    1
@<TRIPOS>SUBSTRUCTURE
     1 RES1        1 GROUP             0 ****  ****    0  
@<TRIPOS>MOLECULE
ligand_17
    40    43     1     0     0
SMALL
NO_CHARGES
****
Generated from the CSD

@<TRIPOS>ATOM
     1 C1       3.2867  16.8178   5.3256   C.3       1 RES1   0.0000
     2 C2       2.1649  15.7917   5.2895   C.3       1 RES1   0.0000
     3 C3       0.7795  16.4017   5.0464   C.3       1 RES1   0.0000
     4 C4       0.4306  17.3756   6.1725   C.3       1 RES1   0.0000
     5 C5      -0.2398  15.2647   4.8553   C.3       1 RES1   0.0000
     6 N6       0.0517  14.4618   3.6451   N.3       1 RES1   0.0000
     7 C7      -0.0481  13.0013   3.9062   C.3       1 RES1   0.0000
     8 C8       0.7423  12.2497   2.8253   C.3       1 RES1   0.0000
     9 O9       2.0930  12.7210   2.8475   O.3       1 RES1   0.0000
    10 C10      0.7141  10.7287   2.9925   C.3       1 RES1   0.0000
    11 C11      1.5421   9.9639   1.9553   C.3       1 RES1   0.0000
    12 C12      1.6169   8.4817   2.2903   C.2       1 RES1   0.0000
    13 C13      2.6491   8.0111   3.0927   C.2       1 RES1   0.0000
    14 C14      2.7278   6.6569   3.4119   C.2       1 RES1   0.0000
    15 C15      1.7705   5.7692   2.9355   C.2       1 RES1   0.0000
    16 C16      0.7357   6.2385   2.1349   C.2       1 RES1   0.0000
    17 C17      0.6596   7.5930   1.8224   C.2       1 RES1   0.0000
    18 N18     -0.6594  10.2569   2.9210   N.am      1 RES1   0.0000
    19 C19     -1.3700   9.7698   3.9333   C.2       1 RES1   0.0000
    20 O20     -0.9821   9.6415   5.0829   O.2       1 RES1   0.0000
    21 O21     -2.7124   9.3240   3.6033   O.3       1 RES1   0.0000
    22 C22     -3.5407   8.7521   4.6169   C.3       1 RES1   0.0000
    23 C23     -4.8576   8.3990   3.9477   C.3       1 RES1   0.0000
    24 C24     -5.6301   9.6994   3.6568   C.3       1 RES1   0.0000
    25 C25     -6.6218   9.9225   4.8281   C.3       1 RES1   0.0000
    26 C26     -6.6620   8.6136   5.5631   C.2       1 RES1   0.0000
    27 O27     -7.3973   8.3275   6.4790   O.2       1 RES1   0.0000
    28 N28     -5.7613   7.7684   4.9684   N.am      1 RES1   0.0000
    29 S29     -0.7369  14.9727   2.3142   S.o2      1 RES1   0.0000
    30 O30     -0.0451  14.4347   1.1832   O.2       1 RES1   0.0000
    31 O31     -0.7327  16.4151   2.3861   O.2       1 RES1   0.0000
    32 C32     -2.3023  14.4687   2.3188   C.2       1 RES1   0.0000
    33 C33     -2.5965  13.2373   1.7295   C.2       1 RES1   0.0000
    34 C34     -3.8885  12.7142   1.7466   C.2       1 RES1   0.0000
    35 C35     -4.9260  13.4089   2.3347   C.2       1 RES1   0.0000
    36 N36     -6.2349  13.0833   2.4493   N.2       1 RES1   0.0000
    37 C37     -6.9435  14.0289   3.0868   C.2       1 RES1   0.0000
    38 S38     -6.0404  15.4183   3.6076   S.3       1 RES1   0.0000
    39 C39     -4.6727  14.6514   2.9197   C.2       1 RES1   0.0000
    40 C40     -3.3664  15.1689   2.9084   C.2       1 RES1   0.0000
@<TRIPOS>BOND
     1     1     2    1
     2     2     3    1
     3     3     4    1
     4     3     5    1
     5     5     6    1
     6     6     7    1
     7     7     8    1
     8     8     9    1
     9     8    10    1
    10    10    11    1
    11    11    12    1
    12    12    13    2
    13    13    14    1
    14    14    15    2
    15    15    16    1
    16    16    17    2
    17    10    18    1
    18    18    19   am
    19    19    20    2
    20    19    21    1
    21    21    22    1
    22    23    22    1
    23    23    24    1
    24    24    25    1
    25    25    26    1
    26    26    27    2
    27    26    28   am
    28     6    29    1
    29    29    30    2
    30    29    31    2
    31    29    32    1
    32    32    33    2
    33    33    34    1
    34    34    35    2
    35    35    36    1
    36    36    37    2
    37    37    38    1
    38    38    39    1
    39    39    40    2
    40    17    12    1
    41    28    23    1
    42    40    32    1
    43    39    35    1
@<TRIPOS>SUBSTRUCTURE
     1 RES1        1 GROUP             0 ****  ****    0  
@<TRIPOS>MOLECULE
ligand_18
    40    43     1     0     0
SMALL
NO_CHARGES
****
Generated from the CSD

@<TRIPOS>ATOM
     1 C1       3.2853  16.8173   5.3312   C.3       1 RES1   0.0000
     2 C2       2.1635  15.7912   5.2933   C.3       1 RES1   0.0000
     3 C3       0.7784  16.4014   5.0483   C.3       1 RES1   0.0000
     4 C4       0.4280  17.3751   6.1741   C.3       1 RES1   0.0000
     5 C5      -0.2407  15.2645   4.8556   C.3       1 RES1   0.0000
     6 N6       0.0524  14.4618   3.6456   N.3       1 RES1   0.0000
     7 C7      -0.0481  13.0013   3.9062   C.3       1 RES1   0.0000
     8 C8       0.7423  12.2497   2.8253   C.3       1 RES1   0.0000
     9 O9       2.0930  12.7210   2.8475   O.3       1 RES1   0.0000
    10 C10      0.7141  10.7287   2.9925   C.3       1 RES1   0.0000
    11 C11      1.5414   9.9639   1.9548   C.3       1 RES1   0.0000
    12 C12      1.6164   8.4816   2.2898   C.2       1 RES1   0.0000
    13 C13      2.6490   8.0110   3.0916   C.2       1 RES1   0.0000
    14 C14      2.7278   6.6567   3.4108   C.2       1 RES1   0.0000
    15 C15      1.7702   5.7691   2.9348   C.2       1 RES1   0.0000
    16 C16      0.7350   6.2385   2.1348   C.2       1 RES1   0.0000
    17 C17      0.6587   7.5930   1.8224   C.2       1 RES1   0.0000
    18 N18     -0.6595  10.2570   2.9218   N.am      1 RES1   0.0000
    19 C19     -1.3695   9.7698   3.9343   C.2       1 RES1   0.0000
    20 O20     -0.9809   9.6413   5.0837   O.2       1 RES1   0.0000
    21 O21     -2.7121   9.3240   3.6051   O.3       1 RES1   0.0000
    22 C22     -3.5398   8.7518   4.6190   C.3       1 RES1   0.0000
    23 C23     -4.8571   8.3988   3.9505   C.3       1 RES1   0.0000
    24 C24     -5.6299   9.6993   3.6607   C.3       1 RES1   0.0000
    25 C25     -6.6208   9.9217   4.8327   C.3       1 RES1   0.0000
    26 C26     -6.6604   8.6126   5.5672   C.2       1 RES1   0.0000
    27 O27     -7.3951   8.3261   6.4834   O.2       1 RES1   0.0000
    28 N28     -5.7600   7.7678   4.9716   N.am      1 RES1   0.0000
    29 S29     -0.7340  14.9732   2.3137   S.o2      1 RES1   0.0000
    30 O30     -0.0401  14.4361   1.1835   O.2       1 RES1   0.0000
    31 O31     -0.7303  16.4156   2.3863   O.2       1 RES1   0.0000
    32 C32     -2.2992  14.4689   2.3153   C.2       1 RES1   0.0000
    33 C33     -3.2546  15.2977   2.9073   C.2       1 RES1   0.0000
    34 C34     -4.6091  14.9684   2.8955   C.2       1 RES1   0.0000
    35 C35     -5.0483  13.7982   2.3100   C.2       1 RES1   0.0000
    36 N36     -6.3017  13.2986   2.2004   N.2       1 RES1   0.0000
    37 C37     -6.3275  12.1167   1.5641   C.2       1 RES1   0.0000
    38 S38     -4.7852  11.5150   1.0382   S.3       1 RES1   0.0000
    39 C39     -4.1197  12.9365   1.7224   C.2       1 RES1   0.0000
    40 C40     -2.7568  13.2788   1.7284   C.2       1 RES1   0.0000
@<TRIPOS>BOND
     1     1     2    1
     2     2     3    1
     3     3     4    1
     4     3     5    1
     5     5     6    1
     6     6     7    1
     7     7     8    1
     8     8     9    1
     9     8    10    1
    10    10    11    1
    11    11    12    1
    12    12    13    2
    13    13    14    1
    14    14    15    2
    15    15    16    1
    16    16    17    2
    17    10    18    1
    18    18    19   am
    19    19    20    2
    20    19    21    1
    21    21    22    1
    22    23    22    1
    23    23    24    1
    24    24    25    1
    25    25    26    1
    26    26    27    2
    27    26    28   am
    28     6    29    1
    29    29    30    2
    30    29    31    2
    31    29    32    1
    32    32    33    2
    33    33    34    1
    34    34    35    2
    35    35    36    1
    36    36    37    2
    37    37    38    1
    38    38    39    1
    39    39    40    2
    40    17    12    1
    41    28    23    1
    42    40    32    1
    43    39    35    1
@<TRIPOS>SUBSTRUCTURE
     1 RES1        1 GROUP             0 ****  ****    0  
@<TRIPOS>MOLECULE
ligand_19
    40    43     1     0     0
SMALL
NO_CHARGES
****
Generated from the CSD

@<TRIPOS>ATOM
     1 C1      -5.9304   7.6341  13.1124   C.3       1 RES1   0.0000
     2 C2      -5.1165   8.5724  12.2351   C.3       1 RES1   0.0000
     3 C3      -4.2365   9.5473  13.0261   C.3       1 RES1   0.0000
     4 C4      -5.1075  10.4394  13.9116   C.3       1 RES1   0.0000
     5 C5      -3.3368  10.3174  12.0434   C.3       1 RES1   0.0000
     6 N6      -2.3942   9.4174  11.3393   N.3       1 RES1   0.0000
     7 C7      -2.2352   9.7849   9.9072   C.3       1 RES1   0.0000
     8 C8      -2.5165  11.2860   9.7469   C.3       1 RES1   0.0000
     9 O9      -1.6888  11.9991  10.6707   O.3       1 RES1   0.0000
    10 C10     -2.2842  11.8041   8.3257   C.3       1 RES1   0.0000
    11 C11     -2.5070  13.3103   8.1582   C.3       1 RES1   0.0000
    12 C12     -2.0832  13.7823   6.7753   C.2       1 RES1   0.0000
    13 C13     -0.7767  14.2062   6.5659   C.2       1 RES1   0.0000
    14 C14     -0.3728  14.6367   5.3035   C.2       1 RES1   0.0000
    15 C15     -1.2723  14.6384   4.2442   C.2       1 RES1   0.0000
    16 C16     -2.5790  14.2123   4.4512   C.2       1 RES1   0.0000
    17 C17     -2.9761  13.7794   5.7133   C.2       1 RES1   0.0000
    18 N18     -3.1644  11.1051   7.4033   N.am      1 RES1   0.0000
    19 C19     -2.7881  10.2186   6.4871   C.2       1 RES1   0.0000
    20 O20     -1.6441   9.8510   6.2752   O.2       1 RES1   0.0000
    21 O21     -3.8509   9.6843   5.6538   O.3       1 RES1   0.0000
    22 C22     -3.5407   8.7521   4.6169   C.3       1 RES1   0.0000
    23 C23     -4.8576   8.3990   3.9477   C.3       1 RES1   0.0000
    24 C24     -5.6275   9.6998   3.6515   C.3       1 RES1   0.0000
    25 C25     -6.6199   9.9287   4.8211   C.3       1 RES1   0.0000
    26 C26     -6.6631   8.6224   5.5607   C.2       1 RES1   0.0000
    27 O27     -7.3998   8.3409   6.4768   O.2       1 RES1   0.0000
    28 N28     -5.7634   7.7736   4.9697   N.am      1 RES1   0.0000
    29 S29     -0.9968   9.1754  12.1410   S.o2      1 RES1   0.0000
    30 O30     -0.3093   8.1114  11.4758   O.2       1 RES1   0.0000
    31 O31     -1.3731   8.8827  13.5043   O.2       1 RES1   0.0000
    32 C32     -0.0719  10.5350  12.1505   C.2       1 RES1   0.0000
    33 C33     -0.2535  11.4445  13.1945   C.2       1 RES1   0.0000
    34 C34      0.5334  12.5898  13.3051   C.2       1 RES1   0.0000
    35 C35      1.5103  12.8707  12.3715   C.2       1 RES1   0.0000
    36 N36      2.3642  13.9183  12.2956   N.2       1 RES1   0.0000
    37 C37      3.1715  13.8439  11.2254   C.2       1 RES1   0.0000
    38 S38      2.9427  12.4538  10.2095   S.3       1 RES1   0.0000
    39 C39      1.7097  11.9923  11.3043   C.2       1 RES1   0.0000
    40 C40      0.9203  10.8342  11.2037   C.2       1 RES1   0.0000
@<TRIPOS>BOND
     1     1     2    1
     2     2     3    1
     3     3     4    1
     4     3     5    1
     5     5     6    1
     6     6     7    1
     7     7     8    1
     8     8     9    1
     9     8    10    1
    10    10    11    1
    11    11    12    1
    12    12    13    2
    13    13    14    1
    14    14    15    2
    15    15    16    1
    16    16    17    2
    17    10    18    1
    18    18    19   am
    19    19    20    2
    20    19    21    1
    21    21    22    1
    22    23    22    1
    23    23    24    1
    24    24    25    1
    25    25    26    1
    26    26    27    2
    27    26    28   am
    28     6    29    1
    29    29    30    2
    30    29    31    2
    31    29    32    1
    32    32    33    2
    33    33    34    1
    34    34    35    2
    35    35    36    1
    36    36    37    2
    37    37    38    1
    38    38    39    1
    39    39    40    2
    40    17    12    1
    41    28    23    1
    42    40    32    1
    43    39    35    1
@<TRIPOS>SUBSTRUCTURE
     1 RES1        1 GROUP             0 ****  ****    0  
@<TRIPOS>MOLECULE
ligand_20
    40    43     1     0     0
SMALL
NO_CHARGES
****
Generated from the CSD

@<TRIPOS>ATOM
     1 C1      -5.9503   7.6710  13.1117   C.3       1 RES1   0.0000
     2 C2      -5.1264   8.6019  12.2357   C.3       1 RES1   0.0000
     3 C3      -4.2343   9.5645  13.0281   C.3       1 RES1   0.0000
     4 C4      -5.0939  10.4645  13.9167   C.3       1 RES1   0.0000
     5 C5      -3.3267  10.3264  12.0463   C.3       1 RES1   0.0000
     6 N6      -2.3953   9.4172  11.3391   N.3       1 RES1   0.0000
     7 C7      -2.2352   9.7849   9.9072   C.3       1 RES1   0.0000
     8 C8      -2.5165  11.2860   9.7469   C.3       1 RES1   0.0000
     9 O9      -1.6888  11.9991  10.6707   O.3       1 RES1   0.0000
    10 C10     -2.2842  11.8041   8.3257   C.3       1 RES1   0.0000
    11 C11     -2.5070  13.3103   8.1582   C.3       1 RES1   0.0000
    12 C12     -2.0832  13.7823   6.7753   C.2       1 RES1   0.0000
    13 C13     -0.7767  14.2062   6.5659   C.2       1 RES1   0.0000
    14 C14     -0.3728  14.6367   5.3035   C.2       1 RES1   0.0000
    15 C15     -1.2723  14.6384   4.2442   C.2       1 RES1   0.0000
    16 C16     -2.5790  14.2123   4.4512   C.2       1 RES1   0.0000
    17 C17     -2.9761  13.7794   5.7133   C.2       1 RES1   0.0000
    18 N18     -3.1644  11.1051   7.4033   N.am      1 RES1   0.0000
    19 C19     -2.7881  10.2186   6.4871   C.2       1 RES1   0.0000
    20 O20     -1.6441   9.8510   6.2752   O.2       1 RES1   0.0000
    21 O21     -3.8509   9.6843   5.6538   O.3       1 RES1   0.0000
    22 C22     -3.5407   8.7521   4.6169   C.3       1 RES1   0.0000
    23 C23     -4.8576   8.3990   3.9477   C.3       1 RES1   0.0000
    24 C24     -5.6275   9.6998   3.6515   C.3       1 RES1   0.0000
    25 C25     -6.6199   9.9286   4.8212   C.3       1 RES1   0.0000
    26 C26     -6.6631   8.6224   5.5607   C.2       1 RES1   0.0000
    27 O27     -7.3998   8.3408   6.4768   O.2       1 RES1   0.0000
    28 N28     -5.7633   7.7736   4.9697   N.am      1 RES1   0.0000
    29 S29     -0.9991   9.1588  12.1377   S.o2      1 RES1   0.0000
    30 O30     -0.3229   8.0906  11.4676   O.2       1 RES1   0.0000
    31 O31     -1.3760   8.8649  13.5005   O.2       1 RES1   0.0000
    32 C32     -0.0610  10.5094  12.1505   C.2       1 RES1   0.0000
    33 C33      0.8563  10.6805  11.1116   C.2       1 RES1   0.0000
    34 C34      1.6441  11.8269  11.0198   C.2       1 RES1   0.0000
    35 C35      1.5534  12.8262  11.9675   C.2       1 RES1   0.0000
    36 N36      2.2254  13.9975  12.0623   N.2       1 RES1   0.0000
    37 C37      1.8635  14.7092  13.1416   C.2       1 RES1   0.0000
    38 S38      0.6444  13.9832  14.1435   S.3       1 RES1   0.0000
    39 C39      0.6586  12.6825  13.0300   C.2       1 RES1   0.0000
    40 C40     -0.1401  11.5293  13.1116   C.2       1 RES1   0.0000
@<TRIPOS>BOND
     1     1     2    1
     2     2     3    1
     3     3     4    1
     4     3     5    1
     5     5     6    1
     6     6     7    1
     7     7     8    1
     8     8     9    1
     9     8    10    1
    10    10    11    1
    11    11    12    1
    12    12    13    2
    13    13    14    1
    14    14    15    2
    15    15    16    1
    16    16    17    2
    17    10    18    1
    18    18    19   am
    19    19    20    2
    20    19    21    1
    21    21    22    1
    22    23    22    1
    23    23    24    1
    24    24    25    1
    25    25    26    1
    26    26    27    2
    27    26    28   am
    28     6    29    1
    29    29    30    2
    30    29    31    2
    31    29    32    1
    32    32    33    2
    33    33    34    1
    34    34    35    2
    35    35    36    1
    36    36    37    2
    37    37    38    1
    38    38    39    1
    39    39    40    2
    40    17    12    1
    41    28    23    1
    42    40    32    1
    43    39    35    1
@<TRIPOS>SUBSTRUCTURE
     1 RES1        1 GROUP             0 ****  ****    0  
@<TRIPOS>MOLECULE
ligand_21
    40    43     1     0     0
SMALL
NO_CHARGES
****
Generated from the CSD

@<TRIPOS>ATOM
     1 C1       6.0822   6.8982   0.0937   C.3       1 RES1   0.0000
     2 C2       4.8216   6.8837   0.9442   C.3       1 RES1   0.0000
     3 C3       5.0713   7.2089   2.4215   C.3       1 RES1   0.0000
     4 C4       6.0180   6.1754   3.0330   C.3       1 RES1   0.0000
     5 C5       3.7167   7.3297   3.1417   C.3       1 RES1   0.0000
     6 N6       2.9159   8.4622   2.6217   N.3       1 RES1   0.0000
     7 C7       1.4961   8.0841   2.3934   C.3       1 RES1   0.0000
     8 C8       1.0422   8.6564   1.0427   C.3       1 RES1   0.0000
     9 O9       1.8403   8.0645   0.0132   O.3       1 RES1   0.0000
    10 C10     -0.4431   8.4311   0.7503   C.3       1 RES1   0.0000
    11 C11     -0.9029   8.9469  -0.6168   C.3       1 RES1   0.0000
    12 C12     -2.3352   8.5282  -0.9134   C.2       1 RES1   0.0000
    13 C13     -2.5771   7.3253  -1.5655   C.2       1 RES1   0.0000
    14 C14     -3.8839   6.9264  -1.8396   C.2       1 RES1   0.0000
    15 C15     -4.9542   7.7258  -1.4562   C.2       1 RES1   0.0000
    16 C16     -4.7143   8.9282  -0.8015   C.2       1 RES1   0.0000
    17 C17     -3.4070   9.3199  -0.5265   C.2       1 RES1   0.0000
    18 N18     -1.2444   9.0772   1.7772   N.am      1 RES1   0.0000
    19 C19     -1.9607   8.4591   2.7109   C.2       1 RES1   0.0000
    20 O20     -2.0592   7.2515   2.8538   O.2       1 RES1   0.0000
    21 O21     -2.7124   9.3240   3.6033   O.3       1 RES1   0.0000
    22 C22     -3.5407   8.7521   4.6169   C.3       1 RES1   0.0000
    23 C23     -4.8576   8.3990   3.9477   C.3       1 RES1   0.0000
    24 C24     -5.6301   9.6994   3.6568   C.3       1 RES1   0.0000
    25 C25     -6.6218   9.9225   4.8281   C.3       1 RES1   0.0000
    26 C26     -6.6620   8.6136   5.5631   C.2       1 RES1   0.0000
    27 O27     -7.3973   8.3275   6.4790   O.2       1 RES1   0.0000
    28 N28     -5.7613   7.7684   4.9684   N.am      1 RES1   0.0000
    29 S29      3.1282   9.8493   3.4494   S.o2      1 RES1   0.0000
    30 O30      2.4969  10.8892   2.6961   O.2       1 RES1   0.0000
    31 O31      4.5566  10.0023   3.5975   O.2       1 RES1   0.0000
    32 C32      2.4694   9.7530   4.9530   C.2       1 RES1   0.0000
    33 C33      1.1420  10.1557   5.1144   C.2       1 RES1   0.0000
    34 C34      0.4948  10.0477   6.3443   C.2       1 RES1   0.0000
    35 C35      1.1547   9.5524   7.4507   C.2       1 RES1   0.0000
    36 N36      0.7140   9.3759   8.7185   N.2       1 RES1   0.0000
    37 C37      1.6622   8.8719   9.5242   C.2       1 RES1   0.0000
    38 S38      3.1988   8.5671   8.7738   S.3       1 RES1   0.0000
    39 C39      2.4880   9.1549   7.3312   C.2       1 RES1   0.0000
    40 C40      3.1321   9.2567   6.0865   C.2       1 RES1   0.0000
@<TRIPOS>BOND
     1     1     2    1
     2     2     3    1
     3     3     4    1
     4     3     5    1
     5     5     6    1
     6     6     7    1
     7     7     8    1
     8     8     9    1
     9     8    10    1
    10    10    11    1
    11    11    12    1
    12    12    13    2
    13    13    14    1
    14    14    15    2
    15    15    16    1
    16    16    17    2
    17    10    18    1
    18    18    19   am
    19    19    20    2
    20    19    21    1
    21    21    22    1
    22    23    22    1
    23    23    24    1
    24    24    25    1
    25    25    26    1
    26    26    27    2
    27    26    28   am
    28     6    29    1
    29    29    30    2
    30    29    31    2
    31    29    32    1
    32    32    33    2
    33    33    34    1
    34    34    35    2
    35    35    36    1
    36    36    37    2
    37    37    38    1
    38    38    39    1
    39    39    40    2
    40    17    12    1
    41    28    23    1
    42    40    32    1
    43    39    35    1
@<TRIPOS>SUBSTRUCTURE
     1 RES1        1 GROUP             0 ****  ****    0  
@<TRIPOS>MOLECULE
ligand_22
    40    43     1     0     0
SMALL
NO_CHARGES
****
Generated from the CSD

@<TRIPOS>ATOM
     1 C1       6.0827   6.9000   0.0934   C.3       1 RES1   0.0000
     2 C2       4.8220   6.8850   0.9438   C.3       1 RES1   0.0000
     3 C3       5.0715   7.2097   2.4212   C.3       1 RES1   0.0000
     4 C4       6.0185   6.1762   3.0324   C.3       1 RES1   0.0000
     5 C5       3.7168   7.3299   3.1414   C.3       1 RES1   0.0000
     6 N6       2.9159   8.4624   2.6219   N.3       1 RES1   0.0000
     7 C7       1.4961   8.0841   2.3934   C.3       1 RES1   0.0000
     8 C8       1.0422   8.6564   1.0427   C.3       1 RES1   0.0000
     9 O9       1.8403   8.0645   0.0132   O.3       1 RES1   0.0000
    10 C10     -0.4431   8.4311   0.7503   C.3       1 RES1   0.0000
    11 C11     -0.9029   8.9469  -0.6168   C.3       1 RES1   0.0000
    12 C12     -2.3352   8.5282  -0.9134   C.2       1 RES1   0.0000
    13 C13     -2.5771   7.3253  -1.5655   C.2       1 RES1   0.0000
    14 C14     -3.8839   6.9264  -1.8396   C.2       1 RES1   0.0000
    15 C15     -4.9542   7.7258  -1.4562   C.2       1 RES1   0.0000
    16 C16     -4.7143   8.9282  -0.8015   C.2       1 RES1   0.0000
    17 C17     -3.4070   9.3199  -0.5265   C.2       1 RES1   0.0000
    18 N18     -1.2444   9.0772   1.7772   N.am      1 RES1   0.0000
    19 C19     -1.9607   8.4591   2.7109   C.2       1 RES1   0.0000
    20 O20     -2.0592   7.2515   2.8538   O.2       1 RES1   0.0000
    21 O21     -2.7124   9.3240   3.6033   O.3       1 RES1   0.0000
    22 C22     -3.5407   8.7521   4.6169   C.3       1 RES1   0.0000
    23 C23     -4.8576   8.3990   3.9477   C.3       1 RES1   0.0000
    24 C24     -5.6301   9.6994   3.6568   C.3       1 RES1   0.0000
    25 C25     -6.6218   9.9225   4.8281   C.3       1 RES1   0.0000
    26 C26     -6.6620   8.6136   5.5631   C.2       1 RES1   0.0000
    27 O27     -7.3973   8.3275   6.4790   O.2       1 RES1   0.0000
    28 N28     -5.7613   7.7684   4.9684   N.am      1 RES1   0.0000
    29 S29      3.1279   9.8493   3.4500   S.o2      1 RES1   0.0000
    30 O30      2.5061  10.8911   2.6915   O.2       1 RES1   0.0000
    31 O31      4.5558   9.9966   3.6081   O.2       1 RES1   0.0000
    32 C32      2.4580   9.7567   4.9490   C.2       1 RES1   0.0000
    33 C33      3.2552   9.2889   5.9957   C.2       1 RES1   0.0000
    34 C34      2.7788   9.2382   7.3048   C.2       1 RES1   0.0000
    35 C35      1.4915   9.6348   7.6057   C.2       1 RES1   0.0000
    36 N36      0.8442   9.6557   8.7945   N.2       1 RES1   0.0000
    37 C37     -0.4161  10.1045   8.6829   C.2       1 RES1   0.0000
    38 S38     -0.9148  10.5468   7.0789   S.3       1 RES1   0.0000
    39 C39      0.6596  10.0929   6.5819   C.2       1 RES1   0.0000
    40 C40      1.1489  10.1514   5.2660   C.2       1 RES1   0.0000
@<TRIPOS>BOND
     1     1     2    1
     2     2     3    1
     3     3     4    1
     4     3     5    1
     5     5     6    1
     6     6     7    1
     7     7     8    1
     8     8     9    1
     9     8    10    1
    10    10    11    1
    11    11    12    1
    12    12    13    2
    13    13    14    1
    14    14    15    2
    15    15    16    1
    16    16    17    2
    17    10    18    1
    18    18    19   am
    19    19    20    2
    20    19    21    1
    21    21    22    1
    22    23    22    1
    23    23    24    1
    24    24    25    1
    25    25    26    1
    26    26    27    2
    27    26    28   am
    28     6    29    1
    29    29    30    2
    30    29    31    2
    31    29    32    1
    32    32    33    2
    33    33    34    1
    34    34    35    2
    35    35    36    1
    36    36    37    2
    37    37    38    1
    38    38    39    1
    39    39    40    2
    40    17    12    1
    41    28    23    1
    42    40    32    1
    43    39    35    1
@<TRIPOS>SUBSTRUCTURE
     1 RES1        1 GROUP             0 ****  ****    0  
@<TRIPOS>MOLECULE
ligand_23
    40    43     1     0     0
SMALL
NO_CHARGES
****
Generated from the CSD

@<TRIPOS>ATOM
     1 C1      -2.6473  17.0945   1.6602   C.3       1 RES1   0.0000
     2 C2      -1.8208  15.8433   1.9132   C.3       1 RES1   0.0000
     3 C3      -0.3076  16.0806   1.8471   C.3       1 RES1   0.0000
     4 C4       0.0849  16.5769   0.4550   C.3       1 RES1   0.0000
     5 C5       0.4185  14.7978   2.2891   C.3       1 RES1   0.0000
     6 N6       0.1330  14.4633   3.7036   N.3       1 RES1   0.0000
     7 C7      -0.0481  13.0013   3.9062   C.3       1 RES1   0.0000
     8 C8       0.7423  12.2497   2.8253   C.3       1 RES1   0.0000
     9 O9       2.0930  12.7210   2.8475   O.3       1 RES1   0.0000
    10 C10      0.7141  10.7287   2.9925   C.3       1 RES1   0.0000
    11 C11      1.5421   9.9639   1.9553   C.3       1 RES1   0.0000
    12 C12      1.6169   8.4817   2.2903   C.2       1 RES1   0.0000
    13 C13      2.6491   8.0111   3.0927   C.2       1 RES1   0.0000
    14 C14      2.7278   6.6569   3.4119   C.2       1 RES1   0.0000
    15 C15      1.7705   5.7692   2.9355   C.2       1 RES1   0.0000
    16 C16      0.7357   6.2385   2.1349   C.2       1 RES1   0.0000
    17 C17      0.6596   7.5930   1.8224   C.2       1 RES1   0.0000
    18 N18     -0.6594  10.2569   2.9210   N.am      1 RES1   0.0000
    19 C19     -1.3700   9.7698   3.9333   C.2       1 RES1   0.0000
    20 O20     -0.9821   9.6415   5.0829   O.2       1 RES1   0.0000
    21 O21     -2.7124   9.3240   3.6033   O.3       1 RES1   0.0000
    22 C22     -3.5407   8.7521   4.6169   C.3       1 RES1   0.0000
    23 C23     -4.8576   8.3990   3.9477   C.3       1 RES1   0.0000
    24 C24     -5.6301   9.6994   3.6568   C.3       1 RES1   0.0000
    25 C25     -6.6218   9.9225   4.8281   C.3       1 RES1   0.0000
    26 C26     -6.6620   8.6136   5.5631   C.2       1 RES1   0.0000
    27 O27     -7.3973   8.3275   6.4790   O.2       1 RES1   0.0000
    28 N28     -5.7613   7.7684   4.9684   N.am      1 RES1   0.0000
    29 S29      1.1427  15.1792   4.7628   S.o2      1 RES1   0.0000
    30 O30      0.5994  14.9687   6.0696   O.2       1 RES1   0.0000
    31 O31      1.2131  16.5647   4.3616   O.2       1 RES1   0.0000
    32 C32      2.6568  14.5448   4.6650   C.2       1 RES1   0.0000
    33 C33      3.5528  15.1226   3.7632   C.2       1 RES1   0.0000
    34 C34      4.8712  14.6804   3.6653   C.2       1 RES1   0.0000
    35 C35      5.3295  13.6409   4.4490   C.2       1 RES1   0.0000
    36 N36      6.5539  13.0657   4.5004   N.2       1 RES1   0.0000
    37 C37      6.6119  12.0649   5.3934   C.2       1 RES1   0.0000
    38 S38      5.1399  11.7464   6.2587   S.3       1 RES1   0.0000
    39 C39      4.4572  13.0278   5.3509   C.2       1 RES1   0.0000
    40 C40      3.1323  13.4845   5.4523   C.2       1 RES1   0.0000
@<TRIPOS>BOND
     1     1     2    1
     2     2     3    1
     3     3     4    1
     4     3     5    1
     5     5     6    1
     6     6     7    1
     7     7     8    1
     8     8     9    1
     9     8    10    1
    10    10    11    1
    11    11    12    1
    12    12    13    2
    13    13    14    1
    14    14    15    2
    15    15    16    1
    16    16    17    2
    17    10    18    1
    18    18    19   am
    19    19    20    2
    20    19    21    1
    21    21    22    1
    22    23    22    1
    23    23    24    1
    24    24    25    1
    25    25    26    1
    26    26    27    2
    27    26    28   am
    28     6    29    1
    29    29    30    2
    30    29    31    2
    31    29    32    1
    32    32    33    2
    33    33    34    1
    34    34    35    2
    35    35    36    1
    36    36    37    2
    37    37    38    1
    38    38    39    1
    39    39    40    2
    40    17    12    1
    41    28    23    1
    42    40    32    1
    43    39    35    1
@<TRIPOS>SUBSTRUCTURE
     1 RES1        1 GROUP             0 ****  ****    0  
@<TRIPOS>MOLECULE
ligand_24
    40    43     1     0     0
SMALL
NO_CHARGES
****
Generated from the CSD

@<TRIPOS>ATOM
     1 C1      -2.6349  17.0799   1.6229   C.3       1 RES1   0.0000
     2 C2      -1.8067  15.8323   1.8878   C.3       1 RES1   0.0000
     3 C3      -0.2937  16.0751   1.8382   C.3       1 RES1   0.0000
     4 C4       0.1126  16.5699   0.4494   C.3       1 RES1   0.0000
     5 C5       0.4322  14.7959   2.2909   C.3       1 RES1   0.0000
     6 N6       0.1321  14.4633   3.7029   N.3       1 RES1   0.0000
     7 C7      -0.0481  13.0013   3.9062   C.3       1 RES1   0.0000
     8 C8       0.7423  12.2497   2.8253   C.3       1 RES1   0.0000
     9 O9       2.0930  12.7210   2.8475   O.3       1 RES1   0.0000
    10 C10      0.7141  10.7287   2.9925   C.3       1 RES1   0.0000
    11 C11      1.5421   9.9639   1.9553   C.3       1 RES1   0.0000
    12 C12      1.6169   8.4817   2.2903   C.2       1 RES1   0.0000
    13 C13      2.6491   8.0111   3.0927   C.2       1 RES1   0.0000
    14 C14      2.7278   6.6569   3.4119   C.2       1 RES1   0.0000
    15 C15      1.7705   5.7692   2.9355   C.2       1 RES1   0.0000
    16 C16      0.7357   6.2385   2.1349   C.2       1 RES1   0.0000
    17 C17      0.6596   7.5930   1.8224   C.2       1 RES1   0.0000
    18 N18     -0.6594  10.2569   2.9210   N.am      1 RES1   0.0000
    19 C19     -1.3700   9.7698   3.9333   C.2       1 RES1   0.0000
    20 O20     -0.9821   9.6415   5.0829   O.2       1 RES1   0.0000
    21 O21     -2.7124   9.3240   3.6033   O.3       1 RES1   0.0000
    22 C22     -3.5407   8.7521   4.6169   C.3       1 RES1   0.0000
    23 C23     -4.8576   8.3990   3.9477   C.3       1 RES1   0.0000
    24 C24     -5.6301   9.6994   3.6568   C.3       1 RES1   0.0000
    25 C25     -6.6218   9.9225   4.8281   C.3       1 RES1   0.0000
    26 C26     -6.6620   8.6136   5.5631   C.2       1 RES1   0.0000
    27 O27     -7.3973   8.3275   6.4790   O.2       1 RES1   0.0000
    28 N28     -5.7613   7.7684   4.9684   N.am      1 RES1   0.0000
    29 S29      1.1287  15.1833   4.7717   S.o2      1 RES1   0.0000
    30 O30      0.5736  14.9710   6.0732   O.2       1 RES1   0.0000
    31 O31      1.1978  16.5690   4.3707   O.2       1 RES1   0.0000
    32 C32      2.6461  14.5547   4.6887   C.2       1 RES1   0.0000
    33 C33      2.9528  13.4706   5.5138   C.2       1 RES1   0.0000
    34 C34      4.1972  12.8449   5.4583   C.2       1 RES1   0.0000
    35 C35      5.1760  13.2907   4.5933   C.2       1 RES1   0.0000
    36 N36      6.4341  12.8324   4.3943   N.2       1 RES1   0.0000
    37 C37      7.0949  13.5392   3.4636   C.2       1 RES1   0.0000
    38 S38      6.2055  14.8463   2.7440   S.3       1 RES1   0.0000
    39 C39      4.9110  14.3829   3.7644   C.2       1 RES1   0.0000
    40 C40      3.6512  15.0031   3.8177   C.2       1 RES1   0.0000
@<TRIPOS>BOND
     1     1     2    1
     2     2     3    1
     3     3     4    1
     4     3     5    1
     5     5     6    1
     6     6     7    1
     7     7     8    1
     8     8     9    1
     9     8    10    1
    10    10    11    1
    11    11    12    1
    12    12    13    2
    13    13    14    1
    14    14    15    2
    15    15    16    1
    16    16    17    2
    17    10    18    1
    18    18    19   am
    19    19    20    2
    20    19    21    1
    21    21    22    1
    22    23    22    1
    23    23    24    1
    24    24    25    1
    25    25    26    1
    26    26    27    2
    27    26    28   am
    28     6    29    1
    29    29    30    2
    30    29    31    2
    31    29    32    1
    32    32    33    2
    33    33    34    1
    34    34    35    2
    35    35    36    1
    36    36    37    2
    37    37    38    1
    38    38    39    1
    39    39    40    2
    40    17    12    1
    41    28    23    1
    42    40    32    1
    43    39    35    1
@<TRIPOS>SUBSTRUCTURE
     1 RES1        1 GROUP             0 ****  ****    0  
@<TRIPOS>MOLECULE
ligand_25
    40    43     1     0     0
SMALL
NO_CHARGES
****
Generated from the CSD

@<TRIPOS>ATOM
     1 C1       5.4092  10.2879  -0.3861   C.3       1 RES1   0.0000
     2 C2       4.4305   9.3051   0.2374   C.3       1 RES1   0.0000
     3 C3       5.0249   8.4942   1.3950   C.3       1 RES1   0.0000
     4 C4       6.1994   7.6516   0.8959   C.3       1 RES1   0.0000
     5 C5       3.9020   7.6811   2.0629   C.3       1 RES1   0.0000
     6 N6       2.8771   8.5578   2.6753   N.3       1 RES1   0.0000
     7 C7       1.4961   8.0841   2.3934   C.3       1 RES1   0.0000
     8 C8       1.0422   8.6564   1.0427   C.3       1 RES1   0.0000
     9 O9       1.8403   8.0645   0.0132   O.3       1 RES1   0.0000
    10 C10     -0.4431   8.4311   0.7503   C.3       1 RES1   0.0000
    11 C11     -0.9029   8.9469  -0.6168   C.3       1 RES1   0.0000
    12 C12     -2.3352   8.5282  -0.9134   C.2       1 RES1   0.0000
    13 C13     -2.5771   7.3253  -1.5655   C.2       1 RES1   0.0000
    14 C14     -3.8839   6.9264  -1.8396   C.2       1 RES1   0.0000
    15 C15     -4.9542   7.7258  -1.4562   C.2       1 RES1   0.0000
    16 C16     -4.7143   8.9282  -0.8015   C.2       1 RES1   0.0000
    17 C17     -3.4070   9.3199  -0.5265   C.2       1 RES1   0.0000
    18 N18     -1.2444   9.0772   1.7772   N.am      1 RES1   0.0000
    19 C19     -1.9607   8.4591   2.7109   C.2       1 RES1   0.0000
    20 O20     -2.0592   7.2515   2.8538   O.2       1 RES1   0.0000
    21 O21     -2.7124   9.3240   3.6033   O.3       1 RES1   0.0000
    22 C22     -3.5407   8.7521   4.6169   C.3       1 RES1   0.0000
    23 C23     -4.8576   8.3990   3.9477   C.3       1 RES1   0.0000
    24 C24     -5.6301   9.6994   3.6568   C.3       1 RES1   0.0000
    25 C25     -6.6218   9.9225   4.8281   C.3       1 RES1   0.0000
    26 C26     -6.6620   8.6136   5.5631   C.2       1 RES1   0.0000
    27 O27     -7.3973   8.3275   6.4790   O.2       1 RES1   0.0000
    28 N28     -5.7613   7.7684   4.9684   N.am      1 RES1   0.0000
    29 S29      3.1701   8.9164   4.2372   S.o2      1 RES1   0.0000
    30 O30      2.2560   9.9522   4.6094   O.2       1 RES1   0.0000
    31 O31      4.5617   9.2983   4.2969   O.2       1 RES1   0.0000
    32 C32      2.9635   7.5993   5.2000   C.2       1 RES1   0.0000
    33 C33      1.6948   7.3728   5.7379   C.2       1 RES1   0.0000
    34 C34      1.4255   6.2465   6.5138   C.2       1 RES1   0.0000
    35 C35      2.4142   5.3239   6.7900   C.2       1 RES1   0.0000
    36 N36      2.3603   4.1842   7.5185   N.2       1 RES1   0.0000
    37 C37      3.5430   3.5508   7.5658   C.2       1 RES1   0.0000
    38 S38      4.8392   4.3184   6.7011   S.3       1 RES1   0.0000
    39 C39      3.6995   5.5257   6.2826   C.2       1 RES1   0.0000
    40 C40      3.9624   6.6577   5.4927   C.2       1 RES1   0.0000
@<TRIPOS>BOND
     1     1     2    1
     2     2     3    1
     3     3     4    1
     4     3     5    1
     5     5     6    1
     6     6     7    1
     7     7     8    1
     8     8     9    1
     9     8    10    1
    10    10    11    1
    11    11    12    1
    12    12    13    2
    13    13    14    1
    14    14    15    2
    15    15    16    1
    16    16    17    2
    17    10    18    1
    18    18    19   am
    19    19    20    2
    20    19    21    1
    21    21    22    1
    22    23    22    1
    23    23    24    1
    24    24    25    1
    25    25    26    1
    26    26    27    2
    27    26    28   am
    28     6    29    1
    29    29    30    2
    30    29    31    2
    31    29    32    1
    32    32    33    2
    33    33    34    1
    34    34    35    2
    35    35    36    1
    36    36    37    2
    37    37    38    1
    38    38    39    1
    39    39    40    2
    40    17    12    1
    41    28    23    1
    42    40    32    1
    43    39    35    1
@<TRIPOS>SUBSTRUCTURE
     1 RES1        1 GROUP             0 ****  ****    0  
@<TRIPOS>MOLECULE
ligand_26
    40    43     1     0     0
SMALL
NO_CHARGES
****
Generated from the CSD

@<TRIPOS>ATOM
     1 C1       5.4092  10.2879  -0.3861   C.3       1 RES1   0.0000
     2 C2       4.4306   9.3050   0.2374   C.3       1 RES1   0.0000
     3 C3       5.0249   8.4942   1.3950   C.3       1 RES1   0.0000
     4 C4       6.1994   7.6516   0.8960   C.3       1 RES1   0.0000
     5 C5       3.9020   7.6811   2.0629   C.3       1 RES1   0.0000
     6 N6       2.8771   8.5578   2.6753   N.3       1 RES1   0.0000
     7 C7       1.4961   8.0841   2.3934   C.3       1 RES1   0.0000
     8 C8       1.0422   8.6564   1.0427   C.3       1 RES1   0.0000
     9 O9       1.8403   8.0645   0.0132   O.3       1 RES1   0.0000
    10 C10     -0.4431   8.4311   0.7503   C.3       1 RES1   0.0000
    11 C11     -0.9029   8.9469  -0.6168   C.3       1 RES1   0.0000
    12 C12     -2.3352   8.5282  -0.9134   C.2       1 RES1   0.0000
    13 C13     -2.5771   7.3253  -1.5655   C.2       1 RES1   0.0000
    14 C14     -3.8839   6.9264  -1.8396   C.2       1 RES1   0.0000
    15 C15     -4.9542   7.7258  -1.4562   C.2       1 RES1   0.0000
    16 C16     -4.7143   8.9282  -0.8015   C.2       1 RES1   0.0000
    17 C17     -3.4070   9.3199  -0.5265   C.2       1 RES1   0.0000
    18 N18     -1.2444   9.0772   1.7772   N.am      1 RES1   0.0000
    19 C19     -1.9607   8.4591   2.7109   C.2       1 RES1   0.0000
    20 O20     -2.0592   7.2515   2.8538   O.2       1 RES1   0.0000
    21 O21     -2.7124   9.3240   3.6033   O.3       1 RES1   0.0000
    22 C22     -3.5407   8.7521   4.6169   C.3       1 RES1   0.0000
    23 C23     -4.8576   8.3990   3.9477   C.3       1 RES1   0.0000
    24 C24     -5.6301   9.6994   3.6568   C.3       1 RES1   0.0000
    25 C25     -6.6218   9.9225   4.8281   C.3       1 RES1   0.0000
    26 C26     -6.6620   8.6136   5.5631   C.2       1 RES1   0.0000
    27 O27     -7.3973   8.3275   6.4790   O.2       1 RES1   0.0000
    28 N28     -5.7613   7.7684   4.9684   N.am      1 RES1   0.0000
    29 S29      3.1701   8.9165   4.2372   S.o2      1 RES1   0.0000
    30 O30      2.2559   9.9523   4.6094   O.2       1 RES1   0.0000
    31 O31      4.5616   9.2984   4.2969   O.2       1 RES1   0.0000
    32 C32      2.9635   7.5994   5.2000   C.2       1 RES1   0.0000
    33 C33      4.0673   6.7755   5.4300   C.2       1 RES1   0.0000
    34 C34      3.9873   5.6751   6.2820   C.2       1 RES1   0.0000
    35 C35      2.8034   5.3541   6.9147   C.2       1 RES1   0.0000
    36 N36      2.5191   4.3377   7.7624   N.2       1 RES1   0.0000
    37 C37      1.2392   4.3522   8.1676   C.2       1 RES1   0.0000
    38 S38      0.2656   5.6411   7.5289   S.3       1 RES1   0.0000
    39 C39      1.6740   6.1458   6.6959   C.2       1 RES1   0.0000
    40 C40      1.7635   7.2596   5.8441   C.2       1 RES1   0.0000
@<TRIPOS>BOND
     1     1     2    1
     2     2     3    1
     3     3     4    1
     4     3     5    1
     5     5     6    1
     6     6     7    1
     7     7     8    1
     8     8     9    1
     9     8    10    1
    10    10    11    1
    11    11    12    1
    12    12    13    2
    13    13    14    1
    14    14    15    2
    15    15    16    1
    16    16    17    2
    17    10    18    1
    18    18    19   am
    19    19    20    2
    20    19    21    1
    21    21    22    1
    22    23    22    1
    23    23    24    1
    24    24    25    1
    25    25    26    1
    26    26    27    2
    27    26    28   am
    28     6    29    1
    29    29    30    2
    30    29    31    2
    31    29    32    1
    32    32    33    2
    33    33    34    1
    34    34    35    2
    35    35    36    1
    36    36    37    2
    37    37    38    1
    38    38    39    1
    39    39    40    2
    40    17    12    1
    41    28    23    1
    42    40    32    1
    43    39    35    1
@<TRIPOS>SUBSTRUCTURE
     1 RES1        1 GROUP             0 ****  ****    0  
@<TRIPOS>MOLECULE
ligand_27
    40    43     1     0     0
SMALL
NO_CHARGES
****
Generated from the CSD

@<TRIPOS>ATOM
     1 C1       2.1826  11.5188   9.8600   C.3       1 RES1   0.0000
     2 C2       0.7794  11.0178   9.5557   C.3       1 RES1   0.0000
     3 C3       0.6056   9.5086   9.7622   C.3       1 RES1   0.0000
     4 C4       1.4924   8.7399   8.7819   C.3       1 RES1   0.0000
     5 C5      -0.8905   9.1610   9.6677   C.3       1 RES1   0.0000
     6 N6      -1.6753   9.8096  10.7436   N.3       1 RES1   0.0000
     7 C7      -3.0007  10.2811  10.2617   C.3       1 RES1   0.0000
     8 C8      -2.8561  11.7191   9.7427   C.3       1 RES1   0.0000
     9 O9      -2.0225  12.4431  10.6526   O.3       1 RES1   0.0000
    10 C10     -2.2842  11.8041   8.3257   C.3       1 RES1   0.0000
    11 C11     -2.1003  13.2323   7.8034   C.3       1 RES1   0.0000
    12 C12     -1.3626  13.2445   6.4729   C.2       1 RES1   0.0000
    13 C13      0.0243  13.3284   6.4584   C.2       1 RES1   0.0000
    14 C14      0.7140  13.3358   5.2474   C.2       1 RES1   0.0000
    15 C15      0.0195  13.2524   4.0465   C.2       1 RES1   0.0000
    16 C16     -1.3676  13.1659   4.0591   C.2       1 RES1   0.0000
    17 C17     -2.0513  13.1547   5.2717   C.2       1 RES1   0.0000
    18 N18     -3.1540  11.0882   7.4064   N.am      1 RES1   0.0000
    19 C19     -2.7650  10.2016   6.4957   C.2       1 RES1   0.0000
    20 O20     -1.6161   9.8480   6.2870   O.2       1 RES1   0.0000
    21 O21     -3.8198   9.6486   5.6643   O.3       1 RES1   0.0000
    22 C22     -3.4962   8.7147   4.6330   C.3       1 RES1   0.0000
    23 C23     -4.8076   8.3404   3.9645   C.3       1 RES1   0.0000
    24 C24     -5.5943   9.6292   3.6603   C.3       1 RES1   0.0000
    25 C25     -6.5909   9.8515   4.8276   C.3       1 RES1   0.0000
    26 C26     -6.6176   8.5490   5.5744   C.2       1 RES1   0.0000
    27 O27     -7.3515   8.2628   6.4914   O.2       1 RES1   0.0000
    28 N28     -5.7060   7.7088   4.9892   N.am      1 RES1   0.0000
    29 S29     -1.7177   8.9551  12.1300   S.o2      1 RES1   0.0000
    30 O30     -2.2952   9.8019  13.1283   O.2       1 RES1   0.0000
    31 O31     -0.3516   8.5676  12.3931   O.2       1 RES1   0.0000
    32 C32     -2.6100   7.5844  11.9582   C.2       1 RES1   0.0000
    33 C33     -3.9766   7.6523  12.2375   C.2       1 RES1   0.0000
    34 C34     -4.8101   6.5494  12.0581   C.2       1 RES1   0.0000
    35 C35     -4.3048   5.3448  11.6126   C.2       1 RES1   0.0000
    36 N36     -4.9357   4.1693  11.3833   N.2       1 RES1   0.0000
    37 C37     -4.0957   3.2121  10.9584   C.2       1 RES1   0.0000
    38 S38     -2.4330   3.6897  10.8020   S.3       1 RES1   0.0000
    39 C39     -2.9398   5.2347  11.3387   C.2       1 RES1   0.0000
    40 C40     -2.1064   6.3527  11.5117   C.2       1 RES1   0.0000
@<TRIPOS>BOND
     1     1     2    1
     2     2     3    1
     3     3     4    1
     4     3     5    1
     5     5     6    1
     6     6     7    1
     7     7     8    1
     8     8     9    1
     9     8    10    1
    10    10    11    1
    11    11    12    1
    12    12    13    2
    13    13    14    1
    14    14    15    2
    15    15    16    1
    16    16    17    2
    17    10    18    1
    18    18    19   am
    19    19    20    2
    20    19    21    1
    21    21    22    1
    22    23    22    1
    23    23    24    1
    24    24    25    1
    25    25    26    1
    26    26    27    2
    27    26    28   am
    28     6    29    1
    29    29    30    2
    30    29    31    2
    31    29    32    1
    32    32    33    2
    33    33    34    1
    34    34    35    2
    35    35    36    1
    36    36    37    2
    37    37    38    1
    38    38    39    1
    39    39    40    2
    40    17    12    1
    41    28    23    1
    42    40    32    1
    43    39    35    1
@<TRIPOS>SUBSTRUCTURE
     1 RES1        1 GROUP             0 ****  ****    0  
@<TRIPOS>MOLECULE
ligand_28
    40    43     1     0     0
SMALL
NO_CHARGES
****
Generated from the CSD

@<TRIPOS>ATOM
     1 C1       2.1826  11.5188   9.8600   C.3       1 RES1   0.0000
     2 C2       0.7794  11.0178   9.5557   C.3       1 RES1   0.0000
     3 C3       0.6056   9.5086   9.7622   C.3       1 RES1   0.0000
     4 C4       1.4924   8.7399   8.7819   C.3       1 RES1   0.0000
     5 C5      -0.8905   9.1610   9.6677   C.3       1 RES1   0.0000
     6 N6      -1.6753   9.8096  10.7436   N.3       1 RES1   0.0000
     7 C7      -3.0007  10.2811  10.2617   C.3       1 RES1   0.0000
     8 C8      -2.8561  11.7191   9.7427   C.3       1 RES1   0.0000
     9 O9      -2.0225  12.4431  10.6526   O.3       1 RES1   0.0000
    10 C10     -2.2842  11.8041   8.3257   C.3       1 RES1   0.0000
    11 C11     -2.1003  13.2323   7.8034   C.3       1 RES1   0.0000
    12 C12     -1.3626  13.2445   6.4729   C.2       1 RES1   0.0000
    13 C13      0.0243  13.3284   6.4584   C.2       1 RES1   0.0000
    14 C14      0.7140  13.3358   5.2474   C.2       1 RES1   0.0000
    15 C15      0.0195  13.2524   4.0465   C.2       1 RES1   0.0000
    16 C16     -1.3676  13.1659   4.0591   C.2       1 RES1   0.0000
    17 C17     -2.0513  13.1547   5.2717   C.2       1 RES1   0.0000
    18 N18     -3.1540  11.0882   7.4064   N.am      1 RES1   0.0000
    19 C19     -2.7650  10.2016   6.4957   C.2       1 RES1   0.0000
    20 O20     -1.6161   9.8480   6.2870   O.2       1 RES1   0.0000
    21 O21     -3.8198   9.6486   5.6643   O.3       1 RES1   0.0000
    22 C22     -3.4962   8.7147   4.6330   C.3       1 RES1   0.0000
    23 C23     -4.8076   8.3404   3.9645   C.3       1 RES1   0.0000
    24 C24     -5.5943   9.6292   3.6603   C.3       1 RES1   0.0000
    25 C25     -6.5909   9.8515   4.8276   C.3       1 RES1   0.0000
    26 C26     -6.6176   8.5490   5.5744   C.2       1 RES1   0.0000
    27 O27     -7.3515   8.2628   6.4914   O.2       1 RES1   0.0000
    28 N28     -5.7060   7.7088   4.9892   N.am      1 RES1   0.0000
    29 S29     -1.7177   8.9551  12.1300   S.o2      1 RES1   0.0000
    30 O30     -2.2952   9.8019  13.1283   O.2       1 RES1   0.0000
    31 O31     -0.3516   8.5676  12.3931   O.2       1 RES1   0.0000
    32 C32     -2.6100   7.5844  11.9582   C.2       1 RES1   0.0000
    33 C33     -1.9551   6.4235  11.5419   C.2       1 RES1   0.0000
    34 C34     -2.6301   5.2089  11.4309   C.2       1 RES1   0.0000
    35 C35     -3.9779   5.1194  11.7141   C.2       1 RES1   0.0000
    36 N36     -4.8077   4.0510  11.6622   N.2       1 RES1   0.0000
    37 C37     -6.0670   4.3641  12.0063   C.2       1 RES1   0.0000
    38 S38     -6.3365   6.0267  12.4310   S.3       1 RES1   0.0000
    39 C39     -4.6698   6.2633  12.1176   C.2       1 RES1   0.0000
    40 C40     -3.9818   7.4826  12.2375   C.2       1 RES1   0.0000
@<TRIPOS>BOND
     1     1     2    1
     2     2     3    1
     3     3     4    1
     4     3     5    1
     5     5     6    1
     6     6     7    1
     7     7     8    1
     8     8     9    1
     9     8    10    1
    10    10    11    1
    11    11    12    1
    12    12    13    2
    13    13    14    1
    14    14    15    2
    15    15    16    1
    16    16    17    2
    17    10    18    1
    18    18    19   am
    19    19    20    2
    20    19    21    1
    21    21    22    1
    22    23    22    1
    23    23    24    1
    24    24    25    1
    25    25    26    1
    26    26    27    2
    27    26    28   am
    28     6    29    1
    29    29    30    2
    30    29    31    2
    31    29    32    1
    32    32    33    2
    33    33    34    1
    34    34    35    2
    35    35    36    1
    36    36    37    2
    37    37    38    1
    38    38    39    1
    39    39    40    2
    40    17    12    1
    41    28    23    1
    42    40    32    1
    43    39    35    1
@<TRIPOS>SUBSTRUCTURE
     1 RES1        1 GROUP             0 ****  ****    0  
@<TRIPOS>MOLECULE
ligand_29
    40    43     1     0     0
SMALL
NO_CHARGES
****
Generated from the CSD

@<TRIPOS>ATOM
     1 C1       1.5287  16.2986  10.4346   C.3       1 RES1   0.0000
     2 C2       1.1452  15.1767   9.4823   C.3       1 RES1   0.0000
     3 C3       1.7961  13.8307   9.8219   C.3       1 RES1   0.0000
     4 C4       3.3189  13.9534   9.7560   C.3       1 RES1   0.0000
     5 C5       1.2087  12.7461   8.9017   C.3       1 RES1   0.0000
     6 N6      -0.2406  12.5503   9.1372   N.3       1 RES1   0.0000
     7 C7      -1.0065  12.4647   7.8655   C.3       1 RES1   0.0000
     8 C8      -2.2818  13.3098   7.9975   C.3       1 RES1   0.0000
     9 O9      -1.8980  14.6725   8.2046   O.3       1 RES1   0.0000
    10 C10     -3.2138  13.2049   6.7882   C.3       1 RES1   0.0000
    11 C11     -4.4655  14.0833   6.8774   C.3       1 RES1   0.0000
    12 C12     -5.2469  14.0679   5.5720   C.2       1 RES1   0.0000
    13 C13     -4.9346  14.9837   4.5749   C.2       1 RES1   0.0000
    14 C14     -5.6385  14.9784   3.3721   C.2       1 RES1   0.0000
    15 C15     -6.6529  14.0525   3.1595   C.2       1 RES1   0.0000
    16 C16     -6.9649  13.1339   4.1548   C.2       1 RES1   0.0000
    17 C17     -6.2558  13.1409   5.3528   C.2       1 RES1   0.0000
    18 N18     -3.6343  11.8236   6.6167   N.am      1 RES1   0.0000
    19 C19     -3.2513  11.0077   5.6398   C.2       1 RES1   0.0000
    20 O20     -2.5110  11.2981   4.7145   O.2       1 RES1   0.0000
    21 O21     -3.8095   9.6675   5.6834   O.3       1 RES1   0.0000
    22 C22     -3.4688   8.7221   4.6681   C.3       1 RES1   0.0000
    23 C23     -4.7750   8.2975   4.0199   C.3       1 RES1   0.0000
    24 C24     -5.6143   9.5552   3.7260   C.3       1 RES1   0.0000
    25 C25     -6.6010   9.7417   4.9078   C.3       1 RES1   0.0000
    26 C26     -6.5672   8.4404   5.6565   C.2       1 RES1   0.0000
    27 O27     -7.2760   8.1284   6.5847   O.2       1 RES1   0.0000
    28 N28     -5.6335   7.6343   5.0586   N.am      1 RES1   0.0000
    29 S29     -0.5765  11.3773  10.2166   S.o2      1 RES1   0.0000
    30 O30     -1.9716  11.4717  10.5196   O.2       1 RES1   0.0000
    31 O31      0.2965  11.6186  11.3415   O.2       1 RES1   0.0000
    32 C32     -0.2233   9.8902   9.6099   C.2       1 RES1   0.0000
    33 C33     -1.2312   9.2029   8.9302   C.2       1 RES1   0.0000
    34 C34     -0.9925   7.9648   8.3358   C.2       1 RES1   0.0000
    35 C35      0.2498   7.3687   8.4158   C.2       1 RES1   0.0000
    36 N36      0.6787   6.1842   7.9204   N.2       1 RES1   0.0000
    37 C37      1.9661   5.9426   8.2146   C.2       1 RES1   0.0000
    38 S38      2.7677   7.1756   9.1387   S.3       1 RES1   0.0000
    39 C39      1.2779   8.0189   9.1016   C.2       1 RES1   0.0000
    40 C40      1.0341   9.2714   9.6899   C.2       1 RES1   0.0000
@<TRIPOS>BOND
     1     1     2    1
     2     2     3    1
     3     3     4    1
     4     3     5    1
     5     5     6    1
     6     6     7    1
     7     7     8    1
     8     8     9    1
     9     8    10    1
    10    10    11    1
    11    11    12    1
    12    12    13    2
    13    13    14    1
    14    14    15    2
    15    15    16    1
    16    16    17    2
    17    10    18    1
    18    18    19   am
    19    19    20    2
    20    19    21    1
    21    21    22    1
    22    23    22    1
    23    23    24    1
    24    24    25    1
    25    25    26    1
    26    26    27    2
    27    26    28   am
    28     6    29    1
    29    29    30    2
    30    29    31    2
    31    29    32    1
    32    32    33    2
    33    33    34    1
    34    34    35    2
    35    35    36    1
    36    36    37    2
    37    37    38    1
    38    38    39    1
    39    39    40    2
    40    17    12    1
    41    28    23    1
    42    40    32    1
    43    39    35    1
@<TRIPOS>SUBSTRUCTURE
     1 RES1        1 GROUP             0 ****  ****    0  
@<TRIPOS>MOLECULE
ligand_30
    40    43     1     0     0
SMALL
NO_CHARGES
****
Generated from the CSD

@<TRIPOS>ATOM
     1 C1       1.5282  16.2986  10.4356   C.3       1 RES1   0.0000
     2 C2       1.1451  15.1770   9.4828   C.3       1 RES1   0.0000
     3 C3       1.7961  13.8310   9.8220   C.3       1 RES1   0.0000
     4 C4       3.3189  13.9538   9.7559   C.3       1 RES1   0.0000
     5 C5       1.2088  12.7465   8.9015   C.3       1 RES1   0.0000
     6 N6      -0.2405  12.5505   9.1371   N.3       1 RES1   0.0000
     7 C7      -1.0065  12.4647   7.8655   C.3       1 RES1   0.0000
     8 C8      -2.2818  13.3098   7.9975   C.3       1 RES1   0.0000
     9 O9      -1.8980  14.6725   8.2046   O.3       1 RES1   0.0000
    10 C10     -3.2138  13.2049   6.7882   C.3       1 RES1   0.0000
    11 C11     -4.4655  14.0833   6.8774   C.3       1 RES1   0.0000
    12 C12     -5.2470  14.0678   5.5721   C.2       1 RES1   0.0000
    13 C13     -4.9347  14.9836   4.5749   C.2       1 RES1   0.0000
    14 C14     -5.6387  14.9782   3.3721   C.2       1 RES1   0.0000
    15 C15     -6.6530  14.0523   3.1596   C.2       1 RES1   0.0000
    16 C16     -6.9650  13.1337   4.1549   C.2       1 RES1   0.0000
    17 C17     -6.2559  13.1408   5.3529   C.2       1 RES1   0.0000
    18 N18     -3.6343  11.8236   6.6167   N.am      1 RES1   0.0000
    19 C19     -3.2512  11.0076   5.6399   C.2       1 RES1   0.0000
    20 O20     -2.5107  11.2980   4.7147   O.2       1 RES1   0.0000
    21 O21     -3.8094   9.6674   5.6834   O.3       1 RES1   0.0000
    22 C22     -3.4684   8.7220   4.6684   C.3       1 RES1   0.0000
    23 C23     -4.7744   8.2975   4.0197   C.3       1 RES1   0.0000
    24 C24     -5.6135   9.5552   3.7255   C.3       1 RES1   0.0000
    25 C25     -6.6006   9.7418   4.9070   C.3       1 RES1   0.0000
    26 C26     -6.5673   8.4405   5.6557   C.2       1 RES1   0.0000
    27 O27     -7.2764   8.1286   6.5837   O.2       1 RES1   0.0000
    28 N28     -5.6334   7.6343   5.0581   N.am      1 RES1   0.0000
    29 S29     -0.5761  11.3773  10.2165   S.o2      1 RES1   0.0000
    30 O30     -1.9688  11.4787  10.5282   O.2       1 RES1   0.0000
    31 O31      0.3050  11.6120  11.3365   O.2       1 RES1   0.0000
    32 C32     -0.2346   9.8894   9.6051   C.2       1 RES1   0.0000
    33 C33      1.0488   9.3768   9.8057   C.2       1 RES1   0.0000
    34 C34      1.3967   8.0990   9.3706   C.2       1 RES1   0.0000
    35 C35      0.4834   7.3031   8.7092   C.2       1 RES1   0.0000
    36 N36      0.6228   6.0539   8.2066   N.2       1 RES1   0.0000
    37 C37     -0.5000   5.6104   7.6193   C.2       1 RES1   0.0000
    38 S38     -1.8421   6.7129   7.6399   S.3       1 RES1   0.0000
    39 C39     -0.8051   7.7886   8.4762   C.2       1 RES1   0.0000
    40 C40     -1.1529   9.0735   8.9262   C.2       1 RES1   0.0000
@<TRIPOS>BOND
     1     1     2    1
     2     2     3    1
     3     3     4    1
     4     3     5    1
     5     5     6    1
     6     6     7    1
     7     7     8    1
     8     8     9    1
     9     8    10    1
    10    10    11    1
    11    11    12    1
    12    12    13    2
    13    13    14    1
    14    14    15    2
    15    15    16    1
    16    16    17    2
    17    10    18    1
    18    18    19   am
    19    19    20    2
    20    19    21    1
    21    21    22    1
    22    23    22    1
    23    23    24    1
    24    24    25    1
    25    25    26    1
    26    26    27    2
    27    26    28   am
    28     6    29    1
    29    29    30    2
    30    29    31    2
    31    29    32    1
    32    32    33    2
    33    33    34    1
    34    34    35    2
    35    35    36    1
    36    36    37    2
    37    37    38    1
    38    38    39    1
    39    39    40    2
    40    17    12    1
    41    28    23    1
    42    40    32    1
    43    39    35    1
@<TRIPOS>SUBSTRUCTURE
     1 RES1        1 GROUP             0 ****  ****    0  
@<TRIPOS>MOLECULE
ligand_31
    40    43     1     0     0
SMALL
NO_CHARGES
****
Generated from the CSD

@<TRIPOS>ATOM
     1 C1       0.1206  10.8659  14.5397   C.3       1 RES1   0.0000
     2 C2       0.0724  10.4323  13.0828   C.3       1 RES1   0.0000
     3 C3       0.0406   8.9112  12.8934   C.3       1 RES1   0.0000
     4 C4       1.2985   8.2819  13.4934   C.3       1 RES1   0.0000
     5 C5      -0.1731   8.5985  11.4019   C.3       1 RES1   0.0000
     6 N6      -1.4890   9.0800  10.9215   N.3       1 RES1   0.0000
     7 C7      -1.3853   9.7737   9.6104   C.3       1 RES1   0.0000
     8 C8      -2.2361  11.0512   9.6573   C.3       1 RES1   0.0000
     9 O9      -1.7140  11.9011  10.6830   O.3       1 RES1   0.0000
    10 C10     -2.2842  11.8041   8.3257   C.3       1 RES1   0.0000
    11 C11     -2.7593  13.2560   8.4379   C.3       1 RES1   0.0000
    12 C12     -2.6076  13.9920   7.1149   C.2       1 RES1   0.0000
    13 C13     -1.4240  14.6642   6.8359   C.2       1 RES1   0.0000
    14 C14     -1.2688  15.3386   5.6262   C.2       1 RES1   0.0000
    15 C15     -2.2943  15.3375   4.6883   C.2       1 RES1   0.0000
    16 C16     -3.4780  14.6635   4.9646   C.2       1 RES1   0.0000
    17 C17     -3.6262  13.9879   6.1728   C.2       1 RES1   0.0000
    18 N18     -3.1630  11.1041   7.4027   N.am      1 RES1   0.0000
    19 C19     -2.7839  10.2268   6.4789   C.2       1 RES1   0.0000
    20 O20     -1.6384   9.8670   6.2618   O.2       1 RES1   0.0000
    21 O21     -3.8455   9.6934   5.6435   O.3       1 RES1   0.0000
    22 C22     -3.5314   8.7782   4.5927   C.3       1 RES1   0.0000
    23 C23     -4.8485   8.4185   3.9274   C.3       1 RES1   0.0000
    24 C24     -5.6352   9.7140   3.6530   C.3       1 RES1   0.0000
    25 C25     -6.6226   9.9163   4.8318   C.3       1 RES1   0.0000
    26 C26     -6.6459   8.6003   5.5546   C.2       1 RES1   0.0000
    27 O27     -7.3733   8.2985   6.4718   O.2       1 RES1   0.0000
    28 N28     -5.7403   7.7696   4.9471   N.am      1 RES1   0.0000
    29 S29     -2.6686   7.9600  11.0097   S.o2      1 RES1   0.0000
    30 O30     -3.9046   8.6290  10.7412   O.2       1 RES1   0.0000
    31 O31     -2.5722   7.3930  12.3345   O.2       1 RES1   0.0000
    32 C32     -2.4254   6.7513   9.9214   C.2       1 RES1   0.0000
    33 C33     -1.6660   5.6503  10.3229   C.2       1 RES1   0.0000
    34 C34     -1.4659   4.5593   9.4787   C.2       1 RES1   0.0000
    35 C35     -2.0009   4.5408   8.2066   C.2       1 RES1   0.0000
    36 N36     -1.9180   3.5939   7.2427   N.2       1 RES1   0.0000
    37 C37     -2.5706   3.9449   6.1231   C.2       1 RES1   0.0000
    38 S38     -3.3544   5.4943   6.1673   S.3       1 RES1   0.0000
    39 C39     -2.7525   5.6316   7.7644   C.2       1 RES1   0.0000
    40 C40     -2.9593   6.7240   8.6236   C.2       1 RES1   0.0000
@<TRIPOS>BOND
     1     1     2    1
     2     2     3    1
     3     3     4    1
     4     3     5    1
     5     5     6    1
     6     6     7    1
     7     7     8    1
     8     8     9    1
     9     8    10    1
    10    10    11    1
    11    11    12    1
    12    12    13    2
    13    13    14    1
    14    14    15    2
    15    15    16    1
    16    16    17    2
    17    10    18    1
    18    18    19   am
    19    19    20    2
    20    19    21    1
    21    21    22    1
    22    23    22    1
    23    23    24    1
    24    24    25    1
    25    25    26    1
    26    26    27    2
    27    26    28   am
    28     6    29    1
    29    29    30    2
    30    29    31    2
    31    29    32    1
    32    32    33    2
    33    33    34    1
    34    34    35    2
    35    35    36    1
    36    36    37    2
    37    37    38    1
    38    38    39    1
    39    39    40    2
    40    17    12    1
    41    28    23    1
    42    40    32    1
    43    39    35    1
@<TRIPOS>SUBSTRUCTURE
     1 RES1        1 GROUP             0 ****  ****    0  
@<TRIPOS>MOLECULE
ligand_32
    40    43     1     0     0
SMALL
NO_CHARGES
****
Generated from the CSD

@<TRIPOS>ATOM
     1 C1      -1.2186  15.2806  12.3288   C.3       1 RES1   0.0000
     2 C2      -0.9320  14.7970  10.9157   C.3       1 RES1   0.0000
     3 C3       0.4884  14.2516  10.7273   C.3       1 RES1   0.0000
     4 C4       1.5136  15.3513  11.0066   C.3       1 RES1   0.0000
     5 C5       0.6002  13.6239   9.3267   C.3       1 RES1   0.0000
     6 N6      -0.2989  12.4567   9.1733   N.3       1 RES1   0.0000
     7 C7      -1.0065  12.4647   7.8655   C.3       1 RES1   0.0000
     8 C8      -2.2818  13.3098   7.9975   C.3       1 RES1   0.0000
     9 O9      -1.8980  14.6725   8.2046   O.3       1 RES1   0.0000
    10 C10     -3.2138  13.2049   6.7882   C.3       1 RES1   0.0000
    11 C11     -4.4655  14.0833   6.8774   C.3       1 RES1   0.0000
    12 C12     -5.2469  14.0678   5.5720   C.2       1 RES1   0.0000
    13 C13     -4.9347  14.9837   4.5749   C.2       1 RES1   0.0000
    14 C14     -5.6386  14.9783   3.3721   C.2       1 RES1   0.0000
    15 C15     -6.6529  14.0524   3.1595   C.2       1 RES1   0.0000
    16 C16     -6.9650  13.1338   4.1548   C.2       1 RES1   0.0000
    17 C17     -6.2559  13.1409   5.3528   C.2       1 RES1   0.0000
    18 N18     -3.6343  11.8236   6.6167   N.am      1 RES1   0.0000
    19 C19     -3.2513  11.0077   5.6397   C.2       1 RES1   0.0000
    20 O20     -2.5110  11.2982   4.7144   O.2       1 RES1   0.0000
    21 O21     -3.8095   9.6675   5.6833   O.3       1 RES1   0.0000
    22 C22     -3.4689   8.7222   4.6680   C.3       1 RES1   0.0000
    23 C23     -4.7751   8.2976   4.0199   C.3       1 RES1   0.0000
    24 C24     -5.6145   9.5552   3.7262   C.3       1 RES1   0.0000
    25 C25     -6.6011   9.7417   4.9082   C.3       1 RES1   0.0000
    26 C26     -6.5672   8.4403   5.6567   C.2       1 RES1   0.0000
    27 O27     -7.2759   8.1282   6.5850   O.2       1 RES1   0.0000
    28 N28     -5.6335   7.6342   5.0587   N.am      1 RES1   0.0000
    29 S29      0.3982  11.0369   9.5634   S.o2      1 RES1   0.0000
    30 O30     -0.6427  10.0563   9.6108   O.2       1 RES1   0.0000
    31 O31      1.0648  11.2614  10.8248   O.2       1 RES1   0.0000
    32 C32      1.5367  10.6080   8.4570   C.2       1 RES1   0.0000
    33 C33      1.1324   9.8368   7.3653   C.2       1 RES1   0.0000
    34 C34      2.0255   9.4841   6.3547   C.2       1 RES1   0.0000
    35 C35      3.3483   9.8741   6.4108   C.2       1 RES1   0.0000
    36 N36      4.3627   9.6325   5.5476   N.2       1 RES1   0.0000
    37 C37      5.5208  10.1767   5.9540   C.2       1 RES1   0.0000
    38 S38      5.4537  11.0463   7.4561   S.3       1 RES1   0.0000
    39 C39      3.7927  10.6324   7.4959   C.2       1 RES1   0.0000
    40 C40      2.8855  10.9935   8.5064   C.2       1 RES1   0.0000
@<TRIPOS>BOND
     1     1     2    1
     2     2     3    1
     3     3     4    1
     4     3     5    1
     5     5     6    1
     6     6     7    1
     7     7     8    1
     8     8     9    1
     9     8    10    1
    10    10    11    1
    11    11    12    1
    12    12    13    2
    13    13    14    1
    14    14    15    2
    15    15    16    1
    16    16    17    2
    17    10    18    1
    18    18    19   am
    19    19    20    2
    20    19    21    1
    21    21    22    1
    22    23    22    1
    23    23    24    1
    24    24    25    1
    25    25    26    1
    26    26    27    2
    27    26    28   am
    28     6    29    1
    29    29    30    2
    30    29    31    2
    31    29    32    1
    32    32    33    2
    33    33    34    1
    34    34    35    2
    35    35    36    1
    36    36    37    2
    37    37    38    1
    38    38    39    1
    39    39    40    2
    40    17    12    1
    41    28    23    1
    42    40    32    1
    43    39    35    1
@<TRIPOS>SUBSTRUCTURE
     1 RES1        1 GROUP             0 ****  ****    0  
@<TRIPOS>MOLECULE
ligand_33
    40    43     1     0     0
SMALL
NO_CHARGES
****
Generated from the CSD

@<TRIPOS>ATOM
     1 C1      -1.2186  15.2806  12.3288   C.3       1 RES1   0.0000
     2 C2      -0.9320  14.7970  10.9157   C.3       1 RES1   0.0000
     3 C3       0.4884  14.2516  10.7273   C.3       1 RES1   0.0000
     4 C4       1.5136  15.3513  11.0066   C.3       1 RES1   0.0000
     5 C5       0.6002  13.6239   9.3267   C.3       1 RES1   0.0000
     6 N6      -0.2989  12.4567   9.1733   N.3       1 RES1   0.0000
     7 C7      -1.0065  12.4647   7.8655   C.3       1 RES1   0.0000
     8 C8      -2.2818  13.3098   7.9975   C.3       1 RES1   0.0000
     9 O9      -1.8980  14.6725   8.2046   O.3       1 RES1   0.0000
    10 C10     -3.2138  13.2049   6.7882   C.3       1 RES1   0.0000
    11 C11     -4.4655  14.0833   6.8774   C.3       1 RES1   0.0000
    12 C12     -5.2469  14.0678   5.5720   C.2       1 RES1   0.0000
    13 C13     -4.9347  14.9837   4.5749   C.2       1 RES1   0.0000
    14 C14     -5.6386  14.9783   3.3721   C.2       1 RES1   0.0000
    15 C15     -6.6529  14.0524   3.1595   C.2       1 RES1   0.0000
    16 C16     -6.9650  13.1338   4.1548   C.2       1 RES1   0.0000
    17 C17     -6.2559  13.1409   5.3528   C.2       1 RES1   0.0000
    18 N18     -3.6343  11.8236   6.6167   N.am      1 RES1   0.0000
    19 C19     -3.2513  11.0077   5.6397   C.2       1 RES1   0.0000
    20 O20     -2.5110  11.2982   4.7144   O.2       1 RES1   0.0000
    21 O21     -3.8095   9.6675   5.6833   O.3       1 RES1   0.0000
    22 C22     -3.4689   8.7222   4.6680   C.3       1 RES1   0.0000
    23 C23     -4.7751   8.2976   4.0199   C.3       1 RES1   0.0000
    24 C24     -5.6145   9.5552   3.7262   C.3       1 RES1   0.0000
    25 C25     -6.6011   9.7417   4.9082   C.3       1 RES1   0.0000
    26 C26     -6.5672   8.4403   5.6567   C.2       1 RES1   0.0000
    27 O27     -7.2759   8.1282   6.5850   O.2       1 RES1   0.0000
    28 N28     -5.6335   7.6342   5.0587   N.am      1 RES1   0.0000
    29 S29      0.3982  11.0369   9.5634   S.o2      1 RES1   0.0000
    30 O30     -0.6427  10.0563   9.6108   O.2       1 RES1   0.0000
    31 O31      1.0648  11.2614  10.8248   O.2       1 RES1   0.0000
    32 C32      1.5367  10.6080   8.4570   C.2       1 RES1   0.0000
    33 C33      2.8490  11.0371   8.6663   C.2       1 RES1   0.0000
    34 C34      3.8809  10.6647   7.8062   C.2       1 RES1   0.0000
    35 C35      3.6330   9.8698   6.7055   C.2       1 RES1   0.0000
    36 N36      4.4824   9.4092   5.7573   N.2       1 RES1   0.0000
    37 C37      3.8594   8.6635   4.8309   C.2       1 RES1   0.0000
    38 S38      2.1487   8.4636   5.0565   S.3       1 RES1   0.0000
    39 C39      2.3298   9.4349   6.4549   C.2       1 RES1   0.0000
    40 C40      1.2957   9.8052   7.3311   C.2       1 RES1   0.0000
@<TRIPOS>BOND
     1     1     2    1
     2     2     3    1
     3     3     4    1
     4     3     5    1
     5     5     6    1
     6     6     7    1
     7     7     8    1
     8     8     9    1
     9     8    10    1
    10    10    11    1
    11    11    12    1
    12    12    13    2
    13    13    14    1
    14    14    15    2
    15    15    16    1
    16    16    17    2
    17    10    18    1
    18    18    19   am
    19    19    20    2
    20    19    21    1
    21    21    22    1
    22    23    22    1
    23    23    24    1
    24    24    25    1
    25    25    26    1
    26    26    27    2
    27    26    28   am
    28     6    29    1
    29    29    30    2
    30    29    31    2
    31    29    32    1
    32    32    33    2
    33    33    34    1
    34    34    35    2
    35    35    36    1
    36    36    37    2
    37    37    38    1
    38    38    39    1
    39    39    40    2
    40    17    12    1
    41    28    23    1
    42    40    32    1
    43    39    35    1
@<TRIPOS>SUBSTRUCTURE
     1 RES1        1 GROUP             0 ****  ****    0  
@<TRIPOS>MOLECULE
ligand_34
    40    43     1     0     0
SMALL
NO_CHARGES
****
Generated from the CSD

@<TRIPOS>ATOM
     1 C1       3.8928  11.8811   6.3016   C.3       1 RES1   0.0000
     2 C2       2.5561  11.9270   5.5778   C.3       1 RES1   0.0000
     3 C3       1.4919  12.7603   6.3015   C.3       1 RES1   0.0000
     4 C4       1.1582  12.1255   7.6521   C.3       1 RES1   0.0000
     5 C5       0.2799  12.9392   5.3702   C.3       1 RES1   0.0000
     6 N6       0.6310  13.7030   4.1505   N.3       1 RES1   0.0000
     7 C7      -0.0576  13.1747   2.9431   C.3       1 RES1   0.0000
     8 C8       0.8238  12.0914   2.3046   C.3       1 RES1   0.0000
     9 O9       2.1805  12.5451   2.3276   O.3       1 RES1   0.0000
    10 C10      0.7141  10.7287   2.9925   C.3       1 RES1   0.0000
    11 C11      1.6123   9.6435   2.3911   C.3       1 RES1   0.0000
    12 C12      1.5892   8.3763   3.2329   C.2       1 RES1   0.0000
    13 C13      2.5116   8.2182   4.2599   C.2       1 RES1   0.0000
    14 C14      2.4993   7.0651   5.0424   C.2       1 RES1   0.0000
    15 C15      1.5600   6.0687   4.8050   C.2       1 RES1   0.0000
    16 C16      0.6349   6.2262   3.7798   C.2       1 RES1   0.0000
    17 C17      0.6489   7.3820   3.0038   C.2       1 RES1   0.0000
    18 N18     -0.6632  10.2659   2.9382   N.am      1 RES1   0.0000
    19 C19     -1.3639   9.7821   3.9590   C.2       1 RES1   0.0000
    20 O20     -0.9619   9.6497   5.1033   O.2       1 RES1   0.0000
    21 O21     -2.7133   9.3456   3.6459   O.3       1 RES1   0.0000
    22 C22     -3.5322   8.7777   4.6694   C.3       1 RES1   0.0000
    23 C23     -4.8599   8.4342   4.0169   C.3       1 RES1   0.0000
    24 C24     -5.6276   9.7401   3.7377   C.3       1 RES1   0.0000
    25 C25     -6.6025   9.9680   4.9220   C.3       1 RES1   0.0000
    26 C26     -6.6418   8.6585   5.6558   C.2       1 RES1   0.0000
    27 O27     -7.3671   8.3760   6.5808   O.2       1 RES1   0.0000
    28 N28     -5.7544   7.8082   5.0484   N.am      1 RES1   0.0000
    29 S29      0.5353  15.3184   4.3388   S.o2      1 RES1   0.0000
    30 O30      1.1239  15.9125   3.1779   O.2       1 RES1   0.0000
    31 O31      1.2251  15.6102   5.5737   O.2       1 RES1   0.0000
    32 C32     -1.0261  15.8080   4.5016   C.2       1 RES1   0.0000
    33 C33     -1.7330  16.1408   3.3442   C.2       1 RES1   0.0000
    34 C34     -3.0772  16.5067   3.3941   C.2       1 RES1   0.0000
    35 C35     -3.7501  16.5682   4.5976   C.2       1 RES1   0.0000
    36 N36     -5.0355  16.9034   4.8583   N.2       1 RES1   0.0000
    37 C37     -5.3215  16.8534   6.1691   C.2       1 RES1   0.0000
    38 S38     -4.0099  16.3798   7.2047   S.3       1 RES1   0.0000
    39 C39     -3.0711  16.2582   5.7779   C.2       1 RES1   0.0000
    40 C40     -1.7190  15.8802   5.7201   C.2       1 RES1   0.0000
@<TRIPOS>BOND
     1     1     2    1
     2     2     3    1
     3     3     4    1
     4     3     5    1
     5     5     6    1
     6     6     7    1
     7     7     8    1
     8     8     9    1
     9     8    10    1
    10    10    11    1
    11    11    12    1
    12    12    13    2
    13    13    14    1
    14    14    15    2
    15    15    16    1
    16    16    17    2
    17    10    18    1
    18    18    19   am
    19    19    20    2
    20    19    21    1
    21    21    22    1
    22    23    22    1
    23    23    24    1
    24    24    25    1
    25    25    26    1
    26    26    27    2
    27    26    28   am
    28     6    29    1
    29    29    30    2
    30    29    31    2
    31    29    32    1
    32    32    33    2
    33    33    34    1
    34    34    35    2
    35    35    36    1
    36    36    37    2
    37    37    38    1
    38    38    39    1
    39    39    40    2
    40    17    12    1
    41    28    23    1
    42    40    32    1
    43    39    35    1
@<TRIPOS>SUBSTRUCTURE
     1 RES1        1 GROUP             0 ****  ****    0  
@<TRIPOS>MOLECULE
ligand_35
    40    43     1     0     0
SMALL
NO_CHARGES
****
Generated from the CSD

@<TRIPOS>ATOM
     1 C1       3.8928  11.8811   6.3016   C.3       1 RES1   0.0000
     2 C2       2.5561  11.9270   5.5778   C.3       1 RES1   0.0000
     3 C3       1.4919  12.7603   6.3015   C.3       1 RES1   0.0000
     4 C4       1.1582  12.1255   7.6521   C.3       1 RES1   0.0000
     5 C5       0.2799  12.9392   5.3702   C.3       1 RES1   0.0000
     6 N6       0.6310  13.7030   4.1505   N.3       1 RES1   0.0000
     7 C7      -0.0576  13.1747   2.9431   C.3       1 RES1   0.0000
     8 C8       0.8238  12.0914   2.3046   C.3       1 RES1   0.0000
     9 O9       2.1805  12.5451   2.3276   O.3       1 RES1   0.0000
    10 C10      0.7141  10.7287   2.9925   C.3       1 RES1   0.0000
    11 C11      1.6123   9.6435   2.3911   C.3       1 RES1   0.0000
    12 C12      1.5892   8.3763   3.2329   C.2       1 RES1   0.0000
    13 C13      2.5116   8.2182   4.2599   C.2       1 RES1   0.0000
    14 C14      2.4993   7.0651   5.0424   C.2       1 RES1   0.0000
    15 C15      1.5600   6.0687   4.8050   C.2       1 RES1   0.0000
    16 C16      0.6349   6.2262   3.7798   C.2       1 RES1   0.0000
    17 C17      0.6489   7.3820   3.0038   C.2       1 RES1   0.0000
    18 N18     -0.6632  10.2659   2.9382   N.am      1 RES1   0.0000
    19 C19     -1.3639   9.7821   3.9590   C.2       1 RES1   0.0000
    20 O20     -0.9619   9.6497   5.1033   O.2       1 RES1   0.0000
    21 O21     -2.7133   9.3456   3.6459   O.3       1 RES1   0.0000
    22 C22     -3.5322   8.7777   4.6694   C.3       1 RES1   0.0000
    23 C23     -4.8599   8.4342   4.0169   C.3       1 RES1   0.0000
    24 C24     -5.6276   9.7401   3.7377   C.3       1 RES1   0.0000
    25 C25     -6.6025   9.9680   4.9220   C.3       1 RES1   0.0000
    26 C26     -6.6418   8.6585   5.6558   C.2       1 RES1   0.0000
    27 O27     -7.3671   8.3760   6.5808   O.2       1 RES1   0.0000
    28 N28     -5.7544   7.8082   5.0484   N.am      1 RES1   0.0000
    29 S29      0.5353  15.3184   4.3388   S.o2      1 RES1   0.0000
    30 O30      1.1239  15.9125   3.1779   O.2       1 RES1   0.0000
    31 O31      1.2251  15.6102   5.5737   O.2       1 RES1   0.0000
    32 C32     -1.0261  15.8080   4.5016   C.2       1 RES1   0.0000
    33 C33     -1.5644  15.8658   5.7888   C.2       1 RES1   0.0000
    34 C34     -2.8602  16.3278   6.0141   C.2       1 RES1   0.0000
    35 C35     -3.6616  16.7285   4.9642   C.2       1 RES1   0.0000
    36 N36     -4.9324  17.1950   4.9700   N.2       1 RES1   0.0000
    37 C37     -5.3802  17.4752   3.7357   C.2       1 RES1   0.0000
    38 S38     -4.2537  17.1842   2.4460   S.3       1 RES1   0.0000
    39 C39     -3.1628  16.6693   3.6612   C.2       1 RES1   0.0000
    40 C40     -1.8524  16.2123   3.4414   C.2       1 RES1   0.0000
@<TRIPOS>BOND
     1     1     2    1
     2     2     3    1
     3     3     4    1
     4     3     5    1
     5     5     6    1
     6     6     7    1
     7     7     8    1
     8     8     9    1
     9     8    10    1
    10    10    11    1
    11    11    12    1
    12    12    13    2
    13    13    14    1
    14    14    15    2
    15    15    16    1
    16    16    17    2
    17    10    18    1
    18    18    19   am
    19    19    20    2
    20    19    21    1
    21    21    22    1
    22    23    22    1
    23    23    24    1
    24    24    25    1
    25    25    26    1
    26    26    27    2
    27    26    28   am
    28     6    29    1
    29    29    30    2
    30    29    31    2
    31    29    32    1
    32    32    33    2
    33    33    34    1
    34    34    35    2
    35    35    36    1
    36    36    37    2
    37    37    38    1
    38    38    39    1
    39    39    40    2
    40    17    12    1
    41    28    23    1
    42    40    32    1
    43    39    35    1
@<TRIPOS>SUBSTRUCTURE
     1 RES1        1 GROUP             0 ****  ****    0  
@<TRIPOS>MOLECULE
ligand_36
    40    43     1     0     0
SMALL
NO_CHARGES
****
Generated from the CSD

@<TRIPOS>ATOM
     1 C1       2.8532  17.1818   2.1680   C.3       1 RES1   0.0000
     2 C2       2.2536  16.1215   3.0785   C.3       1 RES1   0.0000
     3 C3       1.0345  16.6075   3.8709   C.3       1 RES1   0.0000
     4 C4       1.4294  17.7742   4.7772   C.3       1 RES1   0.0000
     5 C5       0.4133  15.4117   4.6141   C.3       1 RES1   0.0000
     6 N6      -0.1108  14.3925   3.6757   N.3       1 RES1   0.0000
     7 C7       0.2785  13.0137   4.0740   C.3       1 RES1   0.0000
     8 C8       0.7423  12.2497   2.8253   C.3       1 RES1   0.0000
     9 O9       2.0663  12.6832   2.4997   O.3       1 RES1   0.0000
    10 C10      0.7141  10.7287   2.9925   C.3       1 RES1   0.0000
    11 C11      1.5421   9.9639   1.9553   C.3       1 RES1   0.0000
    12 C12      1.6169   8.4817   2.2903   C.2       1 RES1   0.0000
    13 C13      2.6491   8.0111   3.0927   C.2       1 RES1   0.0000
    14 C14      2.7278   6.6569   3.4119   C.2       1 RES1   0.0000
    15 C15      1.7705   5.7692   2.9355   C.2       1 RES1   0.0000
    16 C16      0.7357   6.2385   2.1349   C.2       1 RES1   0.0000
    17 C17      0.6596   7.5930   1.8224   C.2       1 RES1   0.0000
    18 N18     -0.6594  10.2569   2.9210   N.am      1 RES1   0.0000
    19 C19     -1.3700   9.7698   3.9333   C.2       1 RES1   0.0000
    20 O20     -0.9821   9.6415   5.0829   O.2       1 RES1   0.0000
    21 O21     -2.7124   9.3240   3.6033   O.3       1 RES1   0.0000
    22 C22     -3.5407   8.7521   4.6169   C.3       1 RES1   0.0000
    23 C23     -4.8576   8.3990   3.9477   C.3       1 RES1   0.0000
    24 C24     -5.6301   9.6994   3.6568   C.3       1 RES1   0.0000
    25 C25     -6.6218   9.9225   4.8281   C.3       1 RES1   0.0000
    26 C26     -6.6620   8.6136   5.5631   C.2       1 RES1   0.0000
    27 O27     -7.3973   8.3275   6.4790   O.2       1 RES1   0.0000
    28 N28     -5.7613   7.7684   4.9684   N.am      1 RES1   0.0000
    29 S29     -1.6894  14.5799   3.3194   S.o2      1 RES1   0.0000
    30 O30     -1.9847  13.6914   2.2375   O.2       1 RES1   0.0000
    31 O31     -1.8564  15.9796   3.0051   O.2       1 RES1   0.0000
    32 C32     -2.6384  14.2344   4.6173   C.2       1 RES1   0.0000
    33 C33     -3.0884  12.9212   4.7695   C.2       1 RES1   0.0000
    34 C34     -3.8462  12.5366   5.8745   C.2       1 RES1   0.0000
    35 C35     -4.1916  13.4509   6.8491   C.2       1 RES1   0.0000
    36 N36     -4.9169  13.2834   7.9797   N.2       1 RES1   0.0000
    37 C37     -5.0467  14.4228   8.6779   C.2       1 RES1   0.0000
    38 S38     -4.2715  15.8161   7.9889   S.3       1 RES1   0.0000
    39 C39     -3.7732  14.7772   6.7223   C.2       1 RES1   0.0000
    40 C40     -3.0009  15.1565   5.6114   C.2       1 RES1   0.0000
@<TRIPOS>BOND
     1     1     2    1
     2     2     3    1
     3     3     4    1
     4     3     5    1
     5     5     6    1
     6     6     7    1
     7     7     8    1
     8     8     9    1
     9     8    10    1
    10    10    11    1
    11    11    12    1
    12    12    13    2
    13    13    14    1
    14    14    15    2
    15    15    16    1
    16    16    17    2
    17    10    18    1
    18    18    19   am
    19    19    20    2
    20    19    21    1
    21    21    22    1
    22    23    22    1
    23    23    24    1
    24    24    25    1
    25    25    26    1
    26    26    27    2
    27    26    28   am
    28     6    29    1
    29    29    30    2
    30    29    31    2
    31    29    32    1
    32    32    33    2
    33    33    34    1
    34    34    35    2
    35    35    36    1
    36    36    37    2
    37    37    38    1
    38    38    39    1
    39    39    40    2
    40    17    12    1
    41    28    23    1
    42    40    32    1
    43    39    35    1
@<TRIPOS>SUBSTRUCTURE
     1 RES1        1 GROUP             0 ****  ****    0  
@<TRIPOS>MOLECULE
ligand_37
    40    43     1     0     0
SMALL
NO_CHARGES
****
Generated from the CSD

@<TRIPOS>ATOM
     1 C1      -3.9756   7.0088  12.7418   C.3       1 RES1   0.0000
     2 C2      -4.3454   8.2849  12.0019   C.3       1 RES1   0.0000
     3 C3      -5.0777   9.3121  12.8733   C.3       1 RES1   0.0000
     4 C4      -6.3873   8.7190  13.3942   C.3       1 RES1   0.0000
     5 C5      -5.2481  10.6150  12.0722   C.3       1 RES1   0.0000
     6 N6      -3.9431  11.2364  11.7480   N.3       1 RES1   0.0000
     7 C7      -3.8767  11.6905  10.3336   C.3       1 RES1   0.0000
     8 C8      -2.5165  11.2860   9.7469   C.3       1 RES1   0.0000
     9 O9      -2.4240   9.8584   9.7701   O.3       1 RES1   0.0000
    10 C10     -2.2842  11.8041   8.3257   C.3       1 RES1   0.0000
    11 C11     -2.5070  13.3103   8.1582   C.3       1 RES1   0.0000
    12 C12     -2.0832  13.7823   6.7753   C.2       1 RES1   0.0000
    13 C13     -0.7767  14.2062   6.5659   C.2       1 RES1   0.0000
    14 C14     -0.3728  14.6367   5.3035   C.2       1 RES1   0.0000
    15 C15     -1.2723  14.6384   4.2442   C.2       1 RES1   0.0000
    16 C16     -2.5790  14.2123   4.4512   C.2       1 RES1   0.0000
    17 C17     -2.9761  13.7794   5.7133   C.2       1 RES1   0.0000
    18 N18     -3.1644  11.1051   7.4033   N.am      1 RES1   0.0000
    19 C19     -2.7881  10.2186   6.4871   C.2       1 RES1   0.0000
    20 O20     -1.6441   9.8510   6.2752   O.2       1 RES1   0.0000
    21 O21     -3.8509   9.6843   5.6538   O.3       1 RES1   0.0000
    22 C22     -3.5407   8.7521   4.6169   C.3       1 RES1   0.0000
    23 C23     -4.8576   8.3990   3.9477   C.3       1 RES1   0.0000
    24 C24     -5.6277   9.6998   3.6518   C.3       1 RES1   0.0000
    25 C25     -6.6200   9.9283   4.8215   C.3       1 RES1   0.0000
    26 C26     -6.6630   8.6219   5.5608   C.2       1 RES1   0.0000
    27 O27     -7.3997   8.3402   6.4769   O.2       1 RES1   0.0000
    28 N28     -5.7632   7.7733   4.9697   N.am      1 RES1   0.0000
    29 S29     -3.4524  12.3389  12.8424   S.o2      1 RES1   0.0000
    30 O30     -2.0936  12.6628  12.5327   O.2       1 RES1   0.0000
    31 O31     -3.6390  11.7190  14.1334   O.2       1 RES1   0.0000
    32 C32     -4.3882  13.6900  12.7881   C.2       1 RES1   0.0000
    33 C33     -3.9931  14.7277  11.9412   C.2       1 RES1   0.0000
    34 C34     -4.7648  15.8793  11.7947   C.2       1 RES1   0.0000
    35 C35     -5.9410  16.0379  12.4991   C.2       1 RES1   0.0000
    36 N36     -6.8188  17.0685  12.5041   N.2       1 RES1   0.0000
    37 C37     -7.8519  16.8567  13.3348   C.2       1 RES1   0.0000
    38 S38     -7.8277  15.3452  14.1904   S.3       1 RES1   0.0000
    39 C39     -6.3597  15.0281  13.3682   C.2       1 RES1   0.0000
    40 C40     -5.5828  13.8651  13.5039   C.2       1 RES1   0.0000
@<TRIPOS>BOND
     1     1     2    1
     2     2     3    1
     3     3     4    1
     4     3     5    1
     5     5     6    1
     6     6     7    1
     7     7     8    1
     8     8     9    1
     9     8    10    1
    10    10    11    1
    11    11    12    1
    12    12    13    2
    13    13    14    1
    14    14    15    2
    15    15    16    1
    16    16    17    2
    17    10    18    1
    18    18    19   am
    19    19    20    2
    20    19    21    1
    21    21    22    1
    22    23    22    1
    23    23    24    1
    24    24    25    1
    25    25    26    1
    26    26    27    2
    27    26    28   am
    28     6    29    1
    29    29    30    2
    30    29    31    2
    31    29    32    1
    32    32    33    2
    33    33    34    1
    34    34    35    2
    35    35    36    1
    36    36    37    2
    37    37    38    1
    38    38    39    1
    39    39    40    2
    40    17    12    1
    41    28    23    1
    42    40    32    1
    43    39    35    1
@<TRIPOS>SUBSTRUCTURE
     1 RES1        1 GROUP             0 ****  ****    0  
@<TRIPOS>MOLECULE
ligand_38
    40    43     1     0     0
SMALL
NO_CHARGES
****
Generated from the CSD

@<TRIPOS>ATOM
     1 C1      -3.9737   7.0096  12.7439   C.3       1 RES1   0.0000
     2 C2      -4.3437   8.2854  12.0036   C.3       1 RES1   0.0000
     3 C3      -5.0764   9.3127  12.8745   C.3       1 RES1   0.0000
     4 C4      -6.3858   8.7192  13.3957   C.3       1 RES1   0.0000
     5 C5      -5.2475  10.6151  12.0727   C.3       1 RES1   0.0000
     6 N6      -3.9429  11.2370  11.7482   N.3       1 RES1   0.0000
     7 C7      -3.8767  11.6905  10.3336   C.3       1 RES1   0.0000
     8 C8      -2.5165  11.2860   9.7469   C.3       1 RES1   0.0000
     9 O9      -2.4240   9.8584   9.7701   O.3       1 RES1   0.0000
    10 C10     -2.2842  11.8041   8.3257   C.3       1 RES1   0.0000
    11 C11     -2.5070  13.3103   8.1582   C.3       1 RES1   0.0000
    12 C12     -2.0832  13.7823   6.7753   C.2       1 RES1   0.0000
    13 C13     -0.7767  14.2062   6.5659   C.2       1 RES1   0.0000
    14 C14     -0.3728  14.6367   5.3035   C.2       1 RES1   0.0000
    15 C15     -1.2723  14.6384   4.2442   C.2       1 RES1   0.0000
    16 C16     -2.5790  14.2123   4.4512   C.2       1 RES1   0.0000
    17 C17     -2.9761  13.7794   5.7133   C.2       1 RES1   0.0000
    18 N18     -3.1644  11.1051   7.4033   N.am      1 RES1   0.0000
    19 C19     -2.7881  10.2186   6.4871   C.2       1 RES1   0.0000
    20 O20     -1.6441   9.8510   6.2752   O.2       1 RES1   0.0000
    21 O21     -3.8509   9.6843   5.6538   O.3       1 RES1   0.0000
    22 C22     -3.5407   8.7521   4.6169   C.3       1 RES1   0.0000
    23 C23     -4.8576   8.3990   3.9477   C.3       1 RES1   0.0000
    24 C24     -5.6275   9.6998   3.6515   C.3       1 RES1   0.0000
    25 C25     -6.6199   9.9287   4.8211   C.3       1 RES1   0.0000
    26 C26     -6.6631   8.6224   5.5607   C.2       1 RES1   0.0000
    27 O27     -7.3998   8.3409   6.4768   O.2       1 RES1   0.0000
    28 N28     -5.7634   7.7736   4.9697   N.am      1 RES1   0.0000
    29 S29     -3.4526  12.3402  12.8421   S.o2      1 RES1   0.0000
    30 O30     -2.0904  12.6560  12.5393   O.2       1 RES1   0.0000
    31 O31     -3.6499  11.7252  14.1339   O.2       1 RES1   0.0000
    32 C32     -4.3809  13.6961  12.7784   C.2       1 RES1   0.0000
    33 C33     -5.5183  13.7508  13.5868   C.2       1 RES1   0.0000
    34 C34     -6.3220  14.8888  13.6337   C.2       1 RES1   0.0000
    35 C35     -6.0264  15.9966  12.8653   C.2       1 RES1   0.0000
    36 N36     -6.6743  17.1807  12.7624   N.2       1 RES1   0.0000
    37 C37     -6.0801  18.0154  11.8948   C.2       1 RES1   0.0000
    38 S38     -4.6502  17.4009  11.1235   S.3       1 RES1   0.0000
    39 C39     -4.9059  15.9723  12.0322   C.2       1 RES1   0.0000
    40 C40     -4.0938  14.8261  11.9969   C.2       1 RES1   0.0000
@<TRIPOS>BOND
     1     1     2    1
     2     2     3    1
     3     3     4    1
     4     3     5    1
     5     5     6    1
     6     6     7    1
     7     7     8    1
     8     8     9    1
     9     8    10    1
    10    10    11    1
    11    11    12    1
    12    12    13    2
    13    13    14    1
    14    14    15    2
    15    15    16    1
    16    16    17    2
    17    10    18    1
    18    18    19   am
    19    19    20    2
    20    19    21    1
    21    21    22    1
    22    23    22    1
    23    23    24    1
    24    24    25    1
    25    25    26    1
    26    26    27    2
    27    26    28   am
    28     6    29    1
    29    29    30    2
    30    29    31    2
    31    29    32    1
    32    32    33    2
    33    33    34    1
    34    34    35    2
    35    35    36    1
    36    36    37    2
    37    37    38    1
    38    38    39    1
    39    39    40    2
    40    17    12    1
    41    28    23    1
    42    40    32    1
    43    39    35    1
@<TRIPOS>SUBSTRUCTURE
     1 RES1        1 GROUP             0 ****  ****    0  
@<TRIPOS>MOLECULE
ligand_39
    40    43     1     0     0
SMALL
NO_CHARGES
****
Generated from the CSD

@<TRIPOS>ATOM
     1 C1       0.9041  15.9090  -0.2565   C.3       1 RES1   0.0000
     2 C2       1.1033  15.2129   1.0808   C.3       1 RES1   0.0000
     3 C3       0.9716  16.1486   2.2882   C.3       1 RES1   0.0000
     4 C4       2.0320  17.2481   2.2174   C.3       1 RES1   0.0000
     5 C5       1.0161  15.3092   3.5773   C.3       1 RES1   0.0000
     6 N6      -0.1366  14.3837   3.6715   N.3       1 RES1   0.0000
     7 C7       0.2785  13.0137   4.0740   C.3       1 RES1   0.0000
     8 C8       0.7423  12.2497   2.8253   C.3       1 RES1   0.0000
     9 O9       2.0663  12.6832   2.4997   O.3       1 RES1   0.0000
    10 C10      0.7141  10.7287   2.9925   C.3       1 RES1   0.0000
    11 C11      1.5421   9.9639   1.9553   C.3       1 RES1   0.0000
    12 C12      1.6169   8.4817   2.2903   C.2       1 RES1   0.0000
    13 C13      2.6491   8.0111   3.0927   C.2       1 RES1   0.0000
    14 C14      2.7278   6.6569   3.4119   C.2       1 RES1   0.0000
    15 C15      1.7705   5.7692   2.9355   C.2       1 RES1   0.0000
    16 C16      0.7357   6.2385   2.1349   C.2       1 RES1   0.0000
    17 C17      0.6596   7.5930   1.8224   C.2       1 RES1   0.0000
    18 N18     -0.6594  10.2569   2.9210   N.am      1 RES1   0.0000
    19 C19     -1.3700   9.7698   3.9333   C.2       1 RES1   0.0000
    20 O20     -0.9821   9.6415   5.0829   O.2       1 RES1   0.0000
    21 O21     -2.7124   9.3240   3.6033   O.3       1 RES1   0.0000
    22 C22     -3.5407   8.7521   4.6169   C.3       1 RES1   0.0000
    23 C23     -4.8576   8.3990   3.9477   C.3       1 RES1   0.0000
    24 C24     -5.6301   9.6994   3.6568   C.3       1 RES1   0.0000
    25 C25     -6.6218   9.9225   4.8281   C.3       1 RES1   0.0000
    26 C26     -6.6620   8.6136   5.5631   C.2       1 RES1   0.0000
    27 O27     -7.3973   8.3275   6.4790   O.2       1 RES1   0.0000
    28 N28     -5.7613   7.7684   4.9684   N.am      1 RES1   0.0000
    29 S29     -1.3961  14.9890   4.5089   S.o2      1 RES1   0.0000
    30 O30     -2.5022  14.1053   4.3019   O.2       1 RES1   0.0000
    31 O31     -1.5972  16.3262   4.0017   O.2       1 RES1   0.0000
    32 C32     -1.0472  15.1013   6.1120   C.2       1 RES1   0.0000
    33 C33     -0.4754  16.2874   6.5771   C.2       1 RES1   0.0000
    34 C34     -0.2064  16.4818   7.9310   C.2       1 RES1   0.0000
    35 C35     -0.4827  15.4960   8.8566   C.2       1 RES1   0.0000
    36 N36     -0.2927  15.4846  10.1968   N.2       1 RES1   0.0000
    37 C37     -0.6827  14.3295  10.7591   C.2       1 RES1   0.0000
    38 S38     -1.3279  13.1442   9.6655   S.3       1 RES1   0.0000
    39 C39     -1.0397  14.2899   8.4261   C.2       1 RES1   0.0000
    40 C40     -1.3181  14.1037   7.0615   C.2       1 RES1   0.0000
@<TRIPOS>BOND
     1     1     2    1
     2     2     3    1
     3     3     4    1
     4     3     5    1
     5     5     6    1
     6     6     7    1
     7     7     8    1
     8     8     9    1
     9     8    10    1
    10    10    11    1
    11    11    12    1
    12    12    13    2
    13    13    14    1
    14    14    15    2
    15    15    16    1
    16    16    17    2
    17    10    18    1
    18    18    19   am
    19    19    20    2
    20    19    21    1
    21    21    22    1
    22    23    22    1
    23    23    24    1
    24    24    25    1
    25    25    26    1
    26    26    27    2
    27    26    28   am
    28     6    29    1
    29    29    30    2
    30    29    31    2
    31    29    32    1
    32    32    33    2
    33    33    34    1
    34    34    35    2
    35    35    36    1
    36    36    37    2
    37    37    38    1
    38    38    39    1
    39    39    40    2
    40    17    12    1
    41    28    23    1
    42    40    32    1
    43    39    35    1
@<TRIPOS>SUBSTRUCTURE
     1 RES1        1 GROUP             0 ****  ****    0  
@<TRIPOS>MOLECULE
ligand_40
    40    43     1     0     0
SMALL
NO_CHARGES
****
Generated from the CSD

@<TRIPOS>ATOM
     1 C1      -1.0082   8.6488  13.5609   C.3       1 RES1   0.0000
     2 C2      -2.0066   9.1574  12.5328   C.3       1 RES1   0.0000
     3 C3      -3.4445   9.2399  13.0585   C.3       1 RES1   0.0000
     4 C4      -3.9354   7.8491  13.4627   C.3       1 RES1   0.0000
     5 C5      -4.3218   9.9386  12.0048   C.3       1 RES1   0.0000
     6 N6      -3.8991  11.3402  11.7785   N.3       1 RES1   0.0000
     7 C7      -3.8767  11.6905  10.3336   C.3       1 RES1   0.0000
     8 C8      -2.5165  11.2860   9.7469   C.3       1 RES1   0.0000
     9 O9      -2.4240   9.8584   9.7701   O.3       1 RES1   0.0000
    10 C10     -2.2842  11.8041   8.3257   C.3       1 RES1   0.0000
    11 C11     -2.5070  13.3103   8.1582   C.3       1 RES1   0.0000
    12 C12     -2.0832  13.7823   6.7753   C.2       1 RES1   0.0000
    13 C13     -0.7767  14.2062   6.5659   C.2       1 RES1   0.0000
    14 C14     -0.3728  14.6367   5.3035   C.2       1 RES1   0.0000
    15 C15     -1.2723  14.6384   4.2442   C.2       1 RES1   0.0000
    16 C16     -2.5790  14.2123   4.4512   C.2       1 RES1   0.0000
    17 C17     -2.9761  13.7794   5.7133   C.2       1 RES1   0.0000
    18 N18     -3.1644  11.1051   7.4033   N.am      1 RES1   0.0000
    19 C19     -2.7881  10.2186   6.4871   C.2       1 RES1   0.0000
    20 O20     -1.6441   9.8510   6.2752   O.2       1 RES1   0.0000
    21 O21     -3.8509   9.6843   5.6538   O.3       1 RES1   0.0000
    22 C22     -3.5407   8.7521   4.6169   C.3       1 RES1   0.0000
    23 C23     -4.8576   8.3990   3.9477   C.3       1 RES1   0.0000
    24 C24     -5.6276   9.6998   3.6516   C.3       1 RES1   0.0000
    25 C25     -6.6200   9.9286   4.8212   C.3       1 RES1   0.0000
    26 C26     -6.6631   8.6223   5.5607   C.2       1 RES1   0.0000
    27 O27     -7.3998   8.3407   6.4768   O.2       1 RES1   0.0000
    28 N28     -5.7633   7.7735   4.9697   N.am      1 RES1   0.0000
    29 S29     -4.6657  12.4175  12.7302   S.o2      1 RES1   0.0000
    30 O30     -3.9857  13.6677  12.5823   O.2       1 RES1   0.0000
    31 O31     -4.6175  11.8658  14.0640   O.2       1 RES1   0.0000
    32 C32     -6.2458  12.5728  12.3019   C.2       1 RES1   0.0000
    33 C33     -6.5751  13.5394  11.3492   C.2       1 RES1   0.0000
    34 C34     -7.8826  13.6910  10.8904   C.2       1 RES1   0.0000
    35 C35     -8.9009  12.8975  11.3787   C.2       1 RES1   0.0000
    36 N36    -10.2198  12.8908  11.0735   N.2       1 RES1   0.0000
    37 C37    -10.9017  11.9686  11.7714   C.2       1 RES1   0.0000
    38 S38     -9.9588  11.0173  12.8772   S.3       1 RES1   0.0000
    39 C39     -8.6122  11.9310  12.3444   C.2       1 RES1   0.0000
    40 C40     -7.2905  11.7760  12.7956   C.2       1 RES1   0.0000
@<TRIPOS>BOND
     1     1     2    1
     2     2     3    1
     3     3     4    1
     4     3     5    1
     5     5     6    1
     6     6     7    1
     7     7     8    1
     8     8     9    1
     9     8    10    1
    10    10    11    1
    11    11    12    1
    12    12    13    2
    13    13    14    1
    14    14    15    2
    15    15    16    1
    16    16    17    2
    17    10    18    1
    18    18    19   am
    19    19    20    2
    20    19    21    1
    21    21    22    1
    22    23    22    1
    23    23    24    1
    24    24    25    1
    25    25    26    1
    26    26    27    2
    27    26    28   am
    28     6    29    1
    29    29    30    2
    30    29    31    2
    31    29    32    1
    32    32    33    2
    33    33    34    1
    34    34    35    2
    35    35    36    1
    36    36    37    2
    37    37    38    1
    38    38    39    1
    39    39    40    2
    40    17    12    1
    41    28    23    1
    42    40    32    1
    43    39    35    1
@<TRIPOS>SUBSTRUCTURE
     1 RES1        1 GROUP             0 ****  ****    0  
@<TRIPOS>MOLECULE
ligand_41
    40    43     1     0     0
SMALL
NO_CHARGES
****
Generated from the CSD

@<TRIPOS>ATOM
     1 C1      -1.0082   8.6488  13.5609   C.3       1 RES1   0.0000
     2 C2      -2.0066   9.1574  12.5328   C.3       1 RES1   0.0000
     3 C3      -3.4445   9.2399  13.0585   C.3       1 RES1   0.0000
     4 C4      -3.9354   7.8491  13.4627   C.3       1 RES1   0.0000
     5 C5      -4.3218   9.9386  12.0048   C.3       1 RES1   0.0000
     6 N6      -3.8991  11.3402  11.7785   N.3       1 RES1   0.0000
     7 C7      -3.8767  11.6905  10.3336   C.3       1 RES1   0.0000
     8 C8      -2.5165  11.2860   9.7469   C.3       1 RES1   0.0000
     9 O9      -2.4240   9.8584   9.7701   O.3       1 RES1   0.0000
    10 C10     -2.2842  11.8041   8.3257   C.3       1 RES1   0.0000
    11 C11     -2.5070  13.3103   8.1582   C.3       1 RES1   0.0000
    12 C12     -2.0832  13.7823   6.7753   C.2       1 RES1   0.0000
    13 C13     -0.7767  14.2062   6.5659   C.2       1 RES1   0.0000
    14 C14     -0.3728  14.6367   5.3035   C.2       1 RES1   0.0000
    15 C15     -1.2723  14.6384   4.2442   C.2       1 RES1   0.0000
    16 C16     -2.5790  14.2123   4.4512   C.2       1 RES1   0.0000
    17 C17     -2.9761  13.7794   5.7133   C.2       1 RES1   0.0000
    18 N18     -3.1644  11.1051   7.4033   N.am      1 RES1   0.0000
    19 C19     -2.7881  10.2186   6.4871   C.2       1 RES1   0.0000
    20 O20     -1.6441   9.8510   6.2752   O.2       1 RES1   0.0000
    21 O21     -3.8509   9.6843   5.6538   O.3       1 RES1   0.0000
    22 C22     -3.5407   8.7521   4.6169   C.3       1 RES1   0.0000
    23 C23     -4.8576   8.3990   3.9477   C.3       1 RES1   0.0000
    24 C24     -5.6276   9.6998   3.6516   C.3       1 RES1   0.0000
    25 C25     -6.6200   9.9286   4.8212   C.3       1 RES1   0.0000
    26 C26     -6.6631   8.6223   5.5607   C.2       1 RES1   0.0000
    27 O27     -7.3998   8.3407   6.4768   O.2       1 RES1   0.0000
    28 N28     -5.7633   7.7735   4.9697   N.am      1 RES1   0.0000
    29 S29     -4.6657  12.4175  12.7302   S.o2      1 RES1   0.0000
    30 O30     -3.9857  13.6677  12.5823   O.2       1 RES1   0.0000
    31 O31     -4.6175  11.8658  14.0640   O.2       1 RES1   0.0000
    32 C32     -6.2458  12.5728  12.3019   C.2       1 RES1   0.0000
    33 C33     -7.1767  11.7301  12.9129   C.2       1 RES1   0.0000
    34 C34     -8.5407  11.8410  12.6476   C.2       1 RES1   0.0000
    35 C35     -9.0143  12.7811  11.7549   C.2       1 RES1   0.0000
    36 N36    -10.2822  13.0420  11.3588   N.2       1 RES1   0.0000
    37 C37    -10.3429  14.0371  10.4597   C.2       1 RES1   0.0000
    38 S38     -8.8186  14.7460  10.0227   S.3       1 RES1   0.0000
    39 C39     -8.1112  13.6305  11.1122   C.2       1 RES1   0.0000
    40 C40     -6.7384  13.5207  11.3914   C.2       1 RES1   0.0000
@<TRIPOS>BOND
     1     1     2    1
     2     2     3    1
     3     3     4    1
     4     3     5    1
     5     5     6    1
     6     6     7    1
     7     7     8    1
     8     8     9    1
     9     8    10    1
    10    10    11    1
    11    11    12    1
    12    12    13    2
    13    13    14    1
    14    14    15    2
    15    15    16    1
    16    16    17    2
    17    10    18    1
    18    18    19   am
    19    19    20    2
    20    19    21    1
    21    21    22    1
    22    23    22    1
    23    23    24    1
    24    24    25    1
    25    25    26    1
    26    26    27    2
    27    26    28   am
    28     6    29    1
    29    29    30    2
    30    29    31    2
    31    29    32    1
    32    32    33    2
    33    33    34    1
    34    34    35    2
    35    35    36    1
    36    36    37    2
    37    37    38    1
    38    38    39    1
    39    39    40    2
    40    17    12    1
    41    28    23    1
    42    40    32    1
    43    39    35    1
@<TRIPOS>SUBSTRUCTURE
     1 RES1        1 GROUP             0 ****  ****    0  
@<TRIPOS>MOLECULE
ligand_42
    40    43     1     0     0
SMALL
NO_CHARGES
****
Generated from the CSD

@<TRIPOS>ATOM
     1 C1      -0.4530  10.9041  14.7309   C.3       1 RES1   0.0000
     2 C2      -0.6582  10.3164  13.3434   C.3       1 RES1   0.0000
     3 C3      -1.2864   8.9179  13.3534   C.3       1 RES1   0.0000
     4 C4      -0.3850   7.9437  14.1130   C.3       1 RES1   0.0000
     5 C5      -1.5924   8.4979  11.9049   C.3       1 RES1   0.0000
     6 N6      -2.6159   9.3699  11.2835   N.3       1 RES1   0.0000
     7 C7      -2.2352   9.7849   9.9072   C.3       1 RES1   0.0000
     8 C8      -2.5165  11.2860   9.7469   C.3       1 RES1   0.0000
     9 O9      -1.6888  11.9991  10.6707   O.3       1 RES1   0.0000
    10 C10     -2.2842  11.8041   8.3257   C.3       1 RES1   0.0000
    11 C11     -2.5070  13.3103   8.1582   C.3       1 RES1   0.0000
    12 C12     -2.0832  13.7823   6.7753   C.2       1 RES1   0.0000
    13 C13     -0.7767  14.2062   6.5659   C.2       1 RES1   0.0000
    14 C14     -0.3728  14.6367   5.3035   C.2       1 RES1   0.0000
    15 C15     -1.2723  14.6384   4.2442   C.2       1 RES1   0.0000
    16 C16     -2.5790  14.2123   4.4512   C.2       1 RES1   0.0000
    17 C17     -2.9761  13.7794   5.7133   C.2       1 RES1   0.0000
    18 N18     -3.1644  11.1051   7.4033   N.am      1 RES1   0.0000
    19 C19     -2.7881  10.2186   6.4871   C.2       1 RES1   0.0000
    20 O20     -1.6441   9.8510   6.2752   O.2       1 RES1   0.0000
    21 O21     -3.8509   9.6843   5.6538   O.3       1 RES1   0.0000
    22 C22     -3.5407   8.7521   4.6169   C.3       1 RES1   0.0000
    23 C23     -4.8576   8.3990   3.9477   C.3       1 RES1   0.0000
    24 C24     -5.6276   9.6998   3.6516   C.3       1 RES1   0.0000
    25 C25     -6.6200   9.9286   4.8212   C.3       1 RES1   0.0000
    26 C26     -6.6631   8.6223   5.5607   C.2       1 RES1   0.0000
    27 O27     -7.3998   8.3407   6.4768   O.2       1 RES1   0.0000
    28 N28     -5.7633   7.7736   4.9697   N.am      1 RES1   0.0000
    29 S29     -4.1361   8.8027  11.4293   S.o2      1 RES1   0.0000
    30 O30     -4.1150   7.4327  11.0172   O.2       1 RES1   0.0000
    31 O31     -4.9551   9.6613  10.6061   O.2       1 RES1   0.0000
    32 C32     -4.6714   8.9244  12.9795   C.2       1 RES1   0.0000
    33 C33     -4.4765   7.8327  13.8282   C.2       1 RES1   0.0000
    34 C34     -4.8480   7.8813  15.1709   C.2       1 RES1   0.0000
    35 C35     -5.4388   9.0100  15.7018   C.2       1 RES1   0.0000
    36 N36     -5.8736   9.2528  16.9606   N.2       1 RES1   0.0000
    37 C37     -6.4050  10.4789  17.0907   C.2       1 RES1   0.0000
    38 S38     -6.4108  11.4497  15.6504   S.3       1 RES1   0.0000
    39 C39     -5.6645  10.1156  14.8791   C.2       1 RES1   0.0000
    40 C40     -5.2786  10.0644  13.5289   C.2       1 RES1   0.0000
@<TRIPOS>BOND
     1     1     2    1
     2     2     3    1
     3     3     4    1
     4     3     5    1
     5     5     6    1
     6     6     7    1
     7     7     8    1
     8     8     9    1
     9     8    10    1
    10    10    11    1
    11    11    12    1
    12    12    13    2
    13    13    14    1
    14    14    15    2
    15    15    16    1
    16    16    17    2
    17    10    18    1
    18    18    19   am
    19    19    20    2
    20    19    21    1
    21    21    22    1
    22    23    22    1
    23    23    24    1
    24    24    25    1
    25    25    26    1
    26    26    27    2
    27    26    28   am
    28     6    29    1
    29    29    30    2
    30    29    31    2
    31    29    32    1
    32    32    33    2
    33    33    34    1
    34    34    35    2
    35    35    36    1
    36    36    37    2
    37    37    38    1
    38    38    39    1
    39    39    40    2
    40    17    12    1
    41    28    23    1
    42    40    32    1
    43    39    35    1
@<TRIPOS>SUBSTRUCTURE
     1 RES1        1 GROUP             0 ****  ****    0  
@<TRIPOS>MOLECULE
ligand_43
    40    43     1     0     0
SMALL
NO_CHARGES
****
Generated from the CSD

@<TRIPOS>ATOM
     1 C1      -0.4833  10.9002  14.7525   C.3       1 RES1   0.0000
     2 C2      -0.6740  10.3195  13.3600   C.3       1 RES1   0.0000
     3 C3      -1.2860   8.9138  13.3572   C.3       1 RES1   0.0000
     4 C4      -0.3754   7.9440  14.1114   C.3       1 RES1   0.0000
     5 C5      -1.5834   8.5019  11.9045   C.3       1 RES1   0.0000
     6 N6      -2.6106   9.3711  11.2853   N.3       1 RES1   0.0000
     7 C7      -2.2352   9.7849   9.9072   C.3       1 RES1   0.0000
     8 C8      -2.5165  11.2860   9.7469   C.3       1 RES1   0.0000
     9 O9      -1.6888  11.9991  10.6707   O.3       1 RES1   0.0000
    10 C10     -2.2842  11.8041   8.3257   C.3       1 RES1   0.0000
    11 C11     -2.5070  13.3103   8.1582   C.3       1 RES1   0.0000
    12 C12     -2.0832  13.7823   6.7753   C.2       1 RES1   0.0000
    13 C13     -0.7767  14.2062   6.5659   C.2       1 RES1   0.0000
    14 C14     -0.3728  14.6367   5.3035   C.2       1 RES1   0.0000
    15 C15     -1.2723  14.6384   4.2442   C.2       1 RES1   0.0000
    16 C16     -2.5790  14.2123   4.4512   C.2       1 RES1   0.0000
    17 C17     -2.9761  13.7794   5.7133   C.2       1 RES1   0.0000
    18 N18     -3.1644  11.1051   7.4033   N.am      1 RES1   0.0000
    19 C19     -2.7881  10.2186   6.4871   C.2       1 RES1   0.0000
    20 O20     -1.6441   9.8510   6.2752   O.2       1 RES1   0.0000
    21 O21     -3.8509   9.6843   5.6538   O.3       1 RES1   0.0000
    22 C22     -3.5407   8.7521   4.6169   C.3       1 RES1   0.0000
    23 C23     -4.8576   8.3990   3.9477   C.3       1 RES1   0.0000
    24 C24     -5.6275   9.6998   3.6516   C.3       1 RES1   0.0000
    25 C25     -6.6199   9.9286   4.8212   C.3       1 RES1   0.0000
    26 C26     -6.6631   8.6224   5.5607   C.2       1 RES1   0.0000
    27 O27     -7.3998   8.3408   6.4768   O.2       1 RES1   0.0000
    28 N28     -5.7633   7.7736   4.9697   N.am      1 RES1   0.0000
    29 S29     -4.1292   8.8011  11.4369   S.o2      1 RES1   0.0000
    30 O30     -4.1054   7.4287  11.0331   O.2       1 RES1   0.0000
    31 O31     -4.9515   9.6527  10.6096   O.2       1 RES1   0.0000
    32 C32     -4.6626   8.9311  12.9870   C.2       1 RES1   0.0000
    33 C33     -5.3014  10.1144  13.3637   C.2       1 RES1   0.0000
    34 C34     -5.8343  10.2772  14.6415   C.2       1 RES1   0.0000
    35 C35     -5.7314   9.2747  15.5845   C.2       1 RES1   0.0000
    36 N36     -6.1691   9.2380  16.8650   N.2       1 RES1   0.0000
    37 C37     -5.8704   8.0799  17.4748   C.2       1 RES1   0.0000
    38 S38     -5.0136   6.9214  16.5048   S.3       1 RES1   0.0000
    39 C39     -5.0847   8.0833  15.2490   C.2       1 RES1   0.0000
    40 C40     -4.5585   7.9212  13.9562   C.2       1 RES1   0.0000
@<TRIPOS>BOND
     1     1     2    1
     2     2     3    1
     3     3     4    1
     4     3     5    1
     5     5     6    1
     6     6     7    1
     7     7     8    1
     8     8     9    1
     9     8    10    1
    10    10    11    1
    11    11    12    1
    12    12    13    2
    13    13    14    1
    14    14    15    2
    15    15    16    1
    16    16    17    2
    17    10    18    1
    18    18    19   am
    19    19    20    2
    20    19    21    1
    21    21    22    1
    22    23    22    1
    23    23    24    1
    24    24    25    1
    25    25    26    1
    26    26    27    2
    27    26    28   am
    28     6    29    1
    29    29    30    2
    30    29    31    2
    31    29    32    1
    32    32    33    2
    33    33    34    1
    34    34    35    2
    35    35    36    1
    36    36    37    2
    37    37    38    1
    38    38    39    1
    39    39    40    2
    40    17    12    1
    41    28    23    1
    42    40    32    1
    43    39    35    1
@<TRIPOS>SUBSTRUCTURE
     1 RES1        1 GROUP             0 ****  ****    0  
@<TRIPOS>MOLECULE
ligand_44
    40    43     1     0     0
SMALL
NO_CHARGES
****
Generated from the CSD

@<TRIPOS>ATOM
     1 C1       1.6419   9.5873  13.4576   C.3       1 RES1   0.0000
     2 C2       0.6623   9.2667  12.3395   C.3       1 RES1   0.0000
     3 C3      -0.4432   8.2873  12.7508   C.3       1 RES1   0.0000
     4 C4       0.1704   6.9527  13.1760   C.3       1 RES1   0.0000
     5 C5      -1.4642   8.1772  11.6046   C.3       1 RES1   0.0000
     6 N6      -2.1545   9.4642  11.3570   N.3       1 RES1   0.0000
     7 C7      -2.2352   9.7849   9.9072   C.3       1 RES1   0.0000
     8 C8      -2.5165  11.2860   9.7469   C.3       1 RES1   0.0000
     9 O9      -1.6888  11.9991  10.6707   O.3       1 RES1   0.0000
    10 C10     -2.2842  11.8041   8.3257   C.3       1 RES1   0.0000
    11 C11     -2.5070  13.3103   8.1582   C.3       1 RES1   0.0000
    12 C12     -2.0832  13.7823   6.7753   C.2       1 RES1   0.0000
    13 C13     -0.7767  14.2062   6.5659   C.2       1 RES1   0.0000
    14 C14     -0.3728  14.6367   5.3035   C.2       1 RES1   0.0000
    15 C15     -1.2723  14.6384   4.2442   C.2       1 RES1   0.0000
    16 C16     -2.5790  14.2123   4.4512   C.2       1 RES1   0.0000
    17 C17     -2.9761  13.7794   5.7133   C.2       1 RES1   0.0000
    18 N18     -3.1644  11.1051   7.4033   N.am      1 RES1   0.0000
    19 C19     -2.7881  10.2186   6.4871   C.2       1 RES1   0.0000
    20 O20     -1.6441   9.8510   6.2752   O.2       1 RES1   0.0000
    21 O21     -3.8509   9.6843   5.6538   O.3       1 RES1   0.0000
    22 C22     -3.5407   8.7521   4.6169   C.3       1 RES1   0.0000
    23 C23     -4.8576   8.3990   3.9477   C.3       1 RES1   0.0000
    24 C24     -5.6275   9.6998   3.6515   C.3       1 RES1   0.0000
    25 C25     -6.6199   9.9287   4.8211   C.3       1 RES1   0.0000
    26 C26     -6.6631   8.6225   5.5607   C.2       1 RES1   0.0000
    27 O27     -7.3998   8.3410   6.4768   O.2       1 RES1   0.0000
    28 N28     -5.7634   7.7736   4.9697   N.am      1 RES1   0.0000
    29 S29     -3.5573   9.6224  12.1701   S.o2      1 RES1   0.0000
    30 O30     -3.8902  11.0140  12.1673   O.2       1 RES1   0.0000
    31 O31     -3.3142   9.0693  13.4818   O.2       1 RES1   0.0000
    32 C32     -4.7572   8.7469  11.4644   C.2       1 RES1   0.0000
    33 C33     -5.5321   9.3683  10.4828   C.2       1 RES1   0.0000
    34 C34     -6.5278   8.6748   9.7966   C.2       1 RES1   0.0000
    35 C35     -6.7914   7.3499  10.0796   C.2       1 RES1   0.0000
    36 N36     -7.7072   6.5117   9.5400   N.2       1 RES1   0.0000
    37 C37     -7.6655   5.2868  10.0882   C.2       1 RES1   0.0000
    38 S38     -6.4740   5.0629  11.3320   S.3       1 RES1   0.0000
    39 C39     -6.0476   6.6999  11.0667   C.2       1 RES1   0.0000
    40 C40     -5.0385   7.4013  11.7480   C.2       1 RES1   0.0000
@<TRIPOS>BOND
     1     1     2    1
     2     2     3    1
     3     3     4    1
     4     3     5    1
     5     5     6    1
     6     6     7    1
     7     7     8    1
     8     8     9    1
     9     8    10    1
    10    10    11    1
    11    11    12    1
    12    12    13    2
    13    13    14    1
    14    14    15    2
    15    15    16    1
    16    16    17    2
    17    10    18    1
    18    18    19   am
    19    19    20    2
    20    19    21    1
    21    21    22    1
    22    23    22    1
    23    23    24    1
    24    24    25    1
    25    25    26    1
    26    26    27    2
    27    26    28   am
    28     6    29    1
    29    29    30    2
    30    29    31    2
    31    29    32    1
    32    32    33    2
    33    33    34    1
    34    34    35    2
    35    35    36    1
    36    36    37    2
    37    37    38    1
    38    38    39    1
    39    39    40    2
    40    17    12    1
    41    28    23    1
    42    40    32    1
    43    39    35    1
@<TRIPOS>SUBSTRUCTURE
     1 RES1        1 GROUP             0 ****  ****    0  
@<TRIPOS>MOLECULE
ligand_45
    40    43     1     0     0
SMALL
NO_CHARGES
****
Generated from the CSD

@<TRIPOS>ATOM
     1 C1       1.6770   9.6072  13.4190   C.3       1 RES1   0.0000
     2 C2       0.6873   9.2811  12.3113   C.3       1 RES1   0.0000
     3 C3      -0.4107   8.2987  12.7357   C.3       1 RES1   0.0000
     4 C4       0.2117   6.9671  13.1573   C.3       1 RES1   0.0000
     5 C5      -1.4427   8.1828  11.6000   C.3       1 RES1   0.0000
     6 N6      -2.1398   9.4670  11.3567   N.3       1 RES1   0.0000
     7 C7      -2.2352   9.7849   9.9072   C.3       1 RES1   0.0000
     8 C8      -2.5165  11.2860   9.7469   C.3       1 RES1   0.0000
     9 O9      -1.6888  11.9991  10.6707   O.3       1 RES1   0.0000
    10 C10     -2.2842  11.8041   8.3257   C.3       1 RES1   0.0000
    11 C11     -2.5092  13.3099   8.1578   C.3       1 RES1   0.0000
    12 C12     -2.0853  13.7822   6.7750   C.2       1 RES1   0.0000
    13 C13     -0.7792  14.2079   6.5661   C.2       1 RES1   0.0000
    14 C14     -0.3753  14.6387   5.3038   C.2       1 RES1   0.0000
    15 C15     -1.2743  14.6389   4.2440   C.2       1 RES1   0.0000
    16 C16     -2.5805  14.2109   4.4504   C.2       1 RES1   0.0000
    17 C17     -2.9776  13.7777   5.7125   C.2       1 RES1   0.0000
    18 N18     -3.1629  11.1036   7.4030   N.am      1 RES1   0.0000
    19 C19     -2.7849  10.2164   6.4881   C.2       1 RES1   0.0000
    20 O20     -1.6414   9.8436   6.2831   O.2       1 RES1   0.0000
    21 O21     -3.8449   9.6883   5.6473   O.3       1 RES1   0.0000
    22 C22     -3.5328   8.7543   4.6125   C.3       1 RES1   0.0000
    23 C23     -4.8459   8.4148   3.9291   C.3       1 RES1   0.0000
    24 C24     -5.5983   9.7234   3.6229   C.3       1 RES1   0.0000
    25 C25     -6.6011   9.9645   4.7811   C.3       1 RES1   0.0000
    26 C26     -6.6668   8.6597   5.5215   C.2       1 RES1   0.0000
    27 O27     -7.4167   8.3873   6.4296   O.2       1 RES1   0.0000
    28 N28     -5.7698   7.8005   4.9416   N.am      1 RES1   0.0000
    29 S29     -3.5356   9.6216  12.1826   S.o2      1 RES1   0.0000
    30 O30     -3.8801  11.0102  12.1697   O.2       1 RES1   0.0000
    31 O31     -3.2744   9.0834  13.4971   O.2       1 RES1   0.0000
    32 C32     -4.7352   8.7292  11.4979   C.2       1 RES1   0.0000
    33 C33     -4.9002   7.4114  11.9294   C.2       1 RES1   0.0000
    34 C34     -5.9316   6.6109  11.4409   C.2       1 RES1   0.0000
    35 C35     -6.8163   7.0933  10.4977   C.2       1 RES1   0.0000
    36 N36     -7.8661   6.4835   9.8990   N.2       1 RES1   0.0000
    37 C37     -8.4894   7.2840   9.0198   C.2       1 RES1   0.0000
    38 S38     -7.8239   8.8802   8.8571   S.3       1 RES1   0.0000
    39 C39     -6.6724   8.4014  10.0305   C.2       1 RES1   0.0000
    40 C40     -5.6370   9.2068  10.5342   C.2       1 RES1   0.0000
@<TRIPOS>BOND
     1     1     2    1
     2     2     3    1
     3     3     4    1
     4     3     5    1
     5     5     6    1
     6     6     7    1
     7     7     8    1
     8     8     9    1
     9     8    10    1
    10    10    11    1
    11    11    12    1
    12    12    13    2
    13    13    14    1
    14    14    15    2
    15    15    16    1
    16    16    17    2
    17    10    18    1
    18    18    19   am
    19    19    20    2
    20    19    21    1
    21    21    22    1
    22    23    22    1
    23    23    24    1
    24    24    25    1
    25    25    26    1
    26    26    27    2
    27    26    28   am
    28     6    29    1
    29    29    30    2
    30    29    31    2
    31    29    32    1
    32    32    33    2
    33    33    34    1
    34    34    35    2
    35    35    36    1
    36    36    37    2
    37    37    38    1
    38    38    39    1
    39    39    40    2
    40    17    12    1
    41    28    23    1
    42    40    32    1
    43    39    35    1
@<TRIPOS>SUBSTRUCTURE
     1 RES1        1 GROUP             0 ****  ****    0  
@<TRIPOS>MOLECULE
ligand_46
    40    43     1     0     0
SMALL
NO_CHARGES
****
Generated from the CSD

@<TRIPOS>ATOM
     1 C1      -3.6673  12.1930  14.3740   C.3       1 RES1   0.0000
     2 C2      -2.8655  11.5655  13.2444   C.3       1 RES1   0.0000
     3 C3      -2.3299  10.1668  13.5720   C.3       1 RES1   0.0000
     4 C4      -1.3766  10.2369  14.7657   C.3       1 RES1   0.0000
     5 C5      -1.7087   9.5601  12.3015   C.3       1 RES1   0.0000
     6 N6      -2.7215   9.3457  11.2420   N.3       1 RES1   0.0000
     7 C7      -2.2352   9.7849   9.9072   C.3       1 RES1   0.0000
     8 C8      -2.5165  11.2860   9.7469   C.3       1 RES1   0.0000
     9 O9      -1.6888  11.9991  10.6707   O.3       1 RES1   0.0000
    10 C10     -2.2842  11.8041   8.3257   C.3       1 RES1   0.0000
    11 C11     -2.5070  13.3103   8.1582   C.3       1 RES1   0.0000
    12 C12     -2.0832  13.7823   6.7753   C.2       1 RES1   0.0000
    13 C13     -0.7767  14.2062   6.5659   C.2       1 RES1   0.0000
    14 C14     -0.3728  14.6367   5.3035   C.2       1 RES1   0.0000
    15 C15     -1.2723  14.6384   4.2442   C.2       1 RES1   0.0000
    16 C16     -2.5790  14.2123   4.4512   C.2       1 RES1   0.0000
    17 C17     -2.9761  13.7794   5.7133   C.2       1 RES1   0.0000
    18 N18     -3.1644  11.1051   7.4033   N.am      1 RES1   0.0000
    19 C19     -2.7881  10.2186   6.4871   C.2       1 RES1   0.0000
    20 O20     -1.6441   9.8510   6.2752   O.2       1 RES1   0.0000
    21 O21     -3.8509   9.6843   5.6538   O.3       1 RES1   0.0000
    22 C22     -3.5407   8.7521   4.6169   C.3       1 RES1   0.0000
    23 C23     -4.8576   8.3990   3.9477   C.3       1 RES1   0.0000
    24 C24     -5.6276   9.6998   3.6517   C.3       1 RES1   0.0000
    25 C25     -6.6200   9.9285   4.8213   C.3       1 RES1   0.0000
    26 C26     -6.6631   8.6222   5.5607   C.2       1 RES1   0.0000
    27 O27     -7.3998   8.3406   6.4768   O.2       1 RES1   0.0000
    28 N28     -5.7633   7.7735   4.9697   N.am      1 RES1   0.0000
    29 S29     -3.3942   7.8622  11.2691   S.o2      1 RES1   0.0000
    30 O30     -2.3221   6.9149  11.2954   O.2       1 RES1   0.0000
    31 O31     -4.2274   7.7884  10.0919   O.2       1 RES1   0.0000
    32 C32     -4.3590   7.6692  12.5868   C.2       1 RES1   0.0000
    33 C33     -3.7925   7.1219  13.7399   C.2       1 RES1   0.0000
    34 C34     -4.5291   6.9825  14.9151   C.2       1 RES1   0.0000
    35 C35     -5.8533   7.3675  14.9708   C.2       1 RES1   0.0000
    36 N36     -6.7326   7.3095  15.9983   N.2       1 RES1   0.0000
    37 C37     -7.9456   7.7757  15.6607   C.2       1 RES1   0.0000
    38 S38     -8.1045   8.3346  14.0238   S.3       1 RES1   0.0000
    39 C39     -6.4584   7.9039  13.8322   C.2       1 RES1   0.0000
    40 C40     -5.7079   8.0514  12.6534   C.2       1 RES1   0.0000
@<TRIPOS>BOND
     1     1     2    1
     2     2     3    1
     3     3     4    1
     4     3     5    1
     5     5     6    1
     6     6     7    1
     7     7     8    1
     8     8     9    1
     9     8    10    1
    10    10    11    1
    11    11    12    1
    12    12    13    2
    13    13    14    1
    14    14    15    2
    15    15    16    1
    16    16    17    2
    17    10    18    1
    18    18    19   am
    19    19    20    2
    20    19    21    1
    21    21    22    1
    22    23    22    1
    23    23    24    1
    24    24    25    1
    25    25    26    1
    26    26    27    2
    27    26    28   am
    28     6    29    1
    29    29    30    2
    30    29    31    2
    31    29    32    1
    32    32    33    2
    33    33    34    1
    34    34    35    2
    35    35    36    1
    36    36    37    2
    37    37    38    1
    38    38    39    1
    39    39    40    2
    40    17    12    1
    41    28    23    1
    42    40    32    1
    43    39    35    1
@<TRIPOS>SUBSTRUCTURE
     1 RES1        1 GROUP             0 ****  ****    0  
@<TRIPOS>MOLECULE
ligand_47
    40    43     1     0     0
SMALL
NO_CHARGES
****
Generated from the CSD

@<TRIPOS>ATOM
     1 C1      -3.6502  12.1709  14.3993   C.3       1 RES1   0.0000
     2 C2      -2.8573  11.5521  13.2586   C.3       1 RES1   0.0000
     3 C3      -2.3068  10.1570  13.5767   C.3       1 RES1   0.0000
     4 C4      -1.3420  10.2316  14.7607   C.3       1 RES1   0.0000
     5 C5      -1.6937   9.5590  12.2981   C.3       1 RES1   0.0000
     6 N6      -2.7141   9.3475  11.2453   N.3       1 RES1   0.0000
     7 C7      -2.2352   9.7849   9.9072   C.3       1 RES1   0.0000
     8 C8      -2.5165  11.2860   9.7469   C.3       1 RES1   0.0000
     9 O9      -1.6888  11.9991  10.6707   O.3       1 RES1   0.0000
    10 C10     -2.2842  11.8041   8.3257   C.3       1 RES1   0.0000
    11 C11     -2.5070  13.3103   8.1582   C.3       1 RES1   0.0000
    12 C12     -2.0832  13.7823   6.7753   C.2       1 RES1   0.0000
    13 C13     -0.7767  14.2062   6.5659   C.2       1 RES1   0.0000
    14 C14     -0.3728  14.6367   5.3035   C.2       1 RES1   0.0000
    15 C15     -1.2723  14.6384   4.2442   C.2       1 RES1   0.0000
    16 C16     -2.5790  14.2123   4.4512   C.2       1 RES1   0.0000
    17 C17     -2.9761  13.7794   5.7133   C.2       1 RES1   0.0000
    18 N18     -3.1644  11.1051   7.4033   N.am      1 RES1   0.0000
    19 C19     -2.7881  10.2186   6.4871   C.2       1 RES1   0.0000
    20 O20     -1.6441   9.8510   6.2752   O.2       1 RES1   0.0000
    21 O21     -3.8509   9.6843   5.6538   O.3       1 RES1   0.0000
    22 C22     -3.5407   8.7521   4.6169   C.3       1 RES1   0.0000
    23 C23     -4.8576   8.3990   3.9477   C.3       1 RES1   0.0000
    24 C24     -5.6276   9.6998   3.6516   C.3       1 RES1   0.0000
    25 C25     -6.6200   9.9285   4.8213   C.3       1 RES1   0.0000
    26 C26     -6.6631   8.6222   5.5607   C.2       1 RES1   0.0000
    27 O27     -7.3998   8.3406   6.4768   O.2       1 RES1   0.0000
    28 N28     -5.7633   7.7735   4.9697   N.am      1 RES1   0.0000
    29 S29     -3.3910   7.8659  11.2771   S.o2      1 RES1   0.0000
    30 O30     -2.3217   6.9157  11.3068   O.2       1 RES1   0.0000
    31 O31     -4.2241   7.7907  10.0999   O.2       1 RES1   0.0000
    32 C32     -4.3567   7.6801  12.5952   C.2       1 RES1   0.0000
    33 C33     -5.6957   8.0611  12.4859   C.2       1 RES1   0.0000
    34 C34     -6.5909   7.8790  13.5389   C.2       1 RES1   0.0000
    35 C35     -6.1751   7.3291  14.7346   C.2       1 RES1   0.0000
    36 N36     -6.8753   7.0784  15.8657   N.2       1 RES1   0.0000
    37 C37     -6.1130   6.5391  16.8304   C.2       1 RES1   0.0000
    38 S38     -4.4446   6.2906  16.4159   S.3       1 RES1   0.0000
    39 C39     -4.8393   6.9511  14.8863   C.2       1 RES1   0.0000
    40 C40     -3.9440   7.1278  13.8178   C.2       1 RES1   0.0000
@<TRIPOS>BOND
     1     1     2    1
     2     2     3    1
     3     3     4    1
     4     3     5    1
     5     5     6    1
     6     6     7    1
     7     7     8    1
     8     8     9    1
     9     8    10    1
    10    10    11    1
    11    11    12    1
    12    12    13    2
    13    13    14    1
    14    14    15    2
    15    15    16    1
    16    16    17    2
    17    10    18    1
    18    18    19   am
    19    19    20    2
    20    19    21    1
    21    21    22    1
    22    23    22    1
    23    23    24    1
    24    24    25    1
    25    25    26    1
    26    26    27    2
    27    26    28   am
    28     6    29    1
    29    29    30    2
    30    29    31    2
    31    29    32    1
    32    32    33    2
    33    33    34    1
    34    34    35    2
    35    35    36    1
    36    36    37    2
    37    37    38    1
    38    38    39    1
    39    39    40    2
    40    17    12    1
    41    28    23    1
    42    40    32    1
    43    39    35    1
@<TRIPOS>SUBSTRUCTURE
     1 RES1        1 GROUP             0 ****  ****    0  
@<TRIPOS>MOLECULE
ligand_48
    40    43     1     0     0
SMALL
NO_CHARGES
****
Generated from the CSD

@<TRIPOS>ATOM
     1 C1      -1.9858  16.8661   3.6247   C.3       1 RES1   0.0000
     2 C2      -1.6202  15.6916   2.7306   C.3       1 RES1   0.0000
     3 C3      -1.0534  16.1075   1.3681   C.3       1 RES1   0.0000
     4 C4      -2.0876  16.9309   0.5994   C.3       1 RES1   0.0000
     5 C5      -0.5670  14.8506   0.6252   C.3       1 RES1   0.0000
     6 N6       0.5566  14.1936   1.3323   N.3       1 RES1   0.0000
     7 C7       0.3831  12.7187   1.4079   C.3       1 RES1   0.0000
     8 C8       0.7423  12.2497   2.8253   C.3       1 RES1   0.0000
     9 O9      -0.1674  12.8615   3.7447   O.3       1 RES1   0.0000
    10 C10      0.7141  10.7287   2.9925   C.3       1 RES1   0.0000
    11 C11      1.5421   9.9639   1.9553   C.3       1 RES1   0.0000
    12 C12      1.6169   8.4817   2.2903   C.2       1 RES1   0.0000
    13 C13      2.6491   8.0111   3.0927   C.2       1 RES1   0.0000
    14 C14      2.7278   6.6569   3.4119   C.2       1 RES1   0.0000
    15 C15      1.7705   5.7692   2.9355   C.2       1 RES1   0.0000
    16 C16      0.7357   6.2385   2.1349   C.2       1 RES1   0.0000
    17 C17      0.6596   7.5930   1.8224   C.2       1 RES1   0.0000
    18 N18     -0.6594  10.2569   2.9210   N.am      1 RES1   0.0000
    19 C19     -1.3700   9.7698   3.9333   C.2       1 RES1   0.0000
    20 O20     -0.9821   9.6415   5.0829   O.2       1 RES1   0.0000
    21 O21     -2.7124   9.3240   3.6033   O.3       1 RES1   0.0000
    22 C22     -3.5407   8.7521   4.6169   C.3       1 RES1   0.0000
    23 C23     -4.8576   8.3990   3.9477   C.3       1 RES1   0.0000
    24 C24     -5.6301   9.6994   3.6568   C.3       1 RES1   0.0000
    25 C25     -6.6218   9.9225   4.8281   C.3       1 RES1   0.0000
    26 C26     -6.6620   8.6136   5.5631   C.2       1 RES1   0.0000
    27 O27     -7.3973   8.3275   6.4790   O.2       1 RES1   0.0000
    28 N28     -5.7613   7.7684   4.9684   N.am      1 RES1   0.0000
    29 S29      2.0255  14.6829   0.8254   S.o2      1 RES1   0.0000
    30 O30      2.9849  14.1594   1.7489   O.2       1 RES1   0.0000
    31 O31      1.9643  16.1252   0.7816   O.2       1 RES1   0.0000
    32 C32      2.3421  14.1419  -0.6949   C.2       1 RES1   0.0000
    33 C33      2.9849  12.9098  -0.8319   C.2       1 RES1   0.0000
    34 C34      3.2337  12.3559  -2.0867   C.2       1 RES1   0.0000
    35 C35      2.8657  13.0199  -3.2394   C.2       1 RES1   0.0000
    36 N36      3.0214  12.6622  -4.5356   N.2       1 RES1   0.0000
    37 C37      2.5369  13.5842  -5.3826   C.2       1 RES1   0.0000
    38 S38      1.8364  14.9895  -4.6398   S.3       1 RES1   0.0000
    39 C39      2.2353  14.2622  -3.1419   C.2       1 RES1   0.0000
    40 C40      1.9780  14.8107  -1.8740   C.2       1 RES1   0.0000
@<TRIPOS>BOND
     1     1     2    1
     2     2     3    1
     3     3     4    1
     4     3     5    1
     5     5     6    1
     6     6     7    1
     7     7     8    1
     8     8     9    1
     9     8    10    1
    10    10    11    1
    11    11    12    1
    12    12    13    2
    13    13    14    1
    14    14    15    2
    15    15    16    1
    16    16    17    2
    17    10    18    1
    18    18    19   am
    19    19    20    2
    20    19    21    1
    21    21    22    1
    22    23    22    1
    23    23    24    1
    24    24    25    1
    25    25    26    1
    26    26    27    2
    27    26    28   am
    28     6    29    1
    29    29    30    2
    30    29    31    2
    31    29    32    1
    32    32    33    2
    33    33    34    1
    34    34    35    2
    35    35    36    1
    36    36    37    2
    37    37    38    1
    38    38    39    1
    39    39    40    2
    40    17    12    1
    41    28    23    1
    42    40    32    1
    43    39    35    1
@<TRIPOS>SUBSTRUCTURE
     1 RES1        1 GROUP             0 ****  ****    0  
@<TRIPOS>MOLECULE
ligand_49
    40    43     1     0     0
SMALL
NO_CHARGES
****
Generated from the CSD

@<TRIPOS>ATOM
     1 C1      -1.9831  16.8677   3.6253   C.3       1 RES1   0.0000
     2 C2      -1.6180  15.6928   2.7313   C.3       1 RES1   0.0000
     3 C3      -1.0517  16.1083   1.3685   C.3       1 RES1   0.0000
     4 C4      -2.0858  16.9322   0.6002   C.3       1 RES1   0.0000
     5 C5      -0.5664  14.8510   0.6255   C.3       1 RES1   0.0000
     6 N6       0.5573  14.1935   1.3321   N.3       1 RES1   0.0000
     7 C7       0.3831  12.7187   1.4079   C.3       1 RES1   0.0000
     8 C8       0.7423  12.2497   2.8253   C.3       1 RES1   0.0000
     9 O9      -0.1674  12.8615   3.7447   O.3       1 RES1   0.0000
    10 C10      0.7141  10.7287   2.9925   C.3       1 RES1   0.0000
    11 C11      1.5421   9.9639   1.9553   C.3       1 RES1   0.0000
    12 C12      1.6169   8.4817   2.2903   C.2       1 RES1   0.0000
    13 C13      2.6491   8.0111   3.0927   C.2       1 RES1   0.0000
    14 C14      2.7278   6.6569   3.4119   C.2       1 RES1   0.0000
    15 C15      1.7705   5.7692   2.9355   C.2       1 RES1   0.0000
    16 C16      0.7357   6.2385   2.1349   C.2       1 RES1   0.0000
    17 C17      0.6596   7.5930   1.8224   C.2       1 RES1   0.0000
    18 N18     -0.6594  10.2569   2.9210   N.am      1 RES1   0.0000
    19 C19     -1.3700   9.7698   3.9333   C.2       1 RES1   0.0000
    20 O20     -0.9821   9.6415   5.0829   O.2       1 RES1   0.0000
    21 O21     -2.7124   9.3240   3.6033   O.3       1 RES1   0.0000
    22 C22     -3.5407   8.7521   4.6169   C.3       1 RES1   0.0000
    23 C23     -4.8576   8.3990   3.9477   C.3       1 RES1   0.0000
    24 C24     -5.6301   9.6994   3.6568   C.3       1 RES1   0.0000
    25 C25     -6.6218   9.9225   4.8281   C.3       1 RES1   0.0000
    26 C26     -6.6620   8.6136   5.5631   C.2       1 RES1   0.0000
    27 O27     -7.3973   8.3275   6.4790   O.2       1 RES1   0.0000
    28 N28     -5.7613   7.7684   4.9684   N.am      1 RES1   0.0000
    29 S29      2.0262  14.6821   0.8245   S.o2      1 RES1   0.0000
    30 O30      2.9848  14.1678   1.7539   O.2       1 RES1   0.0000
    31 O31      1.9619  16.1238   0.7693   O.2       1 RES1   0.0000
    32 C32      2.3471  14.1299  -0.6909   C.2       1 RES1   0.0000
    33 C33      1.9711  14.9284  -1.7731   C.2       1 RES1   0.0000
    34 C34      2.2622  14.5577  -3.0850   C.2       1 RES1   0.0000
    35 C35      2.9198  13.3751  -3.3573   C.2       1 RES1   0.0000
    36 N36      3.2847  12.8373  -4.5448   N.2       1 RES1   0.0000
    37 C37      3.9060  11.6558  -4.4021   C.2       1 RES1   0.0000
    38 S38      4.0967  11.1022  -2.7667   S.3       1 RES1   0.0000
    39 C39      3.2969  12.5429  -2.3012   C.2       1 RES1   0.0000
    40 C40      3.0097  12.9268  -0.9804   C.2       1 RES1   0.0000
@<TRIPOS>BOND
     1     1     2    1
     2     2     3    1
     3     3     4    1
     4     3     5    1
     5     5     6    1
     6     6     7    1
     7     7     8    1
     8     8     9    1
     9     8    10    1
    10    10    11    1
    11    11    12    1
    12    12    13    2
    13    13    14    1
    14    14    15    2
    15    15    16    1
    16    16    17    2
    17    10    18    1
    18    18    19   am
    19    19    20    2
    20    19    21    1
    21    21    22    1
    22    23    22    1
    23    23    24    1
    24    24    25    1
    25    25    26    1
    26    26    27    2
    27    26    28   am
    28     6    29    1
    29    29    30    2
    30    29    31    2
    31    29    32    1
    32    32    33    2
    33    33    34    1
    34    34    35    2
    35    35    36    1
    36    36    37    2
    37    37    38    1
    38    38    39    1
    39    39    40    2
    40    17    12    1
    41    28    23    1
    42    40    32    1
    43    39    35    1
@<TRIPOS>SUBSTRUCTURE
     1 RES1        1 GROUP             0 ****  ****    0  
@<TRIPOS>MOLECULE
ligand_50
    40    43     1     0     0
SMALL
NO_CHARGES
****
Generated from the CSD

@<TRIPOS>ATOM
     1 C1       1.3052  16.6846   4.7720   C.3       1 RES1   0.0000
     2 C2       0.6434  15.6208   3.9100   C.3       1 RES1   0.0000
     3 C3      -0.0080  16.1759   2.6379   C.3       1 RES1   0.0000
     4 C4      -1.1169  17.1629   3.0047   C.3       1 RES1   0.0000
     5 C5      -0.4730  14.9996   1.7613   C.3       1 RES1   0.0000
     6 N6       0.6665  14.1743   1.2981   N.3       1 RES1   0.0000
     7 C7       0.3831  12.7187   1.4079   C.3       1 RES1   0.0000
     8 C8       0.7423  12.2497   2.8253   C.3       1 RES1   0.0000
     9 O9      -0.1674  12.8615   3.7447   O.3       1 RES1   0.0000
    10 C10      0.7141  10.7287   2.9925   C.3       1 RES1   0.0000
    11 C11      1.5421   9.9639   1.9553   C.3       1 RES1   0.0000
    12 C12      1.6169   8.4817   2.2903   C.2       1 RES1   0.0000
    13 C13      2.6491   8.0111   3.0927   C.2       1 RES1   0.0000
    14 C14      2.7278   6.6569   3.4119   C.2       1 RES1   0.0000
    15 C15      1.7705   5.7692   2.9355   C.2       1 RES1   0.0000
    16 C16      0.7357   6.2385   2.1349   C.2       1 RES1   0.0000
    17 C17      0.6596   7.5930   1.8224   C.2       1 RES1   0.0000
    18 N18     -0.6594  10.2569   2.9210   N.am      1 RES1   0.0000
    19 C19     -1.3700   9.7698   3.9333   C.2       1 RES1   0.0000
    20 O20     -0.9821   9.6415   5.0829   O.2       1 RES1   0.0000
    21 O21     -2.7124   9.3240   3.6033   O.3       1 RES1   0.0000
    22 C22     -3.5407   8.7521   4.6169   C.3       1 RES1   0.0000
    23 C23     -4.8576   8.3990   3.9477   C.3       1 RES1   0.0000
    24 C24     -5.6301   9.6994   3.6568   C.3       1 RES1   0.0000
    25 C25     -6.6218   9.9225   4.8281   C.3       1 RES1   0.0000
    26 C26     -6.6620   8.6136   5.5631   C.2       1 RES1   0.0000
    27 O27     -7.3973   8.3275   6.4790   O.2       1 RES1   0.0000
    28 N28     -5.7613   7.7684   4.9684   N.am      1 RES1   0.0000
    29 S29      1.2752  14.6446  -0.1380   S.o2      1 RES1   0.0000
    30 O30      2.5020  13.9333  -0.3280   O.2       1 RES1   0.0000
    31 O31      1.4240  16.0785  -0.0496   O.2       1 RES1   0.0000
    32 C32      0.2297  14.3175  -1.3644   C.2       1 RES1   0.0000
    33 C33      0.3295  13.0770  -1.9979   C.2       1 RES1   0.0000
    34 C34     -0.5586  12.7021  -3.0048   C.2       1 RES1   0.0000
    35 C35     -1.5592  13.5569  -3.4208   C.2       1 RES1   0.0000
    36 N36     -2.5057  13.3883  -4.3739   N.2       1 RES1   0.0000
    37 C37     -3.3051  14.4599  -4.4964   C.2       1 RES1   0.0000
    38 S38     -2.9522  15.7839  -3.4289   S.3       1 RES1   0.0000
    39 C39     -1.6797  14.8125  -2.8214   C.2       1 RES1   0.0000
    40 C40     -0.7878  15.1807  -1.7999   C.2       1 RES1   0.0000
@<TRIPOS>BOND
     1     1     2    1
     2     2     3    1
     3     3     4    1
     4     3     5    1
     5     5     6    1
     6     6     7    1
     7     7     8    1
     8     8     9    1
     9     8    10    1
    10    10    11    1
    11    11    12    1
    12    12    13    2
    13    13    14    1
    14    14    15    2
    15    15    16    1
    16    16    17    2
    17    10    18    1
    18    18    19   am
    19    19    20    2
    20    19    21    1
    21    21    22    1
    22    23    22    1
    23    23    24    1
    24    24    25    1
    25    25    26    1
    26    26    27    2
    27    26    28   am
    28     6    29    1
    29    29    30    2
    30    29    31    2
    31    29    32    1
    32    32    33    2
    33    33    34    1
    34    34    35    2
    35    35    36    1
    36    36    37    2
    37    37    38    1
    38    38    39    1
    39    39    40    2
    40    17    12    1
    41    28    23    1
    42    40    32    1
    43    39    35    1
@<TRIPOS>SUBSTRUCTURE
     1 RES1        1 GROUP             0 ****  ****    0  
@<TRIPOS>MOLECULE
ligand_51
    40    43     1     0     0
SMALL
NO_CHARGES
****
Generated from the CSD

@<TRIPOS>ATOM
     1 C1       1.3052  16.6846   4.7720   C.3       1 RES1   0.0000
     2 C2       0.6434  15.6208   3.9100   C.3       1 RES1   0.0000
     3 C3      -0.0080  16.1759   2.6379   C.3       1 RES1   0.0000
     4 C4      -1.1169  17.1629   3.0047   C.3       1 RES1   0.0000
     5 C5      -0.4730  14.9996   1.7613   C.3       1 RES1   0.0000
     6 N6       0.6665  14.1743   1.2981   N.3       1 RES1   0.0000
     7 C7       0.3831  12.7187   1.4079   C.3       1 RES1   0.0000
     8 C8       0.7423  12.2497   2.8253   C.3       1 RES1   0.0000
     9 O9      -0.1674  12.8615   3.7447   O.3       1 RES1   0.0000
    10 C10      0.7141  10.7287   2.9925   C.3       1 RES1   0.0000
    11 C11      1.5421   9.9639   1.9553   C.3       1 RES1   0.0000
    12 C12      1.6169   8.4817   2.2903   C.2       1 RES1   0.0000
    13 C13      2.6491   8.0111   3.0927   C.2       1 RES1   0.0000
    14 C14      2.7278   6.6569   3.4119   C.2       1 RES1   0.0000
    15 C15      1.7705   5.7692   2.9355   C.2       1 RES1   0.0000
    16 C16      0.7357   6.2385   2.1349   C.2       1 RES1   0.0000
    17 C17      0.6596   7.5930   1.8224   C.2       1 RES1   0.0000
    18 N18     -0.6594  10.2569   2.9210   N.am      1 RES1   0.0000
    19 C19     -1.3700   9.7698   3.9333   C.2       1 RES1   0.0000
    20 O20     -0.9821   9.6415   5.0829   O.2       1 RES1   0.0000
    21 O21     -2.7124   9.3240   3.6033   O.3       1 RES1   0.0000
    22 C22     -3.5407   8.7521   4.6169   C.3       1 RES1   0.0000
    23 C23     -4.8576   8.3990   3.9477   C.3       1 RES1   0.0000
    24 C24     -5.6301   9.6994   3.6568   C.3       1 RES1   0.0000
    25 C25     -6.6218   9.9225   4.8281   C.3       1 RES1   0.0000
    26 C26     -6.6620   8.6136   5.5631   C.2       1 RES1   0.0000
    27 O27     -7.3973   8.3275   6.4790   O.2       1 RES1   0.0000
    28 N28     -5.7613   7.7684   4.9684   N.am      1 RES1   0.0000
    29 S29      1.2752  14.6446  -0.1380   S.o2      1 RES1   0.0000
    30 O30      2.5020  13.9333  -0.3279   O.2       1 RES1   0.0000
    31 O31      1.4240  16.0785  -0.0496   O.2       1 RES1   0.0000
    32 C32      0.2297  14.3175  -1.3644   C.2       1 RES1   0.0000
    33 C33     -0.7041  15.2970  -1.7089   C.2       1 RES1   0.0000
    34 C34     -1.5837  15.1187  -2.7756   C.2       1 RES1   0.0000
    35 C35     -1.5703  13.9550  -3.5176   C.2       1 RES1   0.0000
    36 N36     -2.3355  13.5880  -4.5722   N.2       1 RES1   0.0000
    37 C37     -2.0275  12.3627  -5.0261   C.2       1 RES1   0.0000
    38 S38     -0.7478  11.5495  -4.1786   S.3       1 RES1   0.0000
    39 C39     -0.6611  12.9462  -3.1919   C.2       1 RES1   0.0000
    40 C40      0.2299  13.1359  -2.1221   C.2       1 RES1   0.0000
@<TRIPOS>BOND
     1     1     2    1
     2     2     3    1
     3     3     4    1
     4     3     5    1
     5     5     6    1
     6     6     7    1
     7     7     8    1
     8     8     9    1
     9     8    10    1
    10    10    11    1
    11    11    12    1
    12    12    13    2
    13    13    14    1
    14    14    15    2
    15    15    16    1
    16    16    17    2
    17    10    18    1
    18    18    19   am
    19    19    20    2
    20    19    21    1
    21    21    22    1
    22    23    22    1
    23    23    24    1
    24    24    25    1
    25    25    26    1
    26    26    27    2
    27    26    28   am
    28     6    29    1
    29    29    30    2
    30    29    31    2
    31    29    32    1
    32    32    33    2
    33    33    34    1
    34    34    35    2
    35    35    36    1
    36    36    37    2
    37    37    38    1
    38    38    39    1
    39    39    40    2
    40    17    12    1
    41    28    23    1
    42    40    32    1
    43    39    35    1
@<TRIPOS>SUBSTRUCTURE
     1 RES1        1 GROUP             0 ****  ****    0  
@<TRIPOS>MOLECULE
ligand_52
    40    43     1     0     0
SMALL
NO_CHARGES
****
Generated from the CSD

@<TRIPOS>ATOM
     1 C1       3.6292  16.7545   3.6106   C.3       1 RES1   0.0000
     2 C2       2.5826  15.7619   4.0925   C.3       1 RES1   0.0000
     3 C3       1.2355  16.4066   4.4392   C.3       1 RES1   0.0000
     4 C4       1.4175  17.4304   5.5605   C.3       1 RES1   0.0000
     5 C5       0.2177  15.2966   4.7557   C.3       1 RES1   0.0000
     6 N6      -0.0593  14.4502   3.5720   N.3       1 RES1   0.0000
     7 C7      -0.0481  13.0013   3.9062   C.3       1 RES1   0.0000
     8 C8       0.7423  12.2497   2.8253   C.3       1 RES1   0.0000
     9 O9       2.0930  12.7210   2.8475   O.3       1 RES1   0.0000
    10 C10      0.7141  10.7287   2.9925   C.3       1 RES1   0.0000
    11 C11      1.5421   9.9639   1.9553   C.3       1 RES1   0.0000
    12 C12      1.6169   8.4817   2.2903   C.2       1 RES1   0.0000
    13 C13      2.6491   8.0111   3.0927   C.2       1 RES1   0.0000
    14 C14      2.7278   6.6569   3.4119   C.2       1 RES1   0.0000
    15 C15      1.7705   5.7692   2.9355   C.2       1 RES1   0.0000
    16 C16      0.7357   6.2385   2.1349   C.2       1 RES1   0.0000
    17 C17      0.6596   7.5930   1.8224   C.2       1 RES1   0.0000
    18 N18     -0.6594  10.2569   2.9210   N.am      1 RES1   0.0000
    19 C19     -1.3700   9.7698   3.9333   C.2       1 RES1   0.0000
    20 O20     -0.9821   9.6415   5.0829   O.2       1 RES1   0.0000
    21 O21     -2.7124   9.3240   3.6033   O.3       1 RES1   0.0000
    22 C22     -3.5407   8.7521   4.6169   C.3       1 RES1   0.0000
    23 C23     -4.8576   8.3990   3.9477   C.3       1 RES1   0.0000
    24 C24     -5.6301   9.6994   3.6568   C.3       1 RES1   0.0000
    25 C25     -6.6218   9.9225   4.8281   C.3       1 RES1   0.0000
    26 C26     -6.6620   8.6136   5.5631   C.2       1 RES1   0.0000
    27 O27     -7.3973   8.3275   6.4790   O.2       1 RES1   0.0000
    28 N28     -5.7613   7.7684   4.9684   N.am      1 RES1   0.0000
    29 S29     -1.3474  14.9403   2.7031   S.o2      1 RES1   0.0000
    30 O30     -2.4243  15.1397   3.6238   O.2       1 RES1   0.0000
    31 O31     -1.5803  13.9008   1.7279   O.2       1 RES1   0.0000
    32 C32     -1.0239  16.3338   1.8922   C.2       1 RES1   0.0000
    33 C33     -1.3327  17.5435   2.5179   C.2       1 RES1   0.0000
    34 C34     -1.0335  18.7671   1.9209   C.2       1 RES1   0.0000
    35 C35     -0.4351  18.8213   0.6784   C.2       1 RES1   0.0000
    36 N36     -0.0741  19.8926  -0.0663   N.2       1 RES1   0.0000
    37 C37      0.4792  19.5388  -1.2372   C.2       1 RES1   0.0000
    38 S38      0.6042  17.8297  -1.5208   S.3       1 RES1   0.0000
    39 C39     -0.1265  17.6318   0.0150   C.2       1 RES1   0.0000
    40 C40     -0.4212  16.4014   0.6263   C.2       1 RES1   0.0000
@<TRIPOS>BOND
     1     1     2    1
     2     2     3    1
     3     3     4    1
     4     3     5    1
     5     5     6    1
     6     6     7    1
     7     7     8    1
     8     8     9    1
     9     8    10    1
    10    10    11    1
    11    11    12    1
    12    12    13    2
    13    13    14    1
    14    14    15    2
    15    15    16    1
    16    16    17    2
    17    10    18    1
    18    18    19   am
    19    19    20    2
    20    19    21    1
    21    21    22    1
    22    23    22    1
    23    23    24    1
    24    24    25    1
    25    25    26    1
    26    26    27    2
    27    26    28   am
    28     6    29    1
    29    29    30    2
    30    29    31    2
    31    29    32    1
    32    32    33    2
    33    33    34    1
    34    34    35    2
    35    35    36    1
    36    36    37    2
    37    37    38    1
    38    38    39    1
    39    39    40    2
    40    17    12    1
    41    28    23    1
    42    40    32    1
    43    39    35    1
@<TRIPOS>SUBSTRUCTURE
     1 RES1        1 GROUP             0 ****  ****    0  
@<TRIPOS>MOLECULE
ligand_53
    40    43     1     0     0
SMALL
NO_CHARGES
****
Generated from the CSD

@<TRIPOS>ATOM
     1 C1       3.6155  16.7781   3.5850   C.3       1 RES1   0.0000
     2 C2       2.5810  15.7769   4.0749   C.3       1 RES1   0.0000
     3 C3       1.2344  16.4117   4.4412   C.3       1 RES1   0.0000
     4 C4       1.4232  17.4280   5.5681   C.3       1 RES1   0.0000
     5 C5       0.2260  15.2939   4.7603   C.3       1 RES1   0.0000
     6 N6      -0.0545  14.4509   3.5750   N.3       1 RES1   0.0000
     7 C7      -0.0481  13.0013   3.9062   C.3       1 RES1   0.0000
     8 C8       0.7423  12.2497   2.8253   C.3       1 RES1   0.0000
     9 O9       2.0930  12.7210   2.8475   O.3       1 RES1   0.0000
    10 C10      0.7141  10.7287   2.9925   C.3       1 RES1   0.0000
    11 C11      1.5421   9.9639   1.9553   C.3       1 RES1   0.0000
    12 C12      1.6169   8.4817   2.2903   C.2       1 RES1   0.0000
    13 C13      2.6491   8.0111   3.0927   C.2       1 RES1   0.0000
    14 C14      2.7278   6.6569   3.4119   C.2       1 RES1   0.0000
    15 C15      1.7705   5.7692   2.9355   C.2       1 RES1   0.0000
    16 C16      0.7357   6.2385   2.1349   C.2       1 RES1   0.0000
    17 C17      0.6596   7.5930   1.8224   C.2       1 RES1   0.0000
    18 N18     -0.6594  10.2569   2.9210   N.am      1 RES1   0.0000
    19 C19     -1.3700   9.7698   3.9333   C.2       1 RES1   0.0000
    20 O20     -0.9821   9.6415   5.0829   O.2       1 RES1   0.0000
    21 O21     -2.7124   9.3240   3.6033   O.3       1 RES1   0.0000
    22 C22     -3.5407   8.7521   4.6169   C.3       1 RES1   0.0000
    23 C23     -4.8576   8.3990   3.9477   C.3       1 RES1   0.0000
    24 C24     -5.6301   9.6994   3.6568   C.3       1 RES1   0.0000
    25 C25     -6.6218   9.9225   4.8281   C.3       1 RES1   0.0000
    26 C26     -6.6620   8.6136   5.5631   C.2       1 RES1   0.0000
    27 O27     -7.3973   8.3275   6.4790   O.2       1 RES1   0.0000
    28 N28     -5.7613   7.7684   4.9684   N.am      1 RES1   0.0000
    29 S29     -1.3413  14.9472   2.7078   S.o2      1 RES1   0.0000
    30 O30     -2.4151  15.1551   3.6302   O.2       1 RES1   0.0000
    31 O31     -1.5827  13.9073   1.7351   O.2       1 RES1   0.0000
    32 C32     -1.0110  16.3372   1.8934   C.2       1 RES1   0.0000
    33 C33     -0.4627  16.2327   0.6133   C.2       1 RES1   0.0000
    34 C34     -0.2109  17.3626  -0.1633   C.2       1 RES1   0.0000
    35 C35     -0.4814  18.6275   0.3182   C.2       1 RES1   0.0000
    36 N36     -0.3053  19.8358  -0.2663   N.2       1 RES1   0.0000
    37 C37     -0.6831  20.8489   0.5295   C.2       1 RES1   0.0000
    38 S38     -1.2981  20.3889   2.0874   S.3       1 RES1   0.0000
    39 C39     -1.0150  18.7719   1.6006   C.2       1 RES1   0.0000
    40 C40     -1.2761  17.6287   2.3748   C.2       1 RES1   0.0000
@<TRIPOS>BOND
     1     1     2    1
     2     2     3    1
     3     3     4    1
     4     3     5    1
     5     5     6    1
     6     6     7    1
     7     7     8    1
     8     8     9    1
     9     8    10    1
    10    10    11    1
    11    11    12    1
    12    12    13    2
    13    13    14    1
    14    14    15    2
    15    15    16    1
    16    16    17    2
    17    10    18    1
    18    18    19   am
    19    19    20    2
    20    19    21    1
    21    21    22    1
    22    23    22    1
    23    23    24    1
    24    24    25    1
    25    25    26    1
    26    26    27    2
    27    26    28   am
    28     6    29    1
    29    29    30    2
    30    29    31    2
    31    29    32    1
    32    32    33    2
    33    33    34    1
    34    34    35    2
    35    35    36    1
    36    36    37    2
    37    37    38    1
    38    38    39    1
    39    39    40    2
    40    17    12    1
    41    28    23    1
    42    40    32    1
    43    39    35    1
@<TRIPOS>SUBSTRUCTURE
     1 RES1        1 GROUP             0 ****  ****    0  
@<TRIPOS>MOLECULE
ligand_54
    40    43     1     0     0
SMALL
NO_CHARGES
****
Generated from the CSD

@<TRIPOS>ATOM
     1 C1       2.3596  16.1466   0.4259   C.3       1 RES1   0.0000
     2 C2       2.0141  15.3241   1.6575   C.3       1 RES1   0.0000
     3 C3       1.5155  16.1640   2.8393   C.3       1 RES1   0.0000
     4 C4       2.6055  17.1390   3.2863   C.3       1 RES1   0.0000
     5 C5       1.0184  15.2197   3.9481   C.3       1 RES1   0.0000
     6 N6      -0.1578  14.4312   3.5132   N.3       1 RES1   0.0000
     7 C7      -0.0481  13.0013   3.9062   C.3       1 RES1   0.0000
     8 C8       0.7423  12.2497   2.8253   C.3       1 RES1   0.0000
     9 O9       2.0930  12.7210   2.8475   O.3       1 RES1   0.0000
    10 C10      0.7141  10.7287   2.9925   C.3       1 RES1   0.0000
    11 C11      1.5421   9.9639   1.9553   C.3       1 RES1   0.0000
    12 C12      1.6169   8.4817   2.2903   C.2       1 RES1   0.0000
    13 C13      2.6491   8.0111   3.0927   C.2       1 RES1   0.0000
    14 C14      2.7278   6.6569   3.4119   C.2       1 RES1   0.0000
    15 C15      1.7705   5.7692   2.9355   C.2       1 RES1   0.0000
    16 C16      0.7357   6.2385   2.1349   C.2       1 RES1   0.0000
    17 C17      0.6596   7.5930   1.8224   C.2       1 RES1   0.0000
    18 N18     -0.6594  10.2569   2.9210   N.am      1 RES1   0.0000
    19 C19     -1.3700   9.7698   3.9333   C.2       1 RES1   0.0000
    20 O20     -0.9821   9.6415   5.0829   O.2       1 RES1   0.0000
    21 O21     -2.7124   9.3240   3.6033   O.3       1 RES1   0.0000
    22 C22     -3.5407   8.7521   4.6169   C.3       1 RES1   0.0000
    23 C23     -4.8576   8.3990   3.9477   C.3       1 RES1   0.0000
    24 C24     -5.6301   9.6994   3.6568   C.3       1 RES1   0.0000
    25 C25     -6.6218   9.9225   4.8281   C.3       1 RES1   0.0000
    26 C26     -6.6620   8.6136   5.5631   C.2       1 RES1   0.0000
    27 O27     -7.3973   8.3275   6.4790   O.2       1 RES1   0.0000
    28 N28     -5.7613   7.7684   4.9684   N.am      1 RES1   0.0000
    29 S29     -1.5847  15.1304   3.8727   S.o2      1 RES1   0.0000
    30 O30     -1.5498  15.4663   5.2631   O.2       1 RES1   0.0000
    31 O31     -2.5957  14.1622   3.5175   O.2       1 RES1   0.0000
    32 C32     -1.8327  16.4794   2.9655   C.2       1 RES1   0.0000
    33 C33     -1.4229  17.7070   3.4901   C.2       1 RES1   0.0000
    34 C34     -1.5439  18.8867   2.7574   C.2       1 RES1   0.0000
    35 C35     -2.0914  18.8803   1.4904   C.2       1 RES1   0.0000
    36 N36     -2.3012  19.9036   0.6294   N.2       1 RES1   0.0000
    37 C37     -2.8694  19.4988  -0.5177   C.2       1 RES1   0.0000
    38 S38     -3.1952  17.7965  -0.6325   S.3       1 RES1   0.0000
    39 C39     -2.5275  17.6735   0.9394   C.2       1 RES1   0.0000
    40 C40     -2.3935  16.4861   1.6787   C.2       1 RES1   0.0000
@<TRIPOS>BOND
     1     1     2    1
     2     2     3    1
     3     3     4    1
     4     3     5    1
     5     5     6    1
     6     6     7    1
     7     7     8    1
     8     8     9    1
     9     8    10    1
    10    10    11    1
    11    11    12    1
    12    12    13    2
    13    13    14    1
    14    14    15    2
    15    15    16    1
    16    16    17    2
    17    10    18    1
    18    18    19   am
    19    19    20    2
    20    19    21    1
    21    21    22    1
    22    23    22    1
    23    23    24    1
    24    24    25    1
    25    25    26    1
    26    26    27    2
    27    26    28   am
    28     6    29    1
    29    29    30    2
    30    29    31    2
    31    29    32    1
    32    32    33    2
    33    33    34    1
    34    34    35    2
    35    35    36    1
    36    36    37    2
    37    37    38    1
    38    38    39    1
    39    39    40    2
    40    17    12    1
    41    28    23    1
    42    40    32    1
    43    39    35    1
@<TRIPOS>SUBSTRUCTURE
     1 RES1        1 GROUP             0 ****  ****    0  
@<TRIPOS>MOLECULE
ligand_55
    40    43     1     0     0
SMALL
NO_CHARGES
****
Generated from the CSD

@<TRIPOS>ATOM
     1 C1       2.3652  16.1771   0.4474   C.3       1 RES1   0.0000
     2 C2       2.0157  15.3418   1.6692   C.3       1 RES1   0.0000
     3 C3       1.5254  16.1703   2.8623   C.3       1 RES1   0.0000
     4 C4       2.6222  17.1336   3.3178   C.3       1 RES1   0.0000
     5 C5       1.0260  15.2157   3.9612   C.3       1 RES1   0.0000
     6 N6      -0.1506  14.4329   3.5173   N.3       1 RES1   0.0000
     7 C7      -0.0481  13.0013   3.9062   C.3       1 RES1   0.0000
     8 C8       0.7423  12.2497   2.8253   C.3       1 RES1   0.0000
     9 O9       2.0930  12.7210   2.8475   O.3       1 RES1   0.0000
    10 C10      0.7141  10.7287   2.9925   C.3       1 RES1   0.0000
    11 C11      1.5421   9.9639   1.9553   C.3       1 RES1   0.0000
    12 C12      1.6169   8.4817   2.2903   C.2       1 RES1   0.0000
    13 C13      2.6491   8.0111   3.0927   C.2       1 RES1   0.0000
    14 C14      2.7278   6.6569   3.4119   C.2       1 RES1   0.0000
    15 C15      1.7705   5.7692   2.9355   C.2       1 RES1   0.0000
    16 C16      0.7357   6.2385   2.1349   C.2       1 RES1   0.0000
    17 C17      0.6596   7.5930   1.8224   C.2       1 RES1   0.0000
    18 N18     -0.6594  10.2569   2.9210   N.am      1 RES1   0.0000
    19 C19     -1.3700   9.7698   3.9333   C.2       1 RES1   0.0000
    20 O20     -0.9821   9.6415   5.0829   O.2       1 RES1   0.0000
    21 O21     -2.7124   9.3240   3.6033   O.3       1 RES1   0.0000
    22 C22     -3.5407   8.7521   4.6169   C.3       1 RES1   0.0000
    23 C23     -4.8576   8.3990   3.9477   C.3       1 RES1   0.0000
    24 C24     -5.6301   9.6994   3.6568   C.3       1 RES1   0.0000
    25 C25     -6.6218   9.9225   4.8281   C.3       1 RES1   0.0000
    26 C26     -6.6620   8.6136   5.5631   C.2       1 RES1   0.0000
    27 O27     -7.3973   8.3275   6.4790   O.2       1 RES1   0.0000
    28 N28     -5.7613   7.7684   4.9684   N.am      1 RES1   0.0000
    29 S29     -1.5769  15.1360   3.8714   S.o2      1 RES1   0.0000
    30 O30     -1.5444  15.4762   5.2608   O.2       1 RES1   0.0000
    31 O31     -2.5890  14.1687   3.5170   O.2       1 RES1   0.0000
    32 C32     -1.8202  16.4826   2.9593   C.2       1 RES1   0.0000
    33 C33     -2.4409  16.3302   1.7177   C.2       1 RES1   0.0000
    34 C34     -2.7359  17.4299   0.9134   C.2       1 RES1   0.0000
    35 C35     -2.4065  18.7090   1.3141   C.2       1 RES1   0.0000
    36 N36     -2.5970  19.8926   0.6855   N.2       1 RES1   0.0000
    37 C37     -2.1287  20.9307   1.3964   C.2       1 RES1   0.0000
    38 S38     -1.4054  20.5277   2.9233   S.3       1 RES1   0.0000
    39 C39     -1.7701  18.8986   2.5426   C.2       1 RES1   0.0000
    40 C40     -1.4844  17.7872   3.3535   C.2       1 RES1   0.0000
@<TRIPOS>BOND
     1     1     2    1
     2     2     3    1
     3     3     4    1
     4     3     5    1
     5     5     6    1
     6     6     7    1
     7     7     8    1
     8     8     9    1
     9     8    10    1
    10    10    11    1
    11    11    12    1
    12    12    13    2
    13    13    14    1
    14    14    15    2
    15    15    16    1
    16    16    17    2
    17    10    18    1
    18    18    19   am
    19    19    20    2
    20    19    21    1
    21    21    22    1
    22    23    22    1
    23    23    24    1
    24    24    25    1
    25    25    26    1
    26    26    27    2
    27    26    28   am
    28     6    29    1
    29    29    30    2
    30    29    31    2
    31    29    32    1
    32    32    33    2
    33    33    34    1
    34    34    35    2
    35    35    36    1
    36    36    37    2
    37    37    38    1
    38    38    39    1
    39    39    40    2
    40    17    12    1
    41    28    23    1
    42    40    32    1
    43    39    35    1
@<TRIPOS>SUBSTRUCTURE
     1 RES1        1 GROUP             0 ****  ****    0  
@<TRIPOS>MOLECULE
ligand_56
    40    43     1     0     0
SMALL
NO_CHARGES
****
Generated from the CSD

@<TRIPOS>ATOM
     1 C1      -2.3094  11.9115  14.6669   C.3       1 RES1   0.0000
     2 C2      -2.0027  11.1991  13.3589   C.3       1 RES1   0.0000
     3 C3      -1.9799   9.6709  13.4802   C.3       1 RES1   0.0000
     4 C4      -0.8933   9.2394  14.4658   C.3       1 RES1   0.0000
     5 C5      -1.8371   9.0608  12.0746   C.3       1 RES1   0.0000
     6 N6      -3.0025   9.3765  11.2165   N.3       1 RES1   0.0000
     7 C7      -2.5947   9.7551   9.8376   C.3       1 RES1   0.0000
     8 C8      -2.5165  11.2860   9.7469   C.3       1 RES1   0.0000
     9 O9      -1.4672  11.7339  10.6102   O.3       1 RES1   0.0000
    10 C10     -2.2842  11.8041   8.3257   C.3       1 RES1   0.0000
    11 C11     -2.5070  13.3103   8.1582   C.3       1 RES1   0.0000
    12 C12     -2.0832  13.7823   6.7754   C.2       1 RES1   0.0000
    13 C13     -0.7766  14.2061   6.5659   C.2       1 RES1   0.0000
    14 C14     -0.3727  14.6366   5.3035   C.2       1 RES1   0.0000
    15 C15     -1.2723  14.6384   4.2442   C.2       1 RES1   0.0000
    16 C16     -2.5790  14.2123   4.4512   C.2       1 RES1   0.0000
    17 C17     -2.9760  13.7794   5.7133   C.2       1 RES1   0.0000
    18 N18     -3.1644  11.1051   7.4033   N.am      1 RES1   0.0000
    19 C19     -2.7881  10.2186   6.4871   C.2       1 RES1   0.0000
    20 O20     -1.6442   9.8510   6.2752   O.2       1 RES1   0.0000
    21 O21     -3.8510   9.6844   5.6538   O.3       1 RES1   0.0000
    22 C22     -3.5408   8.7521   4.6169   C.3       1 RES1   0.0000
    23 C23     -4.8577   8.3991   3.9477   C.3       1 RES1   0.0000
    24 C24     -5.6276   9.6999   3.6516   C.3       1 RES1   0.0000
    25 C25     -6.6200   9.9288   4.8212   C.3       1 RES1   0.0000
    26 C26     -6.6632   8.6225   5.5607   C.2       1 RES1   0.0000
    27 O27     -7.3999   8.3410   6.4768   O.2       1 RES1   0.0000
    28 N28     -5.7635   7.7737   4.9697   N.am      1 RES1   0.0000
    29 S29     -4.1940   8.2683  11.2959   S.o2      1 RES1   0.0000
    30 O30     -5.3308   8.8247  10.6287   O.2       1 RES1   0.0000
    31 O31     -4.3948   8.0093  12.7024   O.2       1 RES1   0.0000
    32 C32     -3.7449   6.8580  10.5792   C.2       1 RES1   0.0000
    33 C33     -4.0133   6.6997   9.2179   C.2       1 RES1   0.0000
    34 C34     -3.6100   5.5588   8.5260   C.2       1 RES1   0.0000
    35 C35     -2.9442   4.5370   9.1723   C.2       1 RES1   0.0000
    36 N36     -2.4805   3.3602   8.6899   N.2       1 RES1   0.0000
    37 C37     -1.8880   2.6166   9.6377   C.2       1 RES1   0.0000
    38 S38     -1.8510   3.3181  11.2263   S.3       1 RES1   0.0000
    39 C39     -2.6728   4.6529  10.5373   C.2       1 RES1   0.0000
    40 C40     -3.0728   5.8099  11.2271   C.2       1 RES1   0.0000
@<TRIPOS>BOND
     1     1     2    1
     2     2     3    1
     3     3     4    1
     4     3     5    1
     5     5     6    1
     6     6     7    1
     7     7     8    1
     8     8     9    1
     9     8    10    1
    10    10    11    1
    11    11    12    1
    12    12    13    2
    13    13    14    1
    14    14    15    2
    15    15    16    1
    16    16    17    2
    17    10    18    1
    18    18    19   am
    19    19    20    2
    20    19    21    1
    21    21    22    1
    22    23    22    1
    23    23    24    1
    24    24    25    1
    25    25    26    1
    26    26    27    2
    27    26    28   am
    28     6    29    1
    29    29    30    2
    30    29    31    2
    31    29    32    1
    32    32    33    2
    33    33    34    1
    34    34    35    2
    35    35    36    1
    36    36    37    2
    37    37    38    1
    38    38    39    1
    39    39    40    2
    40    17    12    1
    41    28    23    1
    42    40    32    1
    43    39    35    1
@<TRIPOS>SUBSTRUCTURE
     1 RES1        1 GROUP             0 ****  ****    0  
@<TRIPOS>MOLECULE
ligand_57
    40    43     1     0     0
SMALL
NO_CHARGES
****
Generated from the CSD

@<TRIPOS>ATOM
     1 C1      -0.0594   7.7733   7.5601   C.3       1 RES1   0.0000
     2 C2      -0.5559   8.6038   8.7333   C.3       1 RES1   0.0000
     3 C3       0.4360   8.6768   9.9001   C.3       1 RES1   0.0000
     4 C4       0.7011   7.2751  10.4511   C.3       1 RES1   0.0000
     5 C5      -0.0934   9.6765  10.9434   C.3       1 RES1   0.0000
     6 N6      -0.1588  11.0539  10.4022   N.3       1 RES1   0.0000
     7 C7      -1.4381  11.7292  10.7463   C.3       1 RES1   0.0000
     8 C8      -2.5165  11.2860   9.7469   C.3       1 RES1   0.0000
     9 O9      -3.7871  11.7319  10.2303   O.3       1 RES1   0.0000
    10 C10     -2.2842  11.8041   8.3257   C.3       1 RES1   0.0000
    11 C11     -2.4733  13.3157   8.1657   C.3       1 RES1   0.0000
    12 C12     -2.0503  13.7831   6.7810   C.2       1 RES1   0.0000
    13 C13     -0.7360  14.1773   6.5620   C.2       1 RES1   0.0000
    14 C14     -0.3329  14.6032   5.2978   C.2       1 RES1   0.0000
    15 C15     -1.2411  14.6300   4.2462   C.2       1 RES1   0.0000
    16 C16     -2.5555  14.2336   4.4628   C.2       1 RES1   0.0000
    17 C17     -2.9519  13.8051   5.7266   C.2       1 RES1   0.0000
    18 N18     -3.1882  11.1293   7.4082   N.am      1 RES1   0.0000
    19 C19     -2.8370  10.2595   6.4665   C.2       1 RES1   0.0000
    20 O20     -1.6990   9.8984   6.2150   O.2       1 RES1   0.0000
    21 O21     -3.9227   9.7369   5.6554   O.3       1 RES1   0.0000
    22 C22     -3.6411   8.8232   4.5941   C.3       1 RES1   0.0000
    23 C23     -4.9763   8.4784   3.9577   C.3       1 RES1   0.0000
    24 C24     -5.7570   9.7821   3.7063   C.3       1 RES1   0.0000
    25 C25     -6.7153   9.9888   4.9080   C.3       1 RES1   0.0000
    26 C26     -6.7343   8.6701   5.6262   C.2       1 RES1   0.0000
    27 O27     -7.4435   8.3713   6.5585   O.2       1 RES1   0.0000
    28 N28     -5.8506   7.8336   4.9949   N.am      1 RES1   0.0000
    29 S29      1.1790  11.9367  10.6940   S.o2      1 RES1   0.0000
    30 O30      1.0754  13.1287   9.9095   O.2       1 RES1   0.0000
    31 O31      2.2930  11.0867  10.3444   O.2       1 RES1   0.0000
    32 C32      1.3086  12.3127  12.2897   C.2       1 RES1   0.0000
    33 C33      0.7189  13.4980  12.7341   C.2       1 RES1   0.0000
    34 C34      0.7337  13.8559  14.0812   C.2       1 RES1   0.0000
    35 C35      1.3500  13.0539  15.0203   C.2       1 RES1   0.0000
    36 N36      1.4798  13.2234  16.3571   N.2       1 RES1   0.0000
    37 C37      2.1594  12.2210  16.9363   C.2       1 RES1   0.0000
    38 S38      2.7015  10.9659  15.8649   S.3       1 RES1   0.0000
    39 C39      1.9646  11.8688  14.6105   C.2       1 RES1   0.0000
    40 C40      1.9375  11.5082  13.2527   C.2       1 RES1   0.0000
@<TRIPOS>BOND
     1     1     2    1
     2     2     3    1
     3     3     4    1
     4     3     5    1
     5     5     6    1
     6     6     7    1
     7     7     8    1
     8     8     9    1
     9     8    10    1
    10    10    11    1
    11    11    12    1
    12    12    13    2
    13    13    14    1
    14    14    15    2
    15    15    16    1
    16    16    17    2
    17    10    18    1
    18    18    19   am
    19    19    20    2
    20    19    21    1
    21    21    22    1
    22    23    22    1
    23    23    24    1
    24    24    25    1
    25    25    26    1
    26    26    27    2
    27    26    28   am
    28     6    29    1
    29    29    30    2
    30    29    31    2
    31    29    32    1
    32    32    33    2
    33    33    34    1
    34    34    35    2
    35    35    36    1
    36    36    37    2
    37    37    38    1
    38    38    39    1
    39    39    40    2
    40    17    12    1
    41    28    23    1
    42    40    32    1
    43    39    35    1
@<TRIPOS>SUBSTRUCTURE
     1 RES1        1 GROUP             0 ****  ****    0  
@<TRIPOS>MOLECULE
ligand_58
    40    43     1     0     0
SMALL
NO_CHARGES
****
Generated from the CSD

@<TRIPOS>ATOM
     1 C1      -0.0594   7.7733   7.5601   C.3       1 RES1   0.0000
     2 C2      -0.5559   8.6038   8.7333   C.3       1 RES1   0.0000
     3 C3       0.4360   8.6768   9.9001   C.3       1 RES1   0.0000
     4 C4       0.7011   7.2751  10.4511   C.3       1 RES1   0.0000
     5 C5      -0.0934   9.6765  10.9434   C.3       1 RES1   0.0000
     6 N6      -0.1588  11.0539  10.4022   N.3       1 RES1   0.0000
     7 C7      -1.4381  11.7292  10.7463   C.3       1 RES1   0.0000
     8 C8      -2.5165  11.2860   9.7469   C.3       1 RES1   0.0000
     9 O9      -3.7871  11.7319  10.2303   O.3       1 RES1   0.0000
    10 C10     -2.2842  11.8041   8.3257   C.3       1 RES1   0.0000
    11 C11     -2.4733  13.3157   8.1657   C.3       1 RES1   0.0000
    12 C12     -2.0503  13.7831   6.7810   C.2       1 RES1   0.0000
    13 C13     -0.7360  14.1773   6.5620   C.2       1 RES1   0.0000
    14 C14     -0.3329  14.6032   5.2978   C.2       1 RES1   0.0000
    15 C15     -1.2411  14.6300   4.2462   C.2       1 RES1   0.0000
    16 C16     -2.5555  14.2336   4.4628   C.2       1 RES1   0.0000
    17 C17     -2.9519  13.8051   5.7266   C.2       1 RES1   0.0000
    18 N18     -3.1882  11.1293   7.4082   N.am      1 RES1   0.0000
    19 C19     -2.8370  10.2595   6.4665   C.2       1 RES1   0.0000
    20 O20     -1.6990   9.8984   6.2150   O.2       1 RES1   0.0000
    21 O21     -3.9227   9.7369   5.6554   O.3       1 RES1   0.0000
    22 C22     -3.6411   8.8232   4.5941   C.3       1 RES1   0.0000
    23 C23     -4.9763   8.4784   3.9577   C.3       1 RES1   0.0000
    24 C24     -5.7570   9.7821   3.7063   C.3       1 RES1   0.0000
    25 C25     -6.7153   9.9888   4.9080   C.3       1 RES1   0.0000
    26 C26     -6.7343   8.6701   5.6262   C.2       1 RES1   0.0000
    27 O27     -7.4435   8.3713   6.5585   O.2       1 RES1   0.0000
    28 N28     -5.8506   7.8336   4.9949   N.am      1 RES1   0.0000
    29 S29      1.1790  11.9367  10.6940   S.o2      1 RES1   0.0000
    30 O30      1.0754  13.1287   9.9095   O.2       1 RES1   0.0000
    31 O31      2.2930  11.0867  10.3444   O.2       1 RES1   0.0000
    32 C32      1.3086  12.3127  12.2897   C.2       1 RES1   0.0000
    33 C33      2.0016  11.4273  13.1179   C.2       1 RES1   0.0000
    34 C34      2.2058  11.7051  14.4685   C.2       1 RES1   0.0000
    35 C35      1.7119  12.8622  15.0361   C.2       1 RES1   0.0000
    36 N36      1.7942  13.3083  16.3115   N.2       1 RES1   0.0000
    37 C37      1.1755  14.4874  16.4821   C.2       1 RES1   0.0000
    38 S38      0.4310  15.1554  15.0620   S.3       1 RES1   0.0000
    39 C39      0.9995  13.7637  14.2423   C.2       1 RES1   0.0000
    40 C40      0.8056  13.4831  12.8792   C.2       1 RES1   0.0000
@<TRIPOS>BOND
     1     1     2    1
     2     2     3    1
     3     3     4    1
     4     3     5    1
     5     5     6    1
     6     6     7    1
     7     7     8    1
     8     8     9    1
     9     8    10    1
    10    10    11    1
    11    11    12    1
    12    12    13    2
    13    13    14    1
    14    14    15    2
    15    15    16    1
    16    16    17    2
    17    10    18    1
    18    18    19   am
    19    19    20    2
    20    19    21    1
    21    21    22    1
    22    23    22    1
    23    23    24    1
    24    24    25    1
    25    25    26    1
    26    26    27    2
    27    26    28   am
    28     6    29    1
    29    29    30    2
    30    29    31    2
    31    29    32    1
    32    32    33    2
    33    33    34    1
    34    34    35    2
    35    35    36    1
    36    36    37    2
    37    37    38    1
    38    38    39    1
    39    39    40    2
    40    17    12    1
    41    28    23    1
    42    40    32    1
    43    39    35    1
@<TRIPOS>SUBSTRUCTURE
     1 RES1        1 GROUP             0 ****  ****    0  
@<TRIPOS>MOLECULE
ligand_59
    40    43     1     0     0
SMALL
NO_CHARGES
****
Generated from the CSD

@<TRIPOS>ATOM
     1 C1       1.4986  14.4189  -1.8234   C.3       1 RES1   0.0000
     2 C2       1.5096  14.2437  -0.3129   C.3       1 RES1   0.0000
     3 C3       1.2742  15.5465   0.4603   C.3       1 RES1   0.0000
     4 C4       2.3796  16.5534   0.1396   C.3       1 RES1   0.0000
     5 C5       1.1316  15.2196   1.9573   C.3       1 RES1   0.0000
     6 N6      -0.0610  14.3834   2.2268   N.3       1 RES1   0.0000
     7 C7       0.2472  13.2471   3.1351   C.3       1 RES1   0.0000
     8 C8       0.8238  12.0914   2.3046   C.3       1 RES1   0.0000
     9 O9       2.1935  12.3862   2.0151   O.3       1 RES1   0.0000
    10 C10      0.7141  10.7287   2.9925   C.3       1 RES1   0.0000
    11 C11      1.6270   9.6487   2.4038   C.3       1 RES1   0.0000
    12 C12      1.6012   8.3823   3.2467   C.2       1 RES1   0.0000
    13 C13      2.5114   8.2313   4.2856   C.2       1 RES1   0.0000
    14 C14      2.4966   7.0789   5.0692   C.2       1 RES1   0.0000
    15 C15      1.5669   6.0762   4.8208   C.2       1 RES1   0.0000
    16 C16      0.6540   6.2266   3.7836   C.2       1 RES1   0.0000
    17 C17      0.6705   7.3817   3.0066   C.2       1 RES1   0.0000
    18 N18     -0.6594  10.2569   2.9210   N.am      1 RES1   0.0000
    19 C19     -1.3700   9.7698   3.9333   C.2       1 RES1   0.0000
    20 O20     -0.9821   9.6415   5.0829   O.2       1 RES1   0.0000
    21 O21     -2.7124   9.3240   3.6033   O.3       1 RES1   0.0000
    22 C22     -3.5407   8.7521   4.6169   C.3       1 RES1   0.0000
    23 C23     -4.8576   8.3990   3.9477   C.3       1 RES1   0.0000
    24 C24     -5.6301   9.6994   3.6568   C.3       1 RES1   0.0000
    25 C25     -6.6218   9.9225   4.8281   C.3       1 RES1   0.0000
    26 C26     -6.6620   8.6136   5.5631   C.2       1 RES1   0.0000
    27 O27     -7.3973   8.3275   6.4790   O.2       1 RES1   0.0000
    28 N28     -5.7613   7.7684   4.9684   N.am      1 RES1   0.0000
    29 S29     -1.3850  15.2417   2.6324   S.o2      1 RES1   0.0000
    30 O30     -2.4940  14.3378   2.6137   O.2       1 RES1   0.0000
    31 O31     -1.4699  16.3110   1.6653   O.2       1 RES1   0.0000
    32 C32     -1.2239  15.9170   4.1231   C.2       1 RES1   0.0000
    33 C33     -1.6562  15.1795   5.2273   C.2       1 RES1   0.0000
    34 C34     -1.4985  15.6580   6.5271   C.2       1 RES1   0.0000
    35 C35     -0.9225  16.8898   6.7632   C.2       1 RES1   0.0000
    36 N36     -0.6882  17.5297   7.9329   N.2       1 RES1   0.0000
    37 C37     -0.1118  18.7289   7.7536   C.2       1 RES1   0.0000
    38 S38      0.1958  19.1731   6.1028   S.3       1 RES1   0.0000
    39 C39     -0.4930  17.6629   5.6824   C.2       1 RES1   0.0000
    40 C40     -0.6453  17.1708   4.3751   C.2       1 RES1   0.0000
@<TRIPOS>BOND
     1     1     2    1
     2     2     3    1
     3     3     4    1
     4     3     5    1
     5     5     6    1
     6     6     7    1
     7     7     8    1
     8     8     9    1
     9     8    10    1
    10    10    11    1
    11    11    12    1
    12    12    13    2
    13    13    14    1
    14    14    15    2
    15    15    16    1
    16    16    17    2
    17    10    18    1
    18    18    19   am
    19    19    20    2
    20    19    21    1
    21    21    22    1
    22    23    22    1
    23    23    24    1
    24    24    25    1
    25    25    26    1
    26    26    27    2
    27    26    28   am
    28     6    29    1
    29    29    30    2
    30    29    31    2
    31    29    32    1
    32    32    33    2
    33    33    34    1
    34    34    35    2
    35    35    36    1
    36    36    37    2
    37    37    38    1
    38    38    39    1
    39    39    40    2
    40    17    12    1
    41    28    23    1
    42    40    32    1
    43    39    35    1
@<TRIPOS>SUBSTRUCTURE
     1 RES1        1 GROUP             0 ****  ****    0  
@<TRIPOS>MOLECULE
ligand_60
    40    43     1     0     0
SMALL
NO_CHARGES
****
Generated from the CSD

@<TRIPOS>ATOM
     1 C1      -0.9304  11.5490   7.2832   C.3       1 RES1   0.0000
     2 C2      -0.2379  12.3013   6.1575   C.3       1 RES1   0.0000
     3 C3       0.8682  13.2479   6.6381   C.3       1 RES1   0.0000
     4 C4       0.2808  14.3126   7.5654   C.3       1 RES1   0.0000
     5 C5       1.6073  13.8145   5.4130   C.3       1 RES1   0.0000
     6 N6       2.3071  12.7531   4.6529   N.3       1 RES1   0.0000
     7 C7       2.0938  12.8826   3.1870   C.3       1 RES1   0.0000
     8 C8       0.7423  12.2497   2.8253   C.3       1 RES1   0.0000
     9 O9       0.4293  12.6008   1.4741   O.3       1 RES1   0.0000
    10 C10      0.7141  10.7287   2.9925   C.3       1 RES1   0.0000
    11 C11      1.5697   9.9657   1.9766   C.3       1 RES1   0.0000
    12 C12      1.6402   8.4839   2.3141   C.2       1 RES1   0.0000
    13 C13      2.6534   8.0165   3.1421   C.2       1 RES1   0.0000
    14 C14      2.7278   6.6626   3.4639   C.2       1 RES1   0.0000
    15 C15      1.7851   5.7721   2.9642   C.2       1 RES1   0.0000
    16 C16      0.7693   6.2382   2.1379   C.2       1 RES1   0.0000
    17 C17      0.6973   7.5923   1.8230   C.2       1 RES1   0.0000
    18 N18     -0.6559  10.2531   2.8871   N.am      1 RES1   0.0000
    19 C19     -1.3805   9.7380   3.8753   C.2       1 RES1   0.0000
    20 O20     -1.0066   9.5719   5.0247   O.2       1 RES1   0.0000
    21 O21     -2.7209   9.3092   3.5161   O.3       1 RES1   0.0000
    22 C22     -3.5636   8.7099   4.5015   C.3       1 RES1   0.0000
    23 C23     -4.8741   8.3843   3.8064   C.3       1 RES1   0.0000
    24 C24     -5.6373   9.6968   3.5476   C.3       1 RES1   0.0000
    25 C25     -6.6417   9.8879   4.7138   C.3       1 RES1   0.0000
    26 C26     -6.6962   8.5568   5.4069   C.2       1 RES1   0.0000
    27 O27     -7.4435   8.2458   6.3047   O.2       1 RES1   0.0000
    28 N28     -5.7924   7.7264   4.7963   N.am      1 RES1   0.0000
    29 S29      3.8591  12.5412   5.1007   S.o2      1 RES1   0.0000
    30 O30      4.3177  11.3403   4.4725   O.2       1 RES1   0.0000
    31 O31      3.8471  12.4931   6.5440   O.2       1 RES1   0.0000
    32 C32      4.7908  13.8167   4.6431   C.2       1 RES1   0.0000
    33 C33      5.3965  13.7686   3.3857   C.2       1 RES1   0.0000
    34 C34      6.1515  14.8359   2.9019   C.2       1 RES1   0.0000
    35 C35      6.3389  15.9726   3.6620   C.2       1 RES1   0.0000
    36 N36      7.0333  17.1004   3.3819   N.2       1 RES1   0.0000
    37 C37      6.9898  17.9907   4.3858   C.2       1 RES1   0.0000
    38 S38      6.0733  17.5047   5.7791   S.3       1 RES1   0.0000
    39 C39      5.7619  16.0499   4.9313   C.2       1 RES1   0.0000
    40 C40      4.9935  14.9750   5.4094   C.2       1 RES1   0.0000
@<TRIPOS>BOND
     1     1     2    1
     2     2     3    1
     3     3     4    1
     4     3     5    1
     5     5     6    1
     6     6     7    1
     7     7     8    1
     8     8     9    1
     9     8    10    1
    10    10    11    1
    11    11    12    1
    12    12    13    2
    13    13    14    1
    14    14    15    2
    15    15    16    1
    16    16    17    2
    17    10    18    1
    18    18    19   am
    19    19    20    2
    20    19    21    1
    21    21    22    1
    22    23    22    1
    23    23    24    1
    24    24    25    1
    25    25    26    1
    26    26    27    2
    27    26    28   am
    28     6    29    1
    29    29    30    2
    30    29    31    2
    31    29    32    1
    32    32    33    2
    33    33    34    1
    34    34    35    2
    35    35    36    1
    36    36    37    2
    37    37    38    1
    38    38    39    1
    39    39    40    2
    40    17    12    1
    41    28    23    1
    42    40    32    1
    43    39    35    1
@<TRIPOS>SUBSTRUCTURE
     1 RES1        1 GROUP             0 ****  ****    0  
@<TRIPOS>MOLECULE
ligand_61
    40    43     1     0     0
SMALL
NO_CHARGES
****
Generated from the CSD

@<TRIPOS>ATOM
     1 C1      -0.9304  11.5490   7.2832   C.3       1 RES1   0.0000
     2 C2      -0.2379  12.3013   6.1575   C.3       1 RES1   0.0000
     3 C3       0.8682  13.2479   6.6381   C.3       1 RES1   0.0000
     4 C4       0.2808  14.3126   7.5654   C.3       1 RES1   0.0000
     5 C5       1.6073  13.8145   5.4130   C.3       1 RES1   0.0000
     6 N6       2.3071  12.7531   4.6529   N.3       1 RES1   0.0000
     7 C7       2.0938  12.8826   3.1870   C.3       1 RES1   0.0000
     8 C8       0.7423  12.2497   2.8253   C.3       1 RES1   0.0000
     9 O9       0.4293  12.6008   1.4741   O.3       1 RES1   0.0000
    10 C10      0.7141  10.7287   2.9925   C.3       1 RES1   0.0000
    11 C11      1.5697   9.9657   1.9766   C.3       1 RES1   0.0000
    12 C12      1.6402   8.4839   2.3141   C.2       1 RES1   0.0000
    13 C13      2.6534   8.0165   3.1421   C.2       1 RES1   0.0000
    14 C14      2.7278   6.6626   3.4639   C.2       1 RES1   0.0000
    15 C15      1.7851   5.7721   2.9642   C.2       1 RES1   0.0000
    16 C16      0.7693   6.2382   2.1379   C.2       1 RES1   0.0000
    17 C17      0.6973   7.5923   1.8230   C.2       1 RES1   0.0000
    18 N18     -0.6559  10.2531   2.8871   N.am      1 RES1   0.0000
    19 C19     -1.3805   9.7380   3.8753   C.2       1 RES1   0.0000
    20 O20     -1.0066   9.5719   5.0247   O.2       1 RES1   0.0000
    21 O21     -2.7209   9.3092   3.5161   O.3       1 RES1   0.0000
    22 C22     -3.5636   8.7099   4.5015   C.3       1 RES1   0.0000
    23 C23     -4.8741   8.3843   3.8064   C.3       1 RES1   0.0000
    24 C24     -5.6373   9.6968   3.5476   C.3       1 RES1   0.0000
    25 C25     -6.6417   9.8879   4.7138   C.3       1 RES1   0.0000
    26 C26     -6.6962   8.5568   5.4069   C.2       1 RES1   0.0000
    27 O27     -7.4435   8.2458   6.3047   O.2       1 RES1   0.0000
    28 N28     -5.7924   7.7264   4.7963   N.am      1 RES1   0.0000
    29 S29      3.8591  12.5412   5.1007   S.o2      1 RES1   0.0000
    30 O30      4.3177  11.3403   4.4725   O.2       1 RES1   0.0000
    31 O31      3.8471  12.4931   6.5440   O.2       1 RES1   0.0000
    32 C32      4.7908  13.8167   4.6431   C.2       1 RES1   0.0000
    33 C33      4.9283  14.8820   5.5354   C.2       1 RES1   0.0000
    34 C34      5.7486  15.9711   5.2455   C.2       1 RES1   0.0000
    35 C35      6.4409  16.0386   4.0534   C.2       1 RES1   0.0000
    36 N36      7.2718  16.9988   3.5843   N.2       1 RES1   0.0000
    37 C37      7.7533  16.7079   2.3652   C.2       1 RES1   0.0000
    38 S38      7.2149  15.2024   1.6866   S.3       1 RES1   0.0000
    39 C39      6.3151  14.9992   3.1292   C.2       1 RES1   0.0000
    40 C40      5.4947  13.8992   3.4315   C.2       1 RES1   0.0000
@<TRIPOS>BOND
     1     1     2    1
     2     2     3    1
     3     3     4    1
     4     3     5    1
     5     5     6    1
     6     6     7    1
     7     7     8    1
     8     8     9    1
     9     8    10    1
    10    10    11    1
    11    11    12    1
    12    12    13    2
    13    13    14    1
    14    14    15    2
    15    15    16    1
    16    16    17    2
    17    10    18    1
    18    18    19   am
    19    19    20    2
    20    19    21    1
    21    21    22    1
    22    23    22    1
    23    23    24    1
    24    24    25    1
    25    25    26    1
    26    26    27    2
    27    26    28   am
    28     6    29    1
    29    29    30    2
    30    29    31    2
    31    29    32    1
    32    32    33    2
    33    33    34    1
    34    34    35    2
    35    35    36    1
    36    36    37    2
    37    37    38    1
    38    38    39    1
    39    39    40    2
    40    17    12    1
    41    28    23    1
    42    40    32    1
    43    39    35    1
@<TRIPOS>SUBSTRUCTURE
     1 RES1        1 GROUP             0 ****  ****    0  
@<TRIPOS>MOLECULE
ligand_62
    40    43     1     0     0
SMALL
NO_CHARGES
****
Generated from the CSD

@<TRIPOS>ATOM
     1 C1      -3.2450  13.4897  14.3638   C.3       1 RES1   0.0000
     2 C2      -2.9378  12.4251  13.3222   C.3       1 RES1   0.0000
     3 C3      -3.3302  11.0078  13.7556   C.3       1 RES1   0.0000
     4 C4      -2.5553  10.6106  15.0126   C.3       1 RES1   0.0000
     5 C5      -3.1380  10.0510  12.5657   C.3       1 RES1   0.0000
     6 N6      -4.0375  10.3877  11.4379   N.3       1 RES1   0.0000
     7 C7      -3.3407  10.3134  10.1264   C.3       1 RES1   0.0000
     8 C8      -2.8561  11.7191   9.7427   C.3       1 RES1   0.0000
     9 O9      -1.8706  12.1298  10.6951   O.3       1 RES1   0.0000
    10 C10     -2.2842  11.8041   8.3257   C.3       1 RES1   0.0000
    11 C11     -2.0814  13.2325   7.8111   C.3       1 RES1   0.0000
    12 C12     -1.3446  13.2420   6.4800   C.2       1 RES1   0.0000
    13 C13      0.0433  13.3072   6.4647   C.2       1 RES1   0.0000
    14 C14      0.7320  13.3118   5.2532   C.2       1 RES1   0.0000
    15 C15      0.0356  13.2445   4.0525   C.2       1 RES1   0.0000
    16 C16     -1.3527  13.1767   4.0658   C.2       1 RES1   0.0000
    17 C17     -2.0354  13.1681   5.2790   C.2       1 RES1   0.0000
    18 N18     -3.1644  11.1051   7.4033   N.am      1 RES1   0.0000
    19 C19     -2.7881  10.2186   6.4871   C.2       1 RES1   0.0000
    20 O20     -1.6442   9.8510   6.2752   O.2       1 RES1   0.0000
    21 O21     -3.8510   9.6844   5.6537   O.3       1 RES1   0.0000
    22 C22     -3.5408   8.7521   4.6168   C.3       1 RES1   0.0000
    23 C23     -4.8577   8.3991   3.9477   C.3       1 RES1   0.0000
    24 C24     -5.6276   9.6999   3.6515   C.3       1 RES1   0.0000
    25 C25     -6.6200   9.9288   4.8211   C.3       1 RES1   0.0000
    26 C26     -6.6632   8.6225   5.5606   C.2       1 RES1   0.0000
    27 O27     -7.3999   8.3410   6.4768   O.2       1 RES1   0.0000
    28 N28     -5.7634   7.7737   4.9697   N.am      1 RES1   0.0000
    29 S29     -5.4729   9.6192  11.4926   S.o2      1 RES1   0.0000
    30 O30     -6.3118  10.2244  10.5041   O.2       1 RES1   0.0000
    31 O31     -5.9455   9.7683  12.8492   O.2       1 RES1   0.0000
    32 C32     -5.3005   8.0122  11.1890   C.2       1 RES1   0.0000
    33 C33     -5.0731   7.1608  12.2723   C.2       1 RES1   0.0000
    34 C34     -4.9763   5.7805  12.1034   C.2       1 RES1   0.0000
    35 C35     -5.0859   5.2109  10.8509   C.2       1 RES1   0.0000
    36 N36     -5.0148   3.9116  10.4780   N.2       1 RES1   0.0000
    37 C37     -5.1623   3.7506   9.1534   C.2       1 RES1   0.0000
    38 S38     -5.4067   5.2101   8.2439   S.3       1 RES1   0.0000
    39 C39     -5.2972   6.0326   9.7417   C.2       1 RES1   0.0000
    40 C40     -5.4041   7.4223   9.9195   C.2       1 RES1   0.0000
@<TRIPOS>BOND
     1     1     2    1
     2     2     3    1
     3     3     4    1
     4     3     5    1
     5     5     6    1
     6     6     7    1
     7     7     8    1
     8     8     9    1
     9     8    10    1
    10    10    11    1
    11    11    12    1
    12    12    13    2
    13    13    14    1
    14    14    15    2
    15    15    16    1
    16    16    17    2
    17    10    18    1
    18    18    19   am
    19    19    20    2
    20    19    21    1
    21    21    22    1
    22    23    22    1
    23    23    24    1
    24    24    25    1
    25    25    26    1
    26    26    27    2
    27    26    28   am
    28     6    29    1
    29    29    30    2
    30    29    31    2
    31    29    32    1
    32    32    33    2
    33    33    34    1
    34    34    35    2
    35    35    36    1
    36    36    37    2
    37    37    38    1
    38    38    39    1
    39    39    40    2
    40    17    12    1
    41    28    23    1
    42    40    32    1
    43    39    35    1
@<TRIPOS>SUBSTRUCTURE
     1 RES1        1 GROUP             0 ****  ****    0  
@<TRIPOS>MOLECULE
ligand_63
    40    43     1     0     0
SMALL
NO_CHARGES
****
Generated from the CSD

@<TRIPOS>ATOM
     1 C1       3.5083  15.5604  -0.0192   C.3       1 RES1   0.0000
     2 C2       2.5859  15.0399   1.0721   C.3       1 RES1   0.0000
     3 C3       1.5314  16.0568   1.5243   C.3       1 RES1   0.0000
     4 C4       2.2135  17.2989   2.0991   C.3       1 RES1   0.0000
     5 C5       0.5553  15.3661   2.4931   C.3       1 RES1   0.0000
     6 N6      -0.1983  14.2762   1.8310   N.3       1 RES1   0.0000
     7 C7      -0.2992  13.0657   2.6887   C.3       1 RES1   0.0000
     8 C8       0.8238  12.0914   2.3046   C.3       1 RES1   0.0000
     9 O9       2.0773  12.7028   2.6235   O.3       1 RES1   0.0000
    10 C10      0.7141  10.7287   2.9925   C.3       1 RES1   0.0000
    11 C11      1.6270   9.6487   2.4039   C.3       1 RES1   0.0000
    12 C12      1.6013   8.3823   3.2467   C.2       1 RES1   0.0000
    13 C13      2.5114   8.2313   4.2857   C.2       1 RES1   0.0000
    14 C14      2.4965   7.0789   5.0692   C.2       1 RES1   0.0000
    15 C15      1.5669   6.0762   4.8208   C.2       1 RES1   0.0000
    16 C16      0.6540   6.2266   3.7836   C.2       1 RES1   0.0000
    17 C17      0.6706   7.3817   3.0066   C.2       1 RES1   0.0000
    18 N18     -0.6594  10.2569   2.9210   N.am      1 RES1   0.0000
    19 C19     -1.3700   9.7698   3.9332   C.2       1 RES1   0.0000
    20 O20     -0.9821   9.6415   5.0829   O.2       1 RES1   0.0000
    21 O21     -2.7124   9.3240   3.6033   O.3       1 RES1   0.0000
    22 C22     -3.5407   8.7520   4.6168   C.3       1 RES1   0.0000
    23 C23     -4.8576   8.3990   3.9476   C.3       1 RES1   0.0000
    24 C24     -5.6301   9.6994   3.6567   C.3       1 RES1   0.0000
    25 C25     -6.6219   9.9224   4.8280   C.3       1 RES1   0.0000
    26 C26     -6.6620   8.6135   5.5630   C.2       1 RES1   0.0000
    27 O27     -7.3974   8.3274   6.4788   O.2       1 RES1   0.0000
    28 N28     -5.7613   7.7684   4.9682   N.am      1 RES1   0.0000
    29 S29     -1.6046  14.7614   1.1670   S.o2      1 RES1   0.0000
    30 O30     -2.0848  13.6801   0.3624   O.2       1 RES1   0.0000
    31 O31     -1.2950  15.9634   0.4287   O.2       1 RES1   0.0000
    32 C32     -2.7084  15.1463   2.3237   C.2       1 RES1   0.0000
    33 C33     -3.5518  14.1347   2.7878   C.2       1 RES1   0.0000
    34 C34     -4.4718  14.3676   3.8089   C.2       1 RES1   0.0000
    35 C35     -4.5901  15.6166   4.3841   C.2       1 RES1   0.0000
    36 N36     -5.4143  16.0453   5.3687   N.2       1 RES1   0.0000
    37 C37     -5.2379  17.3453   5.6538   C.2       1 RES1   0.0000
    38 S38     -4.0211  18.1591   4.7188   S.3       1 RES1   0.0000
    39 C39     -3.7745  16.6572   3.9344   C.2       1 RES1   0.0000
    40 C40     -2.8419  16.4137   2.9119   C.2       1 RES1   0.0000
@<TRIPOS>BOND
     1     1     2    1
     2     2     3    1
     3     3     4    1
     4     3     5    1
     5     5     6    1
     6     6     7    1
     7     7     8    1
     8     8     9    1
     9     8    10    1
    10    10    11    1
    11    11    12    1
    12    12    13    2
    13    13    14    1
    14    14    15    2
    15    15    16    1
    16    16    17    2
    17    10    18    1
    18    18    19   am
    19    19    20    2
    20    19    21    1
    21    21    22    1
    22    23    22    1
    23    23    24    1
    24    24    25    1
    25    25    26    1
    26    26    27    2
    27    26    28   am
    28     6    29    1
    29    29    30    2
    30    29    31    2
    31    29    32    1
    32    32    33    2
    33    33    34    1
    34    34    35    2
    35    35    36    1
    36    36    37    2
    37    37    38    1
    38    38    39    1
    39    39    40    2
    40    17    12    1
    41    28    23    1
    42    40    32    1
    43    39    35    1
@<TRIPOS>SUBSTRUCTURE
     1 RES1        1 GROUP             0 ****  ****    0  
@<TRIPOS>MOLECULE
ligand_64
    40    43     1     0     0
SMALL
NO_CHARGES
****
Generated from the CSD

@<TRIPOS>ATOM
     1 C1       5.2947  15.2236   3.4824   C.3       1 RES1   0.0000
     2 C2       3.8982  14.7096   3.7955   C.3       1 RES1   0.0000
     3 C3       2.8223  15.8018   3.7826   C.3       1 RES1   0.0000
     4 C4       3.1459  16.8687   4.8292   C.3       1 RES1   0.0000
     5 C5       1.4417  15.1445   3.9557   C.3       1 RES1   0.0000
     6 N6       1.1022  14.2675   2.8112   N.3       1 RES1   0.0000
     7 C7       0.5241  12.9708   3.2533   C.3       1 RES1   0.0000
     8 C8       1.1116  11.8460   2.3885   C.3       1 RES1   0.0000
     9 O9       2.5295  12.0246   2.3222   O.3       1 RES1   0.0000
    10 C10      0.7826  10.4427   2.9030   C.3       1 RES1   0.0000
    11 C11      1.4055   9.3078   2.0843   C.3       1 RES1   0.0000
    12 C12      1.1906   7.9590   2.7546   C.2       1 RES1   0.0000
    13 C13      2.1320   7.4855   3.6603   C.2       1 RES1   0.0000
    14 C14      1.9461   6.2540   4.2858   C.2       1 RES1   0.0000
    15 C15      0.8147   5.4946   4.0128   C.2       1 RES1   0.0000
    16 C16     -0.1294   5.9679   3.1091   C.2       1 RES1   0.0000
    17 C17      0.0592   7.2006   2.4903   C.2       1 RES1   0.0000
    18 N18     -0.6594  10.2569   2.9210   N.am      1 RES1   0.0000
    19 C19     -1.3700   9.7698   3.9333   C.2       1 RES1   0.0000
    20 O20     -0.9821   9.6415   5.0829   O.2       1 RES1   0.0000
    21 O21     -2.7124   9.3240   3.6033   O.3       1 RES1   0.0000
    22 C22     -3.5407   8.7521   4.6169   C.3       1 RES1   0.0000
    23 C23     -4.8576   8.3990   3.9477   C.3       1 RES1   0.0000
    24 C24     -5.6301   9.6994   3.6568   C.3       1 RES1   0.0000
    25 C25     -6.6218   9.9225   4.8281   C.3       1 RES1   0.0000
    26 C26     -6.6620   8.6136   5.5631   C.2       1 RES1   0.0000
    27 O27     -7.3973   8.3275   6.4790   O.2       1 RES1   0.0000
    28 N28     -5.7613   7.7684   4.9684   N.am      1 RES1   0.0000
    29 S29      0.2663  15.0213   1.6335   S.o2      1 RES1   0.0000
    30 O30      0.2284  14.1346   0.5113   O.2       1 RES1   0.0000
    31 O31      0.9642  16.2622   1.3907   O.2       1 RES1   0.0000
    32 C32     -1.2601  15.3852   2.1254   C.2       1 RES1   0.0000
    33 C33     -2.2659  14.4449   1.8924   C.2       1 RES1   0.0000
    34 C34     -3.5718  14.6539   2.3330   C.2       1 RES1   0.0000
    35 C35     -3.9168  15.8108   3.0020   C.2       1 RES1   0.0000
    36 N36     -5.1133  16.2035   3.4986   N.2       1 RES1   0.0000
    37 C37     -5.0536  17.4112   4.0821   C.2       1 RES1   0.0000
    38 S38     -3.4930  18.1737   4.0684   S.3       1 RES1   0.0000
    39 C39     -2.9409  16.7813   3.2387   C.2       1 RES1   0.0000
    40 C40     -1.6240  16.5604   2.8012   C.2       1 RES1   0.0000
@<TRIPOS>BOND
     1     1     2    1
     2     2     3    1
     3     3     4    1
     4     3     5    1
     5     5     6    1
     6     6     7    1
     7     7     8    1
     8     8     9    1
     9     8    10    1
    10    10    11    1
    11    11    12    1
    12    12    13    2
    13    13    14    1
    14    14    15    2
    15    15    16    1
    16    16    17    2
    17    10    18    1
    18    18    19   am
    19    19    20    2
    20    19    21    1
    21    21    22    1
    22    23    22    1
    23    23    24    1
    24    24    25    1
    25    25    26    1
    26    26    27    2
    27    26    28   am
    28     6    29    1
    29    29    30    2
    30    29    31    2
    31    29    32    1
    32    32    33    2
    33    33    34    1
    34    34    35    2
    35    35    36    1
    36    36    37    2
    37    37    38    1
    38    38    39    1
    39    39    40    2
    40    17    12    1
    41    28    23    1
    42    40    32    1
    43    39    35    1
@<TRIPOS>SUBSTRUCTURE
     1 RES1        1 GROUP             0 ****  ****    0  
@<TRIPOS>MOLECULE
ligand_65
    40    43     1     0     0
SMALL
NO_CHARGES
****
Generated from the CSD

@<TRIPOS>ATOM
     1 C1      -6.6157   8.8901  15.0160   C.3       1 RES1   0.0000
     2 C2      -6.5711   8.7484  13.5025   C.3       1 RES1   0.0000
     3 C3      -7.9528   8.7861  12.8392   C.3       1 RES1   0.0000
     4 C4      -8.8173   7.6388  13.3631   C.3       1 RES1   0.0000
     5 C5      -7.7725   8.7950  11.3109   C.3       1 RES1   0.0000
     6 N6      -7.0981  10.0283  10.8434   N.3       1 RES1   0.0000
     7 C7      -6.0404   9.7400   9.8389   C.3       1 RES1   0.0000
     8 C8      -4.8283  10.6388  10.1240   C.3       1 RES1   0.0000
     9 O9      -4.5740  10.6163  11.5318   O.3       1 RES1   0.0000
    10 C10     -3.5690  10.2301   9.3564   C.3       1 RES1   0.0000
    11 C11     -2.3400  11.0949   9.6532   C.3       1 RES1   0.0000
    12 C12     -1.0899  10.5227   9.0015   C.2       1 RES1   0.0000
    13 C13     -0.3071   9.6125   9.7010   C.2       1 RES1   0.0000
    14 C14      0.8380   9.0763   9.1151   C.2       1 RES1   0.0000
    15 C15      1.2008   9.4433   7.8248   C.2       1 RES1   0.0000
    16 C16      0.4176  10.3518   7.1225   C.2       1 RES1   0.0000
    17 C17     -0.7276  10.8812   7.7110   C.2       1 RES1   0.0000
    18 N18     -3.8320  10.2824   7.9274   N.am      1 RES1   0.0000
    19 C19     -3.5214   9.3403   7.0426   C.2       1 RES1   0.0000
    20 O20     -2.9718   8.2796   7.2906   O.2       1 RES1   0.0000
    21 O21     -3.8436   9.6445   5.6594   O.3       1 RES1   0.0000
    22 C22     -3.4996   8.7171   4.6288   C.3       1 RES1   0.0000
    23 C23     -4.8019   8.3176   3.9573   C.3       1 RES1   0.0000
    24 C24     -5.6124   9.5910   3.6504   C.3       1 RES1   0.0000
    25 C25     -6.6159   9.7948   4.8152   C.3       1 RES1   0.0000
    26 C26     -6.6196   8.4923   5.5626   C.2       1 RES1   0.0000
    27 O27     -7.3502   8.1927   6.4779   O.2       1 RES1   0.0000
    28 N28     -5.6908   7.6695   4.9800   N.am      1 RES1   0.0000
    29 S29     -8.1275  11.2206  10.4277   S.o2      1 RES1   0.0000
    30 O30     -7.3446  12.4017  10.2291   O.2       1 RES1   0.0000
    31 O31     -9.0800  11.3105  11.5095   O.2       1 RES1   0.0000
    32 C32     -8.9519  10.8447   9.0554   C.2       1 RES1   0.0000
    33 C33     -8.4084  11.2457   7.8331   C.2       1 RES1   0.0000
    34 C34     -9.0163  10.9127   6.6237   C.2       1 RES1   0.0000
    35 C35    -10.1901  10.1870   6.5973   C.2       1 RES1   0.0000
    36 N36    -10.9324   9.7734   5.5436   N.2       1 RES1   0.0000
    37 C37    -12.0243   9.0908   5.9235   C.2       1 RES1   0.0000
    38 S38    -12.2284   8.8975   7.6376   S.3       1 RES1   0.0000
    39 C39    -10.7718   9.7826   7.8008   C.2       1 RES1   0.0000
    40 C40    -10.1488  10.1125   9.0163   C.2       1 RES1   0.0000
@<TRIPOS>BOND
     1     1     2    1
     2     2     3    1
     3     3     4    1
     4     3     5    1
     5     5     6    1
     6     6     7    1
     7     7     8    1
     8     8     9    1
     9     8    10    1
    10    10    11    1
    11    11    12    1
    12    12    13    2
    13    13    14    1
    14    14    15    2
    15    15    16    1
    16    16    17    2
    17    10    18    1
    18    18    19   am
    19    19    20    2
    20    19    21    1
    21    21    22    1
    22    23    22    1
    23    23    24    1
    24    24    25    1
    25    25    26    1
    26    26    27    2
    27    26    28   am
    28     6    29    1
    29    29    30    2
    30    29    31    2
    31    29    32    1
    32    32    33    2
    33    33    34    1
    34    34    35    2
    35    35    36    1
    36    36    37    2
    37    37    38    1
    38    38    39    1
    39    39    40    2
    40    17    12    1
    41    28    23    1
    42    40    32    1
    43    39    35    1
@<TRIPOS>SUBSTRUCTURE
     1 RES1        1 GROUP             0 ****  ****    0  
@<TRIPOS>MOLECULE
ligand_66
    40    43     1     0     0
SMALL
NO_CHARGES
****
Generated from the CSD

@<TRIPOS>ATOM
     1 C1      -1.4293  18.2786  -0.2509   C.3       1 RES1   0.0000
     2 C2      -2.0767  16.9965   0.2487   C.3       1 RES1   0.0000
     3 C3      -3.1898  16.4714  -0.6655   C.3       1 RES1   0.0000
     4 C4      -4.3040  17.5119  -0.7856   C.3       1 RES1   0.0000
     5 C5      -3.6580  15.1008  -0.1453   C.3       1 RES1   0.0000
     6 N6      -2.5856  14.0828  -0.2342   N.3       1 RES1   0.0000
     7 C7      -2.4930  13.2598   1.0007   C.3       1 RES1   0.0000
     8 C8      -1.0115  13.0452   1.3429   C.3       1 RES1   0.0000
     9 O9      -0.3438  14.3078   1.2593   O.3       1 RES1   0.0000
    10 C10     -0.7857  12.4223   2.7225   C.3       1 RES1   0.0000
    11 C11      0.6877  12.2506   3.1045   C.3       1 RES1   0.0000
    12 C12      0.8360  11.8006   4.5503   C.2       1 RES1   0.0000
    13 C13      0.9454  12.7520   5.5570   C.2       1 RES1   0.0000
    14 C14      1.0769  12.3548   6.8863   C.2       1 RES1   0.0000
    15 C15      1.0927  11.0045   7.2144   C.2       1 RES1   0.0000
    16 C16      0.9809  10.0513   6.2091   C.2       1 RES1   0.0000
    17 C17      0.8455  10.4537   4.8832   C.2       1 RES1   0.0000
    18 N18     -1.4287  11.1194   2.7790   N.am      1 RES1   0.0000
    19 C19     -2.2200  10.6822   3.7535   C.2       1 RES1   0.0000
    20 O20     -2.5320  11.3051   4.7551   O.2       1 RES1   0.0000
    21 O21     -2.7124   9.3240   3.6033   O.3       1 RES1   0.0000
    22 C22     -3.5410   8.7522   4.6167   C.3       1 RES1   0.0000
    23 C23     -4.8575   8.3984   3.9471   C.3       1 RES1   0.0000
    24 C24     -5.6303   9.6985   3.6554   C.3       1 RES1   0.0000
    25 C25     -6.6226   9.9216   4.8262   C.3       1 RES1   0.0000
    26 C26     -6.6626   8.6130   5.5616   C.2       1 RES1   0.0000
    27 O27     -7.3983   8.3270   6.4773   O.2       1 RES1   0.0000
    28 N28     -5.7614   7.7679   4.9676   N.am      1 RES1   0.0000
    29 S29     -2.6046  13.2306  -1.6226   S.o2      1 RES1   0.0000
    30 O30     -1.3898  12.4762  -1.6695   O.2       1 RES1   0.0000
    31 O31     -2.7430  14.2058  -2.6788   O.2       1 RES1   0.0000
    32 C32     -3.9041  12.2249  -1.6868   C.2       1 RES1   0.0000
    33 C33     -3.7562  10.9296  -1.1864   C.2       1 RES1   0.0000
    34 C34     -4.8273  10.0382  -1.1506   C.2       1 RES1   0.0000
    35 C35     -6.0698  10.4046  -1.6269   C.2       1 RES1   0.0000
    36 N36     -7.2210   9.6949  -1.6879   N.2       1 RES1   0.0000
    37 C37     -8.2275  10.3983  -2.2307   C.2       1 RES1   0.0000
    38 S38     -7.8327  12.0185  -2.7165   S.3       1 RES1   0.0000
    39 C39     -6.2514  11.6867  -2.1499   C.2       1 RES1   0.0000
    40 C40     -5.1705  12.5842  -2.1740   C.2       1 RES1   0.0000
@<TRIPOS>BOND
     1     1     2    1
     2     2     3    1
     3     3     4    1
     4     3     5    1
     5     5     6    1
     6     6     7    1
     7     7     8    1
     8     8     9    1
     9     8    10    1
    10    10    11    1
    11    11    12    1
    12    12    13    2
    13    13    14    1
    14    14    15    2
    15    15    16    1
    16    16    17    2
    17    10    18    1
    18    18    19   am
    19    19    20    2
    20    19    21    1
    21    21    22    1
    22    23    22    1
    23    23    24    1
    24    24    25    1
    25    25    26    1
    26    26    27    2
    27    26    28   am
    28     6    29    1
    29    29    30    2
    30    29    31    2
    31    29    32    1
    32    32    33    2
    33    33    34    1
    34    34    35    2
    35    35    36    1
    36    36    37    2
    37    37    38    1
    38    38    39    1
    39    39    40    2
    40    17    12    1
    41    28    23    1
    42    40    32    1
    43    39    35    1
@<TRIPOS>SUBSTRUCTURE
     1 RES1        1 GROUP             0 ****  ****    0  
@<TRIPOS>MOLECULE
ligand_67
    40    43     1     0     0
SMALL
NO_CHARGES
****
Generated from the CSD

@<TRIPOS>ATOM
     1 C1      -4.2843  13.3637  14.8611   C.3       1 RES1   0.0000
     2 C2      -3.1773  13.1375  13.8432   C.3       1 RES1   0.0000
     3 C3      -2.0619  12.2112  14.3416   C.3       1 RES1   0.0000
     4 C4      -1.3902  12.8161  15.5750   C.3       1 RES1   0.0000
     5 C5      -1.0993  11.9179  13.1773   C.3       1 RES1   0.0000
     6 N6      -1.7673  11.1726  12.0853   N.3       1 RES1   0.0000
     7 C7      -1.4381  11.7292  10.7463   C.3       1 RES1   0.0000
     8 C8      -2.5165  11.2860   9.7469   C.3       1 RES1   0.0000
     9 O9      -3.7871  11.7319  10.2303   O.3       1 RES1   0.0000
    10 C10     -2.2842  11.8041   8.3257   C.3       1 RES1   0.0000
    11 C11     -2.5064  13.3104   8.1584   C.3       1 RES1   0.0000
    12 C12     -2.0825  13.7823   6.7755   C.2       1 RES1   0.0000
    13 C13     -0.7758  14.2056   6.5658   C.2       1 RES1   0.0000
    14 C14     -0.3719  14.6360   5.3034   C.2       1 RES1   0.0000
    15 C15     -1.2717  14.6382   4.2442   C.2       1 RES1   0.0000
    16 C16     -2.5785  14.2128   4.4514   C.2       1 RES1   0.0000
    17 C17     -2.9756  13.7799   5.7136   C.2       1 RES1   0.0000
    18 N18     -3.1649  11.1056   7.4034   N.am      1 RES1   0.0000
    19 C19     -2.7891  10.2190   6.4871   C.2       1 RES1   0.0000
    20 O20     -1.6454   9.8508   6.2749   O.2       1 RES1   0.0000
    21 O21     -3.8524   9.6853   5.6539   O.3       1 RES1   0.0000
    22 C22     -3.5428   8.7530   4.6168   C.3       1 RES1   0.0000
    23 C23     -4.8600   8.4006   3.9479   C.3       1 RES1   0.0000
    24 C24     -5.6291   9.7018   3.6514   C.3       1 RES1   0.0000
    25 C25     -6.6212   9.9317   4.8210   C.3       1 RES1   0.0000
    26 C26     -6.6652   8.6256   5.5609   C.2       1 RES1   0.0000
    27 O27     -7.4021   8.3449   6.4772   O.2       1 RES1   0.0000
    28 N28     -5.7661   7.7761   4.9702   N.am      1 RES1   0.0000
    29 S29     -1.6163   9.5551  12.2081   S.o2      1 RES1   0.0000
    30 O30     -2.6440   8.9743  11.3995   O.2       1 RES1   0.0000
    31 O31     -1.7253   9.2575  13.6170   O.2       1 RES1   0.0000
    32 C32     -0.1358   9.0543  11.6965   C.2       1 RES1   0.0000
    33 C33      0.0157   8.7266  10.3475   C.2       1 RES1   0.0000
    34 C34      1.2528   8.3518   9.8257   C.2       1 RES1   0.0000
    35 C35      2.3688   8.2761  10.6342   C.2       1 RES1   0.0000
    36 N36      3.6415   7.9307  10.3284   N.2       1 RES1   0.0000
    37 C37      4.4527   7.9680  11.3974   C.2       1 RES1   0.0000
    38 S38      3.7027   8.4413  12.8909   S.3       1 RES1   0.0000
    39 C39      2.2521   8.5806  11.9920   C.2       1 RES1   0.0000
    40 C40      1.0046   8.9677  12.5102   C.2       1 RES1   0.0000
@<TRIPOS>BOND
     1     1     2    1
     2     2     3    1
     3     3     4    1
     4     3     5    1
     5     5     6    1
     6     6     7    1
     7     7     8    1
     8     8     9    1
     9     8    10    1
    10    10    11    1
    11    11    12    1
    12    12    13    2
    13    13    14    1
    14    14    15    2
    15    15    16    1
    16    16    17    2
    17    10    18    1
    18    18    19   am
    19    19    20    2
    20    19    21    1
    21    21    22    1
    22    23    22    1
    23    23    24    1
    24    24    25    1
    25    25    26    1
    26    26    27    2
    27    26    28   am
    28     6    29    1
    29    29    30    2
    30    29    31    2
    31    29    32    1
    32    32    33    2
    33    33    34    1
    34    34    35    2
    35    35    36    1
    36    36    37    2
    37    37    38    1
    38    38    39    1
    39    39    40    2
    40    17    12    1
    41    28    23    1
    42    40    32    1
    43    39    35    1
@<TRIPOS>SUBSTRUCTURE
     1 RES1        1 GROUP             0 ****  ****    0  
@<TRIPOS>MOLECULE
ligand_68
    40    43     1     0     0
SMALL
NO_CHARGES
****
Generated from the CSD

@<TRIPOS>ATOM
     1 C1      -4.2842  13.3643  14.8609   C.3       1 RES1   0.0000
     2 C2      -3.1772  13.1379  13.8430   C.3       1 RES1   0.0000
     3 C3      -2.0619  12.2115  14.3415   C.3       1 RES1   0.0000
     4 C4      -1.3901  12.8165  15.5749   C.3       1 RES1   0.0000
     5 C5      -1.0993  11.9181  13.1773   C.3       1 RES1   0.0000
     6 N6      -1.7674  11.1727  12.0853   N.3       1 RES1   0.0000
     7 C7      -1.4381  11.7292  10.7463   C.3       1 RES1   0.0000
     8 C8      -2.5165  11.2860   9.7469   C.3       1 RES1   0.0000
     9 O9      -3.7871  11.7319  10.2303   O.3       1 RES1   0.0000
    10 C10     -2.2842  11.8041   8.3257   C.3       1 RES1   0.0000
    11 C11     -2.5065  13.3104   8.1584   C.3       1 RES1   0.0000
    12 C12     -2.0827  13.7823   6.7754   C.2       1 RES1   0.0000
    13 C13     -0.7760  14.2057   6.5658   C.2       1 RES1   0.0000
    14 C14     -0.3721  14.6362   5.3034   C.2       1 RES1   0.0000
    15 C15     -1.2718  14.6383   4.2442   C.2       1 RES1   0.0000
    16 C16     -2.5787  14.2126   4.4513   C.2       1 RES1   0.0000
    17 C17     -2.9757  13.7798   5.7135   C.2       1 RES1   0.0000
    18 N18     -3.1647  11.1055   7.4034   N.am      1 RES1   0.0000
    19 C19     -2.7889  10.2189   6.4871   C.2       1 RES1   0.0000
    20 O20     -1.6451   9.8509   6.2750   O.2       1 RES1   0.0000
    21 O21     -3.8520   9.6850   5.6538   O.3       1 RES1   0.0000
    22 C22     -3.5423   8.7527   4.6168   C.3       1 RES1   0.0000
    23 C23     -4.8594   8.4002   3.9478   C.3       1 RES1   0.0000
    24 C24     -5.6287   9.7013   3.6514   C.3       1 RES1   0.0000
    25 C25     -6.6209   9.9309   4.8211   C.3       1 RES1   0.0000
    26 C26     -6.6647   8.6248   5.5609   C.2       1 RES1   0.0000
    27 O27     -7.4015   8.3438   6.4771   O.2       1 RES1   0.0000
    28 N28     -5.7654   7.7754   4.9700   N.am      1 RES1   0.0000
    29 S29     -1.6165   9.5553  12.2082   S.o2      1 RES1   0.0000
    30 O30     -2.6443   8.9745  11.3997   O.2       1 RES1   0.0000
    31 O31     -1.7256   9.2577  13.6172   O.2       1 RES1   0.0000
    32 C32     -0.1361   9.0542  11.6967   C.2       1 RES1   0.0000
    33 C33      0.8931   8.9823  12.6378   C.2       1 RES1   0.0000
    34 C34      2.1591   8.5101  12.2948   C.2       1 RES1   0.0000
    35 C35      2.4408   8.1129  11.0034   C.2       1 RES1   0.0000
    36 N36      3.5917   7.6381  10.4719   N.2       1 RES1   0.0000
    37 C37      3.4762   7.3653   9.1624   C.2       1 RES1   0.0000
    38 S38      1.9145   7.6742   8.4676   S.3       1 RES1   0.0000
    39 C39      1.4408   8.1861  10.0314   C.2       1 RES1   0.0000
    40 C40      0.1638   8.6533  10.3854   C.2       1 RES1   0.0000
@<TRIPOS>BOND
     1     1     2    1
     2     2     3    1
     3     3     4    1
     4     3     5    1
     5     5     6    1
     6     6     7    1
     7     7     8    1
     8     8     9    1
     9     8    10    1
    10    10    11    1
    11    11    12    1
    12    12    13    2
    13    13    14    1
    14    14    15    2
    15    15    16    1
    16    16    17    2
    17    10    18    1
    18    18    19   am
    19    19    20    2
    20    19    21    1
    21    21    22    1
    22    23    22    1
    23    23    24    1
    24    24    25    1
    25    25    26    1
    26    26    27    2
    27    26    28   am
    28     6    29    1
    29    29    30    2
    30    29    31    2
    31    29    32    1
    32    32    33    2
    33    33    34    1
    34    34    35    2
    35    35    36    1
    36    36    37    2
    37    37    38    1
    38    38    39    1
    39    39    40    2
    40    17    12    1
    41    28    23    1
    42    40    32    1
    43    39    35    1
@<TRIPOS>SUBSTRUCTURE
     1 RES1        1 GROUP             0 ****  ****    0  
@<TRIPOS>MOLECULE
ligand_69
    40    43     1     0     0
SMALL
NO_CHARGES
****
Generated from the CSD

@<TRIPOS>ATOM
     1 C1       2.9544  16.1458  -0.8523   C.3       1 RES1   0.0000
     2 C2       3.1163  15.2320   0.3525   C.3       1 RES1   0.0000
     3 C3       3.3682  15.9824   1.6655   C.3       1 RES1   0.0000
     4 C4       4.6621  16.7916   1.5669   C.3       1 RES1   0.0000
     5 C5       3.3392  14.9757   2.8291   C.3       1 RES1   0.0000
     6 N6       2.0042  14.3531   2.9851   N.3       1 RES1   0.0000
     7 C7       2.0938  12.8826   3.1870   C.3       1 RES1   0.0000
     8 C8       0.7423  12.2497   2.8253   C.3       1 RES1   0.0000
     9 O9       0.4293  12.6008   1.4741   O.3       1 RES1   0.0000
    10 C10      0.7141  10.7287   2.9925   C.3       1 RES1   0.0000
    11 C11      1.5428   9.9639   1.9559   C.3       1 RES1   0.0000
    12 C12      1.6175   8.4817   2.2909   C.2       1 RES1   0.0000
    13 C13      2.6492   8.0113   3.0940   C.2       1 RES1   0.0000
    14 C14      2.7278   6.6570   3.4133   C.2       1 RES1   0.0000
    15 C15      1.7709   5.7693   2.9362   C.2       1 RES1   0.0000
    16 C16      0.7366   6.2385   2.1349   C.2       1 RES1   0.0000
    17 C17      0.6606   7.5930   1.8224   C.2       1 RES1   0.0000
    18 N18     -0.6593  10.2568   2.9202   N.am      1 RES1   0.0000
    19 C19     -1.3706   9.7697   3.9319   C.2       1 RES1   0.0000
    20 O20     -0.9834   9.6414   5.0818   O.2       1 RES1   0.0000
    21 O21     -2.7127   9.3238   3.6011   O.3       1 RES1   0.0000
    22 C22     -3.5417   8.7518   4.6141   C.3       1 RES1   0.0000
    23 C23     -4.8581   8.3986   3.9441   C.3       1 RES1   0.0000
    24 C24     -5.6305   9.6990   3.6527   C.3       1 RES1   0.0000
    25 C25     -6.6230   9.9220   4.8233   C.3       1 RES1   0.0000
    26 C26     -6.6635   8.6131   5.5583   C.2       1 RES1   0.0000
    27 O27     -7.3995   8.3270   6.4737   O.2       1 RES1   0.0000
    28 N28     -5.7624   7.7680   4.9642   N.am      1 RES1   0.0000
    29 S29      1.0385  15.1297   4.0426   S.o2      1 RES1   0.0000
    30 O30     -0.3044  14.7231   3.7625   O.2       1 RES1   0.0000
    31 O31      1.2903  16.5375   3.8419   O.2       1 RES1   0.0000
    32 C32      1.4353  14.7594   5.5949   C.2       1 RES1   0.0000
    33 C33      0.8048  13.6643   6.1895   C.2       1 RES1   0.0000
    34 C34      1.1311  13.2511   7.4803   C.2       1 RES1   0.0000
    35 C35      2.0805  13.9257   8.2210   C.2       1 RES1   0.0000
    36 N36      2.5296  13.6928   9.4766   N.2       1 RES1   0.0000
    37 C37      3.4618  14.5798   9.8593   C.2       1 RES1   0.0000
    38 S38      3.8699  15.7920   8.6841   S.3       1 RES1   0.0000
    39 C39      2.7203  15.0356   7.6652   C.2       1 RES1   0.0000
    40 C40      2.3945  15.4412   6.3599   C.2       1 RES1   0.0000
@<TRIPOS>BOND
     1     1     2    1
     2     2     3    1
     3     3     4    1
     4     3     5    1
     5     5     6    1
     6     6     7    1
     7     7     8    1
     8     8     9    1
     9     8    10    1
    10    10    11    1
    11    11    12    1
    12    12    13    2
    13    13    14    1
    14    14    15    2
    15    15    16    1
    16    16    17    2
    17    10    18    1
    18    18    19   am
    19    19    20    2
    20    19    21    1
    21    21    22    1
    22    23    22    1
    23    23    24    1
    24    24    25    1
    25    25    26    1
    26    26    27    2
    27    26    28   am
    28     6    29    1
    29    29    30    2
    30    29    31    2
    31    29    32    1
    32    32    33    2
    33    33    34    1
    34    34    35    2
    35    35    36    1
    36    36    37    2
    37    37    38    1
    38    38    39    1
    39    39    40    2
    40    17    12    1
    41    28    23    1
    42    40    32    1
    43    39    35    1
@<TRIPOS>SUBSTRUCTURE
     1 RES1        1 GROUP             0 ****  ****    0  
@<TRIPOS>MOLECULE
ligand_70
    40    43     1     0     0
SMALL
NO_CHARGES
****
Generated from the CSD

@<TRIPOS>ATOM
     1 C1       2.9548  16.1452  -0.8526   C.3       1 RES1   0.0000
     2 C2       3.1166  15.2316   0.3523   C.3       1 RES1   0.0000
     3 C3       3.3685  15.9822   1.6653   C.3       1 RES1   0.0000
     4 C4       4.6624  16.7912   1.5666   C.3       1 RES1   0.0000
     5 C5       3.3393  14.9756   2.8290   C.3       1 RES1   0.0000
     6 N6       2.0043  14.3531   2.9849   N.3       1 RES1   0.0000
     7 C7       2.0938  12.8826   3.1870   C.3       1 RES1   0.0000
     8 C8       0.7423  12.2497   2.8253   C.3       1 RES1   0.0000
     9 O9       0.4293  12.6008   1.4741   O.3       1 RES1   0.0000
    10 C10      0.7141  10.7287   2.9925   C.3       1 RES1   0.0000
    11 C11      1.5426   9.9639   1.9557   C.3       1 RES1   0.0000
    12 C12      1.6173   8.4817   2.2908   C.2       1 RES1   0.0000
    13 C13      2.6492   8.0112   3.0936   C.2       1 RES1   0.0000
    14 C14      2.7278   6.6570   3.4129   C.2       1 RES1   0.0000
    15 C15      1.7708   5.7693   2.9360   C.2       1 RES1   0.0000
    16 C16      0.7364   6.2385   2.1349   C.2       1 RES1   0.0000
    17 C17      0.6603   7.5930   1.8224   C.2       1 RES1   0.0000
    18 N18     -0.6593  10.2569   2.9204   N.am      1 RES1   0.0000
    19 C19     -1.3704   9.7697   3.9322   C.2       1 RES1   0.0000
    20 O20     -0.9831   9.6414   5.0821   O.2       1 RES1   0.0000
    21 O21     -2.7126   9.3238   3.6017   O.3       1 RES1   0.0000
    22 C22     -3.5414   8.7519   4.6148   C.3       1 RES1   0.0000
    23 C23     -4.8580   8.3987   3.9450   C.3       1 RES1   0.0000
    24 C24     -5.6304   9.6991   3.6537   C.3       1 RES1   0.0000
    25 C25     -6.6227   9.9221   4.8245   C.3       1 RES1   0.0000
    26 C26     -6.6631   8.6132   5.5595   C.2       1 RES1   0.0000
    27 O27     -7.3989   8.3271   6.4750   O.2       1 RES1   0.0000
    28 N28     -5.7621   7.7681   4.9652   N.am      1 RES1   0.0000
    29 S29      1.0385  15.1298   4.0422   S.o2      1 RES1   0.0000
    30 O30     -0.3044  14.7232   3.7621   O.2       1 RES1   0.0000
    31 O31      1.2903  16.5376   3.8414   O.2       1 RES1   0.0000
    32 C32      1.4351  14.7596   5.5947   C.2       1 RES1   0.0000
    33 C33      2.3819  15.5594   6.2381   C.2       1 RES1   0.0000
    34 C34      2.7262  15.3466   7.5721   C.2       1 RES1   0.0000
    35 C35      2.1513  14.3225   8.2971   C.2       1 RES1   0.0000
    36 N36      2.3516  13.9492   9.5828   N.2       1 RES1   0.0000
    37 C37      1.6058  12.8882   9.9297   C.2       1 RES1   0.0000
    38 S38      0.5783  12.2541   8.6810   S.3       1 RES1   0.0000
    39 C39      1.2123  13.4918   7.6819   C.2       1 RES1   0.0000
    40 C40      0.8618  13.7176   6.3401   C.2       1 RES1   0.0000
@<TRIPOS>BOND
     1     1     2    1
     2     2     3    1
     3     3     4    1
     4     3     5    1
     5     5     6    1
     6     6     7    1
     7     7     8    1
     8     8     9    1
     9     8    10    1
    10    10    11    1
    11    11    12    1
    12    12    13    2
    13    13    14    1
    14    14    15    2
    15    15    16    1
    16    16    17    2
    17    10    18    1
    18    18    19   am
    19    19    20    2
    20    19    21    1
    21    21    22    1
    22    23    22    1
    23    23    24    1
    24    24    25    1
    25    25    26    1
    26    26    27    2
    27    26    28   am
    28     6    29    1
    29    29    30    2
    30    29    31    2
    31    29    32    1
    32    32    33    2
    33    33    34    1
    34    34    35    2
    35    35    36    1
    36    36    37    2
    37    37    38    1
    38    38    39    1
    39    39    40    2
    40    17    12    1
    41    28    23    1
    42    40    32    1
    43    39    35    1
@<TRIPOS>SUBSTRUCTURE
     1 RES1        1 GROUP             0 ****  ****    0  
@<TRIPOS>MOLECULE
ligand_71
    40    43     1     0     0
SMALL
NO_CHARGES
****
Generated from the CSD

@<TRIPOS>ATOM
     1 C1      -2.9895  12.1636  14.5228   C.3       1 RES1   0.0000
     2 C2      -2.4749  11.4388  13.2889   C.3       1 RES1   0.0000
     3 C3      -2.2435   9.9390  13.5070   C.3       1 RES1   0.0000
     4 C4      -1.1827   9.7240  14.5874   C.3       1 RES1   0.0000
     5 C5      -1.9108   9.2836  12.1550   C.3       1 RES1   0.0000
     6 N6      -3.0429   9.3779  11.2043   N.3       1 RES1   0.0000
     7 C7      -2.5947   9.7551   9.8376   C.3       1 RES1   0.0000
     8 C8      -2.5165  11.2860   9.7469   C.3       1 RES1   0.0000
     9 O9      -1.4672  11.7339  10.6102   O.3       1 RES1   0.0000
    10 C10     -2.2842  11.8041   8.3257   C.3       1 RES1   0.0000
    11 C11     -2.5495  13.3022   8.1484   C.3       1 RES1   0.0000
    12 C12     -1.4632  14.1388   8.8079   C.2       1 RES1   0.0000
    13 C13     -0.3218  14.4711   8.0886   C.2       1 RES1   0.0000
    14 C14      0.6794  15.2408   8.6780   C.2       1 RES1   0.0000
    15 C15      0.5396  15.6868   9.9868   C.2       1 RES1   0.0000
    16 C16     -0.6027  15.3575  10.7070   C.2       1 RES1   0.0000
    17 C17     -1.6016  14.5919  10.1120   C.2       1 RES1   0.0000
    18 N18     -3.1334  11.0751   7.3974   N.am      1 RES1   0.0000
    19 C19     -2.7212  10.1958   6.4898   C.2       1 RES1   0.0000
    20 O20     -1.5647   9.8612   6.2919   O.2       1 RES1   0.0000
    21 O21     -3.7587   9.6265   5.6478   O.3       1 RES1   0.0000
    22 C22     -3.4100   8.6990   4.6189   C.3       1 RES1   0.0000
    23 C23     -4.7086   8.3042   3.9375   C.3       1 RES1   0.0000
    24 C24     -5.5133   9.5802   3.6266   C.3       1 RES1   0.0000
    25 C25     -6.5246   9.7851   4.7844   C.3       1 RES1   0.0000
    26 C26     -6.5373   8.4817   5.5299   C.2       1 RES1   0.0000
    27 O27     -7.2752   8.1827   6.4395   O.2       1 RES1   0.0000
    28 N28     -5.6065   7.6570   4.9529   N.am      1 RES1   0.0000
    29 S29     -4.0556   8.1031  11.2629   S.o2      1 RES1   0.0000
    30 O30     -5.2103   8.4477  10.4915   O.2       1 RES1   0.0000
    31 O31     -4.3198   7.8770  12.6647   O.2       1 RES1   0.0000
    32 C32     -3.3460   6.7497  10.6554   C.2       1 RES1   0.0000
    33 C33     -3.4846   6.4933   9.2897   C.2       1 RES1   0.0000
    34 C34     -2.8627   5.3998   8.6892   C.2       1 RES1   0.0000
    35 C35     -2.1004   4.5221   9.4333   C.2       1 RES1   0.0000
    36 N36     -1.4292   3.4116   9.0476   N.2       1 RES1   0.0000
    37 C37     -0.8038   2.8101  10.0720   C.2       1 RES1   0.0000
    38 S38     -0.9924   3.5767  11.6192   S.3       1 RES1   0.0000
    39 C39     -1.9526   4.7373  10.8052   C.2       1 RES1   0.0000
    40 C40     -2.5736   5.8471  11.4029   C.2       1 RES1   0.0000
@<TRIPOS>BOND
     1     1     2    1
     2     2     3    1
     3     3     4    1
     4     3     5    1
     5     5     6    1
     6     6     7    1
     7     7     8    1
     8     8     9    1
     9     8    10    1
    10    10    11    1
    11    11    12    1
    12    12    13    2
    13    13    14    1
    14    14    15    2
    15    15    16    1
    16    16    17    2
    17    10    18    1
    18    18    19   am
    19    19    20    2
    20    19    21    1
    21    21    22    1
    22    23    22    1
    23    23    24    1
    24    24    25    1
    25    25    26    1
    26    26    27    2
    27    26    28   am
    28     6    29    1
    29    29    30    2
    30    29    31    2
    31    29    32    1
    32    32    33    2
    33    33    34    1
    34    34    35    2
    35    35    36    1
    36    36    37    2
    37    37    38    1
    38    38    39    1
    39    39    40    2
    40    17    12    1
    41    28    23    1
    42    40    32    1
    43    39    35    1
@<TRIPOS>SUBSTRUCTURE
     1 RES1        1 GROUP             0 ****  ****    0  
@<TRIPOS>MOLECULE
ligand_72
    40    43     1     0     0
SMALL
NO_CHARGES
****
Generated from the CSD

@<TRIPOS>ATOM
     1 C1      -2.9889  12.1642  14.5224   C.3       1 RES1   0.0000
     2 C2      -2.4744  11.4390  13.2886   C.3       1 RES1   0.0000
     3 C3      -2.2436   9.9391  13.5069   C.3       1 RES1   0.0000
     4 C4      -1.1831   9.7238  14.5874   C.3       1 RES1   0.0000
     5 C5      -1.9110   9.2834  12.1550   C.3       1 RES1   0.0000
     6 N6      -3.0430   9.3779  11.2043   N.3       1 RES1   0.0000
     7 C7      -2.5947   9.7551   9.8376   C.3       1 RES1   0.0000
     8 C8      -2.5165  11.2860   9.7469   C.3       1 RES1   0.0000
     9 O9      -1.4672  11.7339  10.6102   O.3       1 RES1   0.0000
    10 C10     -2.2842  11.8041   8.3257   C.3       1 RES1   0.0000
    11 C11     -2.5497  13.3022   8.1483   C.3       1 RES1   0.0000
    12 C12     -1.4635  14.1389   8.8078   C.2       1 RES1   0.0000
    13 C13     -0.3222  14.4713   8.0885   C.2       1 RES1   0.0000
    14 C14      0.6789  15.2412   8.6778   C.2       1 RES1   0.0000
    15 C15      0.5392  15.6872   9.9866   C.2       1 RES1   0.0000
    16 C16     -0.6030  15.3578  10.7069   C.2       1 RES1   0.0000
    17 C17     -1.6019  14.5920  10.1119   C.2       1 RES1   0.0000
    18 N18     -3.1332  11.0750   7.3974   N.am      1 RES1   0.0000
    19 C19     -2.7209  10.1957   6.4898   C.2       1 RES1   0.0000
    20 O20     -1.5643   9.8613   6.2920   O.2       1 RES1   0.0000
    21 O21     -3.7583   9.6263   5.6477   O.3       1 RES1   0.0000
    22 C22     -3.4094   8.6988   4.6189   C.3       1 RES1   0.0000
    23 C23     -4.7079   8.3037   3.9374   C.3       1 RES1   0.0000
    24 C24     -5.5128   9.5797   3.6266   C.3       1 RES1   0.0000
    25 C25     -6.5242   9.7844   4.7844   C.3       1 RES1   0.0000
    26 C26     -6.5367   8.4809   5.5298   C.2       1 RES1   0.0000
    27 O27     -7.2746   8.1818   6.4394   O.2       1 RES1   0.0000
    28 N28     -5.6058   7.6564   4.9528   N.am      1 RES1   0.0000
    29 S29     -4.0559   8.1032  11.2628   S.o2      1 RES1   0.0000
    30 O30     -5.2105   8.4479  10.4912   O.2       1 RES1   0.0000
    31 O31     -4.3202   7.8771  12.6645   O.2       1 RES1   0.0000
    32 C32     -3.3464   6.7498  10.6553   C.2       1 RES1   0.0000
    33 C33     -2.6420   5.9267  11.5365   C.2       1 RES1   0.0000
    34 C34     -2.0642   4.7320  11.1097   C.2       1 RES1   0.0000
    35 C35     -2.1564   4.3319   9.7920   C.2       1 RES1   0.0000
    36 N36     -1.6659   3.2268   9.1832   N.2       1 RES1   0.0000
    37 C37     -1.9578   3.1923   7.8732   C.2       1 RES1   0.0000
    38 S38     -2.8770   4.5391   7.2746   S.3       1 RES1   0.0000
    39 C39     -2.8392   5.1376   8.8784   C.2       1 RES1   0.0000
    40 C40     -3.4283   6.3357   9.3166   C.2       1 RES1   0.0000
@<TRIPOS>BOND
     1     1     2    1
     2     2     3    1
     3     3     4    1
     4     3     5    1
     5     5     6    1
     6     6     7    1
     7     7     8    1
     8     8     9    1
     9     8    10    1
    10    10    11    1
    11    11    12    1
    12    12    13    2
    13    13    14    1
    14    14    15    2
    15    15    16    1
    16    16    17    2
    17    10    18    1
    18    18    19   am
    19    19    20    2
    20    19    21    1
    21    21    22    1
    22    23    22    1
    23    23    24    1
    24    24    25    1
    25    25    26    1
    26    26    27    2
    27    26    28   am
    28     6    29    1
    29    29    30    2
    30    29    31    2
    31    29    32    1
    32    32    33    2
    33    33    34    1
    34    34    35    2
    35    35    36    1
    36    36    37    2
    37    37    38    1
    38    38    39    1
    39    39    40    2
    40    17    12    1
    41    28    23    1
    42    40    32    1
    43    39    35    1
@<TRIPOS>SUBSTRUCTURE
     1 RES1        1 GROUP             0 ****  ****    0  
@<TRIPOS>MOLECULE
ligand_73
    40    43     1     0     0
SMALL
NO_CHARGES
****
Generated from the CSD

@<TRIPOS>ATOM
     1 C1       3.1884  16.8485   4.3289   C.3       1 RES1   0.0000
     2 C2       2.0845  15.8207   4.5230   C.3       1 RES1   0.0000
     3 C3       0.6739  16.4210   4.5064   C.3       1 RES1   0.0000
     4 C4       0.5233  17.4373   5.6390   C.3       1 RES1   0.0000
     5 C5      -0.3555  15.2775   4.5419   C.3       1 RES1   0.0000
     6 N6      -0.2772  14.4287   3.3305   N.3       1 RES1   0.0000
     7 C7      -0.3201  12.9793   3.6602   C.3       1 RES1   0.0000
     8 C8       0.7423  12.2497   2.8253   C.3       1 RES1   0.0000
     9 O9       2.0282  12.7598   3.1901   O.3       1 RES1   0.0000
    10 C10      0.7141  10.7287   2.9925   C.3       1 RES1   0.0000
    11 C11      1.5009   9.9614   1.9255   C.3       1 RES1   0.0000
    12 C12      3.0011  10.1218   2.1216   C.2       1 RES1   0.0000
    13 C13      3.6822   9.2413   2.9531   C.2       1 RES1   0.0000
    14 C14      5.0571   9.3730   3.1385   C.2       1 RES1   0.0000
    15 C15      5.7572  10.3816   2.4875   C.2       1 RES1   0.0000
    16 C16      5.0781  11.2618   1.6532   C.2       1 RES1   0.0000
    17 C17      3.7052  11.1231   1.4684   C.2       1 RES1   0.0000
    18 N18     -0.6629  10.2624   2.9705   N.am      1 RES1   0.0000
    19 C19     -1.3384   9.7774   4.0075   C.2       1 RES1   0.0000
    20 O20     -0.9096   9.6467   5.1423   O.2       1 RES1   0.0000
    21 O21     -2.6936   9.3372   3.7262   O.3       1 RES1   0.0000
    22 C22     -3.4870   8.7678   4.7687   C.3       1 RES1   0.0000
    23 C23     -4.8286   8.4204   4.1474   C.3       1 RES1   0.0000
    24 C24     -5.6060   9.7241   3.8855   C.3       1 RES1   0.0000
    25 C25     -6.5537   9.9502   5.0921   C.3       1 RES1   0.0000
    26 C26     -6.5725   8.6409   5.8273   C.2       1 RES1   0.0000
    27 O27     -7.2753   8.3571   6.7689   O.2       1 RES1   0.0000
    28 N28     -5.6973   7.7927   5.1998   N.am      1 RES1   0.0000
    29 S29     -1.2916  14.8885   2.1415   S.o2      1 RES1   0.0000
    30 O30     -0.9328  14.1460   0.9722   O.2       1 RES1   0.0000
    31 O31     -1.1253  16.3175   2.0157   O.2       1 RES1   0.0000
    32 C32     -2.8577  14.5934   2.5470   C.2       1 RES1   0.0000
    33 C33     -3.4057  13.3591   2.1919   C.2       1 RES1   0.0000
    34 C34     -4.7065  13.0111   2.5526   C.2       1 RES1   0.0000
    35 C35     -5.5033  13.8875   3.2612   C.2       1 RES1   0.0000
    36 N36     -6.7775  13.7461   3.6957   N.2       1 RES1   0.0000
    37 C37     -7.2185  14.8323   4.3499   C.2       1 RES1   0.0000
    38 S38     -6.0807  16.1375   4.4875   S.3       1 RES1   0.0000
    39 C39     -4.9947  15.1377   3.6197   C.2       1 RES1   0.0000
    40 C40     -3.6794  15.4788   3.2620   C.2       1 RES1   0.0000
@<TRIPOS>BOND
     1     1     2    1
     2     2     3    1
     3     3     4    1
     4     3     5    1
     5     5     6    1
     6     6     7    1
     7     7     8    1
     8     8     9    1
     9     8    10    1
    10    10    11    1
    11    11    12    1
    12    12    13    2
    13    13    14    1
    14    14    15    2
    15    15    16    1
    16    16    17    2
    17    10    18    1
    18    18    19   am
    19    19    20    2
    20    19    21    1
    21    21    22    1
    22    23    22    1
    23    23    24    1
    24    24    25    1
    25    25    26    1
    26    26    27    2
    27    26    28   am
    28     6    29    1
    29    29    30    2
    30    29    31    2
    31    29    32    1
    32    32    33    2
    33    33    34    1
    34    34    35    2
    35    35    36    1
    36    36    37    2
    37    37    38    1
    38    38    39    1
    39    39    40    2
    40    17    12    1
    41    28    23    1
    42    40    32    1
    43    39    35    1
@<TRIPOS>SUBSTRUCTURE
     1 RES1        1 GROUP             0 ****  ****    0  
@<TRIPOS>MOLECULE
ligand_74
    40    43     1     0     0
SMALL
NO_CHARGES
****
Generated from the CSD

@<TRIPOS>ATOM
     1 C1       2.8209  16.2396   0.9376   C.3       1 RES1   0.0000
     2 C2       2.1896  15.3863   2.0266   C.3       1 RES1   0.0000
     3 C3       1.3902  16.1936   3.0561   C.3       1 RES1   0.0000
     4 C4       2.3106  17.1769   3.7804   C.3       1 RES1   0.0000
     5 C5       0.6482  15.2189   3.9875   C.3       1 RES1   0.0000
     6 N6      -0.3514  14.4092   3.2531   N.3       1 RES1   0.0000
     7 C7      -0.3201  12.9793   3.6602   C.3       1 RES1   0.0000
     8 C8       0.7423  12.2497   2.8253   C.3       1 RES1   0.0000
     9 O9       2.0282  12.7598   3.1901   O.3       1 RES1   0.0000
    10 C10      0.7141  10.7287   2.9925   C.3       1 RES1   0.0000
    11 C11      1.5062   9.9617   1.9293   C.3       1 RES1   0.0000
    12 C12      3.0055  10.1218   2.1331   C.2       1 RES1   0.0000
    13 C13      3.6819   9.2415   2.9687   C.2       1 RES1   0.0000
    14 C14      5.0559   9.3729   3.1612   C.2       1 RES1   0.0000
    15 C15      5.7597  10.3809   2.5133   C.2       1 RES1   0.0000
    16 C16      5.0852  11.2609   1.6750   C.2       1 RES1   0.0000
    17 C17      3.7133  11.1226   1.4831   C.2       1 RES1   0.0000
    18 N18     -0.6626  10.2617   2.9642   N.am      1 RES1   0.0000
    19 C19     -1.3426   9.7764   3.9980   C.2       1 RES1   0.0000
    20 O20     -0.9191   9.6460   5.1348   O.2       1 RES1   0.0000
    21 O21     -2.6963   9.3355   3.7104   O.3       1 RES1   0.0000
    22 C22     -3.4942   8.7658   4.7493   C.3       1 RES1   0.0000
    23 C23     -4.8328   8.4177   4.1218   C.3       1 RES1   0.0000
    24 C24     -5.6095   9.7210   3.8561   C.3       1 RES1   0.0000
    25 C25     -6.5630   9.9467   5.0583   C.3       1 RES1   0.0000
    26 C26     -6.5845   8.6374   5.7935   C.2       1 RES1   0.0000
    27 O27     -7.2916   8.3534   6.7319   O.2       1 RES1   0.0000
    28 N28     -5.7060   7.7896   5.1702   N.am      1 RES1   0.0000
    29 S29     -1.8372  15.0765   3.2180   S.o2      1 RES1   0.0000
    30 O30     -2.6132  14.3258   2.2792   O.2       1 RES1   0.0000
    31 O31     -1.6366  16.4601   2.8558   O.2       1 RES1   0.0000
    32 C32     -2.5431  15.0377   4.7027   C.2       1 RES1   0.0000
    33 C33     -3.3132  13.9207   5.0337   C.2       1 RES1   0.0000
    34 C34     -3.8939  13.7865   6.2939   C.2       1 RES1   0.0000
    35 C35     -3.7390  14.7668   7.2530   C.2       1 RES1   0.0000
    36 N36     -4.2206  14.8299   8.5166   N.2       1 RES1   0.0000
    37 C37     -3.8585  15.9590   9.1463   C.2       1 RES1   0.0000
    38 S38     -2.8774  17.0523   8.2193   S.3       1 RES1   0.0000
    39 C39     -2.9891  15.9058   6.9524   C.2       1 RES1   0.0000
    40 C40     -2.3977  16.0308   5.6839   C.2       1 RES1   0.0000
@<TRIPOS>BOND
     1     1     2    1
     2     2     3    1
     3     3     4    1
     4     3     5    1
     5     5     6    1
     6     6     7    1
     7     7     8    1
     8     8     9    1
     9     8    10    1
    10    10    11    1
    11    11    12    1
    12    12    13    2
    13    13    14    1
    14    14    15    2
    15    15    16    1
    16    16    17    2
    17    10    18    1
    18    18    19   am
    19    19    20    2
    20    19    21    1
    21    21    22    1
    22    23    22    1
    23    23    24    1
    24    24    25    1
    25    25    26    1
    26    26    27    2
    27    26    28   am
    28     6    29    1
    29    29    30    2
    30    29    31    2
    31    29    32    1
    32    32    33    2
    33    33    34    1
    34    34    35    2
    35    35    36    1
    36    36    37    2
    37    37    38    1
    38    38    39    1
    39    39    40    2
    40    17    12    1
    41    28    23    1
    42    40    32    1
    43    39    35    1
@<TRIPOS>SUBSTRUCTURE
     1 RES1        1 GROUP             0 ****  ****    0  
@<TRIPOS>MOLECULE
ligand_75
    40    43     1     0     0
SMALL
NO_CHARGES
****
Generated from the CSD

@<TRIPOS>ATOM
     1 C1       2.8210  16.2396   0.9376   C.3       1 RES1   0.0000
     2 C2       2.1896  15.3863   2.0266   C.3       1 RES1   0.0000
     3 C3       1.3904  16.1936   3.0562   C.3       1 RES1   0.0000
     4 C4       2.3108  17.1767   3.7805   C.3       1 RES1   0.0000
     5 C5       0.6483  15.2188   3.9876   C.3       1 RES1   0.0000
     6 N6      -0.3513  14.4092   3.2532   N.3       1 RES1   0.0000
     7 C7      -0.3201  12.9793   3.6602   C.3       1 RES1   0.0000
     8 C8       0.7423  12.2497   2.8253   C.3       1 RES1   0.0000
     9 O9       2.0282  12.7598   3.1901   O.3       1 RES1   0.0000
    10 C10      0.7141  10.7287   2.9925   C.3       1 RES1   0.0000
    11 C11      1.5062   9.9617   1.9293   C.3       1 RES1   0.0000
    12 C12      3.0055  10.1218   2.1331   C.2       1 RES1   0.0000
    13 C13      3.6819   9.2416   2.9687   C.2       1 RES1   0.0000
    14 C14      5.0559   9.3730   3.1612   C.2       1 RES1   0.0000
    15 C15      5.7597  10.3810   2.5133   C.2       1 RES1   0.0000
    16 C16      5.0852  11.2609   1.6750   C.2       1 RES1   0.0000
    17 C17      3.7133  11.1226   1.4830   C.2       1 RES1   0.0000
    18 N18     -0.6626  10.2617   2.9642   N.am      1 RES1   0.0000
    19 C19     -1.3426   9.7764   3.9980   C.2       1 RES1   0.0000
    20 O20     -0.9191   9.6460   5.1348   O.2       1 RES1   0.0000
    21 O21     -2.6963   9.3355   3.7104   O.3       1 RES1   0.0000
    22 C22     -3.4942   8.7658   4.7492   C.3       1 RES1   0.0000
    23 C23     -4.8328   8.4177   4.1218   C.3       1 RES1   0.0000
    24 C24     -5.6095   9.7210   3.8561   C.3       1 RES1   0.0000
    25 C25     -6.5630   9.9467   5.0583   C.3       1 RES1   0.0000
    26 C26     -6.5845   8.6374   5.7935   C.2       1 RES1   0.0000
    27 O27     -7.2916   8.3534   6.7319   O.2       1 RES1   0.0000
    28 N28     -5.7060   7.7896   5.1701   N.am      1 RES1   0.0000
    29 S29     -1.8371  15.0766   3.2181   S.o2      1 RES1   0.0000
    30 O30     -2.6131  14.3259   2.2793   O.2       1 RES1   0.0000
    31 O31     -1.6364  16.4602   2.8560   O.2       1 RES1   0.0000
    32 C32     -2.5430  15.0377   4.7029   C.2       1 RES1   0.0000
    33 C33     -2.3359  16.1237   5.5561   C.2       1 RES1   0.0000
    34 C34     -2.9488  16.1923   6.8062   C.2       1 RES1   0.0000
    35 C35     -3.7703  15.1754   7.2489   C.2       1 RES1   0.0000
    36 N36     -4.4444  15.0486   8.4160   N.2       1 RES1   0.0000
    37 C37     -5.1383  13.9014   8.4840   C.2       1 RES1   0.0000
    38 S38     -5.0171  12.8687   7.0926   S.3       1 RES1   0.0000
    39 C39     -3.9878  14.0656   6.4295   C.2       1 RES1   0.0000
    40 C40     -3.3754  14.0069   5.1662   C.2       1 RES1   0.0000
@<TRIPOS>BOND
     1     1     2    1
     2     2     3    1
     3     3     4    1
     4     3     5    1
     5     5     6    1
     6     6     7    1
     7     7     8    1
     8     8     9    1
     9     8    10    1
    10    10    11    1
    11    11    12    1
    12    12    13    2
    13    13    14    1
    14    14    15    2
    15    15    16    1
    16    16    17    2
    17    10    18    1
    18    18    19   am
    19    19    20    2
    20    19    21    1
    21    21    22    1
    22    23    22    1
    23    23    24    1
    24    24    25    1
    25    25    26    1
    26    26    27    2
    27    26    28   am
    28     6    29    1
    29    29    30    2
    30    29    31    2
    31    29    32    1
    32    32    33    2
    33    33    34    1
    34    34    35    2
    35    35    36    1
    36    36    37    2
    37    37    38    1
    38    38    39    1
    39    39    40    2
    40    17    12    1
    41    28    23    1
    42    40    32    1
    43    39    35    1
@<TRIPOS>SUBSTRUCTURE
     1 RES1        1 GROUP             0 ****  ****    0  
@<TRIPOS>MOLECULE
ligand_76
    40    43     1     0     0
SMALL
NO_CHARGES
****
Generated from the CSD

@<TRIPOS>ATOM
     1 C1      -0.3282   7.6317  13.9918   C.3       1 RES1   0.0000
     2 C2      -0.8710   8.5184  12.8819   C.3       1 RES1   0.0000
     3 C3      -2.2974   9.0198  13.1358   C.3       1 RES1   0.0000
     4 C4      -3.2581   7.8349  13.2435   C.3       1 RES1   0.0000
     5 C5      -2.6699  10.0387  12.0443   C.3       1 RES1   0.0000
     6 N6      -1.8121  11.2449  12.1015   N.3       1 RES1   0.0000
     7 C7      -1.4381  11.7292  10.7463   C.3       1 RES1   0.0000
     8 C8      -2.5165  11.2860   9.7469   C.3       1 RES1   0.0000
     9 O9      -3.7871  11.7319  10.2303   O.3       1 RES1   0.0000
    10 C10     -2.2842  11.8041   8.3257   C.3       1 RES1   0.0000
    11 C11     -2.4000  13.3246   8.1810   C.3       1 RES1   0.0000
    12 C12     -1.9306  13.7876   6.8098   C.2       1 RES1   0.0000
    13 C13     -0.5957  14.1225   6.6189   C.2       1 RES1   0.0000
    14 C14     -0.1502  14.5436   5.3673   C.2       1 RES1   0.0000
    15 C15     -1.0369  14.6247   4.3002   C.2       1 RES1   0.0000
    16 C16     -2.3721  14.2876   4.4887   C.2       1 RES1   0.0000
    17 C17     -2.8108  13.8636   5.7400   C.2       1 RES1   0.0000
    18 N18     -3.2374  11.1835   7.4199   N.am      1 RES1   0.0000
    19 C19     -2.9515  10.2837   6.4842   C.2       1 RES1   0.0000
    20 O20     -1.8437   9.8361   6.2372   O.2       1 RES1   0.0000
    21 O21     -4.0724   9.8396   5.6742   O.3       1 RES1   0.0000
    22 C22     -3.8590   8.9007   4.6190   C.3       1 RES1   0.0000
    23 C23     -5.2154   8.6538   3.9821   C.3       1 RES1   0.0000
    24 C24     -5.8951  10.0111   3.7213   C.3       1 RES1   0.0000
    25 C25     -6.8369  10.2969   4.9199   C.3       1 RES1   0.0000
    26 C26     -6.9565   8.9879   5.6459   C.2       1 RES1   0.0000
    27 O27     -7.6876   8.7492   6.5786   O.2       1 RES1   0.0000
    28 N28     -6.1375   8.0832   5.0214   N.am      1 RES1   0.0000
    29 S29     -2.3690  12.3979  13.1087   S.o2      1 RES1   0.0000
    30 O30     -1.3263  13.3665  13.2565   O.2       1 RES1   0.0000
    31 O31     -2.7252  11.7130  14.3293   O.2       1 RES1   0.0000
    32 C32     -3.7265  13.1072  12.5100   C.2       1 RES1   0.0000
    33 C33     -4.9600  12.5337  12.8260   C.2       1 RES1   0.0000
    34 C34     -6.1578  13.1103  12.4067   C.2       1 RES1   0.0000
    35 C35     -6.1612  14.2629  11.6475   C.2       1 RES1   0.0000
    36 N36     -7.2007  14.9669  11.1412   N.2       1 RES1   0.0000
    37 C37     -6.7995  16.0397  10.4408   C.2       1 RES1   0.0000
    38 S38     -5.0809  16.2743  10.3485   S.3       1 RES1   0.0000
    39 C39     -4.9460  14.8559  11.2982   C.2       1 RES1   0.0000
    40 C40     -3.7422  14.2756  11.7324   C.2       1 RES1   0.0000
@<TRIPOS>BOND
     1     1     2    1
     2     2     3    1
     3     3     4    1
     4     3     5    1
     5     5     6    1
     6     6     7    1
     7     7     8    1
     8     8     9    1
     9     8    10    1
    10    10    11    1
    11    11    12    1
    12    12    13    2
    13    13    14    1
    14    14    15    2
    15    15    16    1
    16    16    17    2
    17    10    18    1
    18    18    19   am
    19    19    20    2
    20    19    21    1
    21    21    22    1
    22    23    22    1
    23    23    24    1
    24    24    25    1
    25    25    26    1
    26    26    27    2
    27    26    28   am
    28     6    29    1
    29    29    30    2
    30    29    31    2
    31    29    32    1
    32    32    33    2
    33    33    34    1
    34    34    35    2
    35    35    36    1
    36    36    37    2
    37    37    38    1
    38    38    39    1
    39    39    40    2
    40    17    12    1
    41    28    23    1
    42    40    32    1
    43    39    35    1
@<TRIPOS>SUBSTRUCTURE
     1 RES1        1 GROUP             0 ****  ****    0  
@<TRIPOS>MOLECULE
ligand_77
    40    43     1     0     0
SMALL
NO_CHARGES
****
Generated from the CSD

@<TRIPOS>ATOM
     1 C1      -0.3597   7.5899  13.9455   C.3       1 RES1   0.0000
     2 C2      -0.9001   8.4939  12.8484   C.3       1 RES1   0.0000
     3 C3      -2.3167   9.0135  13.1202   C.3       1 RES1   0.0000
     4 C4      -3.2933   7.8417  13.2270   C.3       1 RES1   0.0000
     5 C5      -2.6848  10.0470  12.0410   C.3       1 RES1   0.0000
     6 N6      -1.8095  11.2405  12.1007   N.3       1 RES1   0.0000
     7 C7      -1.4381  11.7292  10.7463   C.3       1 RES1   0.0000
     8 C8      -2.5165  11.2860   9.7469   C.3       1 RES1   0.0000
     9 O9      -3.7871  11.7319  10.2303   O.3       1 RES1   0.0000
    10 C10     -2.2842  11.8041   8.3257   C.3       1 RES1   0.0000
    11 C11     -2.4151  13.3231   8.1779   C.3       1 RES1   0.0000
    12 C12     -1.9505  13.7880   6.8058   C.2       1 RES1   0.0000
    13 C13     -0.6190  14.1358   6.6139   C.2       1 RES1   0.0000
    14 C14     -0.1780  14.5587   5.3614   C.2       1 RES1   0.0000
    15 C15     -1.0656  14.6289   4.2944   C.2       1 RES1   0.0000
    16 C16     -2.3973  14.2789   4.4837   C.2       1 RES1   0.0000
    17 C17     -2.8317  13.8531   5.7360   C.2       1 RES1   0.0000
    18 N18     -3.2275  11.1721   7.4174   N.am      1 RES1   0.0000
    19 C19     -2.9288  10.2739   6.4843   C.2       1 RES1   0.0000
    20 O20     -1.8155   9.8373   6.2422   O.2       1 RES1   0.0000
    21 O21     -4.0420   9.8168   5.6708   O.3       1 RES1   0.0000
    22 C22     -3.8149   8.8784   4.6181   C.3       1 RES1   0.0000
    23 C23     -5.1664   8.6164   3.9765   C.3       1 RES1   0.0000
    24 C24     -5.8590   9.9663   3.7108   C.3       1 RES1   0.0000
    25 C25     -6.8082  10.2443   4.9054   C.3       1 RES1   0.0000
    26 C26     -6.9171   8.9353   5.6332   C.2       1 RES1   0.0000
    27 O27     -7.6492   8.6906   6.5635   O.2       1 RES1   0.0000
    28 N28     -6.0864   8.0381   5.0133   N.am      1 RES1   0.0000
    29 S29     -2.3431  12.3940  13.1198   S.o2      1 RES1   0.0000
    30 O30     -1.2838  13.3439  13.2714   O.2       1 RES1   0.0000
    31 O31     -2.7055  11.7048  14.3361   O.2       1 RES1   0.0000
    32 C32     -3.6910  13.1308  12.5329   C.2       1 RES1   0.0000
    33 C33     -3.5246  14.2744  11.7488   C.2       1 RES1   0.0000
    34 C34     -4.6138  14.9201  11.1659   C.2       1 RES1   0.0000
    35 C35     -5.8991  14.4566  11.3608   C.2       1 RES1   0.0000
    36 N36     -7.0760  14.9374  10.8958   N.2       1 RES1   0.0000
    37 C37     -8.1257  14.2115  11.3125   C.2       1 RES1   0.0000
    38 S38     -7.7428  12.8539  12.3262   S.3       1 RES1   0.0000
    39 C39     -6.1058  13.3249  12.1525   C.2       1 RES1   0.0000
    40 C40     -5.0030  12.6723  12.7291   C.2       1 RES1   0.0000
@<TRIPOS>BOND
     1     1     2    1
     2     2     3    1
     3     3     4    1
     4     3     5    1
     5     5     6    1
     6     6     7    1
     7     7     8    1
     8     8     9    1
     9     8    10    1
    10    10    11    1
    11    11    12    1
    12    12    13    2
    13    13    14    1
    14    14    15    2
    15    15    16    1
    16    16    17    2
    17    10    18    1
    18    18    19   am
    19    19    20    2
    20    19    21    1
    21    21    22    1
    22    23    22    1
    23    23    24    1
    24    24    25    1
    25    25    26    1
    26    26    27    2
    27    26    28   am
    28     6    29    1
    29    29    30    2
    30    29    31    2
    31    29    32    1
    32    32    33    2
    33    33    34    1
    34    34    35    2
    35    35    36    1
    36    36    37    2
    37    37    38    1
    38    38    39    1
    39    39    40    2
    40    17    12    1
    41    28    23    1
    42    40    32    1
    43    39    35    1
@<TRIPOS>SUBSTRUCTURE
     1 RES1        1 GROUP             0 ****  ****    0  
@<TRIPOS>MOLECULE
ligand_78
    40    43     1     0     0
SMALL
NO_CHARGES
****
Generated from the CSD

@<TRIPOS>ATOM
     1 C1      -4.2662  10.4251  13.9464   C.3       1 RES1   0.0000
     2 C2      -3.1345  10.3971  12.9309   C.3       1 RES1   0.0000
     3 C3      -2.1128   9.2809  13.1775   C.3       1 RES1   0.0000
     4 C4      -1.4542   9.4659  14.5451   C.3       1 RES1   0.0000
     5 C5      -1.1234   9.2409  11.9995   C.3       1 RES1   0.0000
     6 N6      -1.7950   8.8833  10.7286   N.3       1 RES1   0.0000
     7 C7      -1.3853   9.7737   9.6104   C.3       1 RES1   0.0000
     8 C8      -2.2361  11.0512   9.6573   C.3       1 RES1   0.0000
     9 O9      -1.7140  11.9011  10.6830   O.3       1 RES1   0.0000
    10 C10     -2.2842  11.8041   8.3257   C.3       1 RES1   0.0000
    11 C11     -2.7576  13.2565   8.4381   C.3       1 RES1   0.0000
    12 C12     -2.6059  13.9923   7.1150   C.2       1 RES1   0.0000
    13 C13     -1.4218  14.6631   6.8352   C.2       1 RES1   0.0000
    14 C14     -1.2666  15.3374   5.6254   C.2       1 RES1   0.0000
    15 C15     -2.2927  15.3374   4.6881   C.2       1 RES1   0.0000
    16 C16     -3.4770  14.6647   4.9652   C.2       1 RES1   0.0000
    17 C17     -3.6251  13.9893   6.1735   C.2       1 RES1   0.0000
    18 N18     -3.1644  11.1051   7.4033   N.am      1 RES1   0.0000
    19 C19     -2.7881  10.2186   6.4871   C.2       1 RES1   0.0000
    20 O20     -1.6441   9.8510   6.2752   O.2       1 RES1   0.0000
    21 O21     -3.8509   9.6843   5.6538   O.3       1 RES1   0.0000
    22 C22     -3.5407   8.7521   4.6169   C.3       1 RES1   0.0000
    23 C23     -4.8576   8.3990   3.9477   C.3       1 RES1   0.0000
    24 C24     -5.6275   9.6998   3.6515   C.3       1 RES1   0.0000
    25 C25     -6.6199   9.9287   4.8211   C.3       1 RES1   0.0000
    26 C26     -6.6631   8.6225   5.5607   C.2       1 RES1   0.0000
    27 O27     -7.3998   8.3409   6.4768   O.2       1 RES1   0.0000
    28 N28     -5.7634   7.7736   4.9697   N.am      1 RES1   0.0000
    29 S29     -1.7452   7.2912  10.3866   S.o2      1 RES1   0.0000
    30 O30     -2.6333   7.0695   9.2869   O.2       1 RES1   0.0000
    31 O31     -2.1247   6.6167  11.6059   O.2       1 RES1   0.0000
    32 C32     -0.2213   6.8131   9.9952   C.2       1 RES1   0.0000
    33 C33      0.6134   6.3747  11.0254   C.2       1 RES1   0.0000
    34 C34      1.8972   5.8972  10.7665   C.2       1 RES1   0.0000
    35 C35      2.3921   5.8587   9.4787   C.2       1 RES1   0.0000
    36 N36      3.5975   5.4440   9.0230   N.2       1 RES1   0.0000
    37 C37      3.7115   5.5685   7.6911   C.2       1 RES1   0.0000
    38 S38      2.3199   6.2152   6.8772   S.3       1 RES1   0.0000
    39 C39      1.5920   6.3044   8.4245   C.2       1 RES1   0.0000
    40 C40      0.2950   6.7750   8.6905   C.2       1 RES1   0.0000
@<TRIPOS>BOND
     1     1     2    1
     2     2     3    1
     3     3     4    1
     4     3     5    1
     5     5     6    1
     6     6     7    1
     7     7     8    1
     8     8     9    1
     9     8    10    1
    10    10    11    1
    11    11    12    1
    12    12    13    2
    13    13    14    1
    14    14    15    2
    15    15    16    1
    16    16    17    2
    17    10    18    1
    18    18    19   am
    19    19    20    2
    20    19    21    1
    21    21    22    1
    22    23    22    1
    23    23    24    1
    24    24    25    1
    25    25    26    1
    26    26    27    2
    27    26    28   am
    28     6    29    1
    29    29    30    2
    30    29    31    2
    31    29    32    1
    32    32    33    2
    33    33    34    1
    34    34    35    2
    35    35    36    1
    36    36    37    2
    37    37    38    1
    38    38    39    1
    39    39    40    2
    40    17    12    1
    41    28    23    1
    42    40    32    1
    43    39    35    1
@<TRIPOS>SUBSTRUCTURE
     1 RES1        1 GROUP             0 ****  ****    0  
@<TRIPOS>MOLECULE
ligand_79
    40    43     1     0     0
SMALL
NO_CHARGES
****
Generated from the CSD

@<TRIPOS>ATOM
     1 C1       0.6217  15.6830  -2.5321   C.3       1 RES1   0.0000
     2 C2      -0.3282  15.3689  -1.3868   C.3       1 RES1   0.0000
     3 C3      -1.7957  15.6838  -1.6995   C.3       1 RES1   0.0000
     4 C4      -1.9606  17.1754  -1.9935   C.3       1 RES1   0.0000
     5 C5      -2.6739  15.1657  -0.5468   C.3       1 RES1   0.0000
     6 N6      -2.5998  13.6919  -0.4181   N.3       1 RES1   0.0000
     7 C7      -2.4930  13.2598   1.0007   C.3       1 RES1   0.0000
     8 C8      -1.0115  13.0452   1.3429   C.3       1 RES1   0.0000
     9 O9      -0.3438  14.3078   1.2593   O.3       1 RES1   0.0000
    10 C10     -0.7857  12.4223   2.7225   C.3       1 RES1   0.0000
    11 C11      0.6877  12.2506   3.1045   C.3       1 RES1   0.0000
    12 C12      0.8360  11.8006   4.5503   C.2       1 RES1   0.0000
    13 C13      0.9454  12.7520   5.5570   C.2       1 RES1   0.0000
    14 C14      1.0769  12.3548   6.8863   C.2       1 RES1   0.0000
    15 C15      1.0927  11.0045   7.2144   C.2       1 RES1   0.0000
    16 C16      0.9809  10.0513   6.2091   C.2       1 RES1   0.0000
    17 C17      0.8455  10.4537   4.8832   C.2       1 RES1   0.0000
    18 N18     -1.4287  11.1194   2.7790   N.am      1 RES1   0.0000
    19 C19     -2.2200  10.6822   3.7535   C.2       1 RES1   0.0000
    20 O20     -2.5320  11.3051   4.7551   O.2       1 RES1   0.0000
    21 O21     -2.7124   9.3240   3.6033   O.3       1 RES1   0.0000
    22 C22     -3.5410   8.7522   4.6167   C.3       1 RES1   0.0000
    23 C23     -4.8575   8.3984   3.9471   C.3       1 RES1   0.0000
    24 C24     -5.6303   9.6984   3.6554   C.3       1 RES1   0.0000
    25 C25     -6.6226   9.9216   4.8262   C.3       1 RES1   0.0000
    26 C26     -6.6626   8.6130   5.5616   C.2       1 RES1   0.0000
    27 O27     -7.3983   8.3270   6.4772   O.2       1 RES1   0.0000
    28 N28     -5.7614   7.7679   4.9676   N.am      1 RES1   0.0000
    29 S29     -3.7260  12.9006  -1.2896   S.o2      1 RES1   0.0000
    30 O30     -3.3761  11.5134  -1.2683   O.2       1 RES1   0.0000
    31 O31     -3.7000  13.5028  -2.6020   O.2       1 RES1   0.0000
    32 C32     -5.2293  13.1200  -0.6601   C.2       1 RES1   0.0000
    33 C33     -5.9804  14.2044  -1.1185   C.2       1 RES1   0.0000
    34 C34     -7.2848  14.4225  -0.6780   C.2       1 RES1   0.0000
    35 C35     -7.8716  13.5783   0.2429   C.2       1 RES1   0.0000
    36 N36     -9.1065  13.6195   0.7960   N.2       1 RES1   0.0000
    37 C37     -9.3106  12.6184   1.6670   C.2       1 RES1   0.0000
    38 S38     -7.9773  11.5253   1.8780   S.3       1 RES1   0.0000
    39 C39     -7.1452  12.4925   0.7361   C.2       1 RES1   0.0000
    40 C40     -5.8343  12.2719   0.2806   C.2       1 RES1   0.0000
@<TRIPOS>BOND
     1     1     2    1
     2     2     3    1
     3     3     4    1
     4     3     5    1
     5     5     6    1
     6     6     7    1
     7     7     8    1
     8     8     9    1
     9     8    10    1
    10    10    11    1
    11    11    12    1
    12    12    13    2
    13    13    14    1
    14    14    15    2
    15    15    16    1
    16    16    17    2
    17    10    18    1
    18    18    19   am
    19    19    20    2
    20    19    21    1
    21    21    22    1
    22    23    22    1
    23    23    24    1
    24    24    25    1
    25    25    26    1
    26    26    27    2
    27    26    28   am
    28     6    29    1
    29    29    30    2
    30    29    31    2
    31    29    32    1
    32    32    33    2
    33    33    34    1
    34    34    35    2
    35    35    36    1
    36    36    37    2
    37    37    38    1
    38    38    39    1
    39    39    40    2
    40    17    12    1
    41    28    23    1
    42    40    32    1
    43    39    35    1
@<TRIPOS>SUBSTRUCTURE
     1 RES1        1 GROUP             0 ****  ****    0  
@<TRIPOS>MOLECULE
ligand_80
    40    43     1     0     0
SMALL
NO_CHARGES
****
Generated from the CSD

@<TRIPOS>ATOM
     1 C1      -7.2081  13.9084  12.8328   C.3       1 RES1   0.0000
     2 C2      -6.7226  12.5232  12.4353   C.3       1 RES1   0.0000
     3 C3      -7.7087  11.4016  12.7819   C.3       1 RES1   0.0000
     4 C4      -7.9293  11.3465  14.2941   C.3       1 RES1   0.0000
     5 C5      -7.2021  10.0844  12.1684   C.3       1 RES1   0.0000
     6 N6      -7.1688  10.1434  10.6887   N.3       1 RES1   0.0000
     7 C7      -5.9193   9.5582  10.1342   C.3       1 RES1   0.0000
     8 C8      -4.8283  10.6388  10.1240   C.3       1 RES1   0.0000
     9 O9      -4.4962  10.9544  11.4794   O.3       1 RES1   0.0000
    10 C10     -3.5690  10.2301   9.3564   C.3       1 RES1   0.0000
    11 C11     -2.3242  11.0535   9.7012   C.3       1 RES1   0.0000
    12 C12     -1.0794  10.4773   9.0429   C.2       1 RES1   0.0000
    13 C13     -0.3271   9.5226   9.7160   C.2       1 RES1   0.0000
    14 C14      0.8128   8.9823   9.1236   C.2       1 RES1   0.0000
    15 C15      1.2007   9.3899   7.8529   C.2       1 RES1   0.0000
    16 C16      0.4480  10.3430   7.1770   C.2       1 RES1   0.0000
    17 C17     -0.6922  10.8764   7.7717   C.2       1 RES1   0.0000
    18 N18     -3.8122  10.3434   7.9274   N.am      1 RES1   0.0000
    19 C19     -3.5310   9.4203   7.0132   C.2       1 RES1   0.0000
    20 O20     -3.0517   8.3198   7.2321   O.2       1 RES1   0.0000
    21 O21     -3.7939   9.7977   5.6355   O.3       1 RES1   0.0000
    22 C22     -3.4937   8.8847   4.5787   C.3       1 RES1   0.0000
    23 C23     -4.7966   8.6420   3.8369   C.3       1 RES1   0.0000
    24 C24     -5.4582  10.0008   3.5395   C.3       1 RES1   0.0000
    25 C25     -6.4900  10.2714   4.6653   C.3       1 RES1   0.0000
    26 C26     -6.6611   8.9542   5.3658   C.2       1 RES1   0.0000
    27 O27     -7.4609   8.7037   6.2370   O.2       1 RES1   0.0000
    28 N28     -5.7940   8.0581   4.7962   N.am      1 RES1   0.0000
    29 S29     -8.5399   9.6204   9.9811   S.o2      1 RES1   0.0000
    30 O30     -8.4457   9.9448   8.5908   O.2       1 RES1   0.0000
    31 O31     -9.6175  10.2837  10.6773   O.2       1 RES1   0.0000
    32 C32     -8.7309   7.9989  10.1775   C.2       1 RES1   0.0000
    33 C33     -8.1836   7.1524   9.2111   C.2       1 RES1   0.0000
    34 C34     -8.2513   5.7658   9.3379   C.2       1 RES1   0.0000
    35 C35     -8.8799   5.1835  10.4199   C.2       1 RES1   0.0000
    36 N36     -9.0578   3.8758  10.7212   N.2       1 RES1   0.0000
    37 C37     -9.7332   3.7024  11.8684   C.2       1 RES1   0.0000
    38 S38    -10.2106   5.1595  12.6845   S.3       1 RES1   0.0000
    39 C39     -9.4533   5.9985  11.3982   C.2       1 RES1   0.0000
    40 C40     -9.3730   7.3955  11.2701   C.2       1 RES1   0.0000
@<TRIPOS>BOND
     1     1     2    1
     2     2     3    1
     3     3     4    1
     4     3     5    1
     5     5     6    1
     6     6     7    1
     7     7     8    1
     8     8     9    1
     9     8    10    1
    10    10    11    1
    11    11    12    1
    12    12    13    2
    13    13    14    1
    14    14    15    2
    15    15    16    1
    16    16    17    2
    17    10    18    1
    18    18    19   am
    19    19    20    2
    20    19    21    1
    21    21    22    1
    22    23    22    1
    23    23    24    1
    24    24    25    1
    25    25    26    1
    26    26    27    2
    27    26    28   am
    28     6    29    1
    29    29    30    2
    30    29    31    2
    31    29    32    1
    32    32    33    2
    33    33    34    1
    34    34    35    2
    35    35    36    1
    36    36    37    2
    37    37    38    1
    38    38    39    1
    39    39    40    2
    40    17    12    1
    41    28    23    1
    42    40    32    1
    43    39    35    1
@<TRIPOS>SUBSTRUCTURE
     1 RES1        1 GROUP             0 ****  ****    0  
@<TRIPOS>MOLECULE
ligand_81
    40    43     1     0     0
SMALL
NO_CHARGES
****
Generated from the CSD

@<TRIPOS>ATOM
     1 C1      -7.2048  13.8987  12.8511   C.3       1 RES1   0.0000
     2 C2      -6.7203  12.5146  12.4482   C.3       1 RES1   0.0000
     3 C3      -7.7081  11.3927  12.7888   C.3       1 RES1   0.0000
     4 C4      -7.9303  11.3311  14.3006   C.3       1 RES1   0.0000
     5 C5      -7.2023  10.0776  12.1700   C.3       1 RES1   0.0000
     6 N6      -7.1682  10.1428  10.6906   N.3       1 RES1   0.0000
     7 C7      -5.9193   9.5582  10.1342   C.3       1 RES1   0.0000
     8 C8      -4.8283  10.6388  10.1240   C.3       1 RES1   0.0000
     9 O9      -4.4962  10.9544  11.4794   O.3       1 RES1   0.0000
    10 C10     -3.5690  10.2301   9.3564   C.3       1 RES1   0.0000
    11 C11     -2.3276  11.0632   9.6903   C.3       1 RES1   0.0000
    12 C12     -1.0816  10.4878   9.0336   C.2       1 RES1   0.0000
    13 C13     -0.3224   9.5431   9.7130   C.2       1 RES1   0.0000
    14 C14      0.8187   9.0036   9.1222   C.2       1 RES1   0.0000
    15 C15      1.2009   9.4021   7.8468   C.2       1 RES1   0.0000
    16 C16      0.4412  10.3451   7.1646   C.2       1 RES1   0.0000
    17 C17     -0.7001  10.8777   7.7579   C.2       1 RES1   0.0000
    18 N18     -3.8168  10.3295   7.9272   N.am      1 RES1   0.0000
    19 C19     -3.5327   9.4002   7.0202   C.2       1 RES1   0.0000
    20 O20     -3.0361   8.3088   7.2460   O.2       1 RES1   0.0000
    21 O21     -3.8152   9.7586   5.6414   O.3       1 RES1   0.0000
    22 C22     -3.5143   8.8379   4.5915   C.3       1 RES1   0.0000
    23 C23     -4.8244   8.5582   3.8759   C.3       1 RES1   0.0000
    24 C24     -5.5222   9.8985   3.5776   C.3       1 RES1   0.0000
    25 C25     -6.5395  10.1567   4.7194   C.3       1 RES1   0.0000
    26 C26     -6.6678   8.8430   5.4354   C.2       1 RES1   0.0000
    27 O27     -7.4458   8.5831   6.3233   O.2       1 RES1   0.0000
    28 N28     -5.7907   7.9613   4.8587   N.am      1 RES1   0.0000
    29 S29     -8.5398   9.6249   9.9801   S.o2      1 RES1   0.0000
    30 O30     -8.4480   9.9625   8.5927   O.2       1 RES1   0.0000
    31 O31     -9.6171  10.2803  10.6841   O.2       1 RES1   0.0000
    32 C32     -8.7285   8.0013  10.1614   C.2       1 RES1   0.0000
    33 C33     -9.4233   7.5431  11.2827   C.2       1 RES1   0.0000
    34 C34     -9.6765   6.1859  11.4758   C.2       1 RES1   0.0000
    35 C35     -9.2309   5.2464  10.5681   C.2       1 RES1   0.0000
    36 N36     -9.3644   3.8994  10.5757   N.2       1 RES1   0.0000
    37 C37     -8.7825   3.3216   9.5127   C.2       1 RES1   0.0000
    38 S38     -8.0123   4.4080   8.3975   S.3       1 RES1   0.0000
    39 C39     -8.5183   5.6661   9.4429   C.2       1 RES1   0.0000
    40 C40     -8.2751   7.0363   9.2485   C.2       1 RES1   0.0000
@<TRIPOS>BOND
     1     1     2    1
     2     2     3    1
     3     3     4    1
     4     3     5    1
     5     5     6    1
     6     6     7    1
     7     7     8    1
     8     8     9    1
     9     8    10    1
    10    10    11    1
    11    11    12    1
    12    12    13    2
    13    13    14    1
    14    14    15    2
    15    15    16    1
    16    16    17    2
    17    10    18    1
    18    18    19   am
    19    19    20    2
    20    19    21    1
    21    21    22    1
    22    23    22    1
    23    23    24    1
    24    24    25    1
    25    25    26    1
    26    26    27    2
    27    26    28   am
    28     6    29    1
    29    29    30    2
    30    29    31    2
    31    29    32    1
    32    32    33    2
    33    33    34    1
    34    34    35    2
    35    35    36    1
    36    36    37    2
    37    37    38    1
    38    38    39    1
    39    39    40    2
    40    17    12    1
    41    28    23    1
    42    40    32    1
    43    39    35    1
@<TRIPOS>SUBSTRUCTURE
     1 RES1        1 GROUP             0 ****  ****    0  
@<TRIPOS>MOLECULE
ligand_82
    40    43     1     0     0
SMALL
NO_CHARGES
****
Generated from the CSD

@<TRIPOS>ATOM
     1 C1       5.3397  11.8182   0.0789   C.3       1 RES1   0.0000
     2 C2       4.4972  10.6007  -0.2682   C.3       1 RES1   0.0000
     3 C3       5.2904   9.2889  -0.2922   C.3       1 RES1   0.0000
     4 C4       6.3969   9.3646  -1.3450   C.3       1 RES1   0.0000
     5 C5       4.3117   8.1174  -0.4866   C.3       1 RES1   0.0000
     6 N6       3.3753   7.9875   0.6538   N.3       1 RES1   0.0000
     7 C7       1.9747   7.7699   0.2044   C.3       1 RES1   0.0000
     8 C8       1.0422   8.6564   1.0427   C.3       1 RES1   0.0000
     9 O9       1.3877  10.0239   0.8032   O.3       1 RES1   0.0000
    10 C10     -0.4431   8.4311   0.7503   C.3       1 RES1   0.0000
    11 C11     -0.9029   8.9469  -0.6168   C.3       1 RES1   0.0000
    12 C12     -2.3352   8.5282  -0.9134   C.2       1 RES1   0.0000
    13 C13     -2.5771   7.3253  -1.5655   C.2       1 RES1   0.0000
    14 C14     -3.8839   6.9264  -1.8396   C.2       1 RES1   0.0000
    15 C15     -4.9542   7.7258  -1.4562   C.2       1 RES1   0.0000
    16 C16     -4.7143   8.9282  -0.8015   C.2       1 RES1   0.0000
    17 C17     -3.4070   9.3199  -0.5265   C.2       1 RES1   0.0000
    18 N18     -1.2444   9.0772   1.7772   N.am      1 RES1   0.0000
    19 C19     -1.9607   8.4592   2.7109   C.2       1 RES1   0.0000
    20 O20     -2.0592   7.2515   2.8539   O.2       1 RES1   0.0000
    21 O21     -2.7124   9.3240   3.6033   O.3       1 RES1   0.0000
    22 C22     -3.5407   8.7521   4.6168   C.3       1 RES1   0.0000
    23 C23     -4.8576   8.3991   3.9477   C.3       1 RES1   0.0000
    24 C24     -5.6301   9.6995   3.6568   C.3       1 RES1   0.0000
    25 C25     -6.6218   9.9225   4.8281   C.3       1 RES1   0.0000
    26 C26     -6.6620   8.6136   5.5631   C.2       1 RES1   0.0000
    27 O27     -7.3973   8.3276   6.4789   O.2       1 RES1   0.0000
    28 N28     -5.7613   7.7685   4.9684   N.am      1 RES1   0.0000
    29 S29      3.8887   6.9604   1.8095   S.o2      1 RES1   0.0000
    30 O30      3.0203   7.1254   2.9345   O.2       1 RES1   0.0000
    31 O31      5.2665   7.3122   2.0620   O.2       1 RES1   0.0000
    32 C32      3.8508   5.4031   1.2824   C.2       1 RES1   0.0000
    33 C33      2.6852   4.6654   1.4998   C.2       1 RES1   0.0000
    34 C34      2.5539   3.3596   1.0299   C.2       1 RES1   0.0000
    35 C35      3.5840   2.7461   0.3462   C.2       1 RES1   0.0000
    36 N36      3.6581   1.5005  -0.1786   N.2       1 RES1   0.0000
    37 C37      4.8406   1.2633  -0.7684   C.2       1 RES1   0.0000
    38 S38      5.9760   2.5771  -0.7261   S.3       1 RES1   0.0000
    39 C39      4.7712   3.4473   0.1242   C.2       1 RES1   0.0000
    40 C40      4.8938   4.7668   0.5915   C.2       1 RES1   0.0000
@<TRIPOS>BOND
     1     1     2    1
     2     2     3    1
     3     3     4    1
     4     3     5    1
     5     5     6    1
     6     6     7    1
     7     7     8    1
     8     8     9    1
     9     8    10    1
    10    10    11    1
    11    11    12    1
    12    12    13    2
    13    13    14    1
    14    14    15    2
    15    15    16    1
    16    16    17    2
    17    10    18    1
    18    18    19   am
    19    19    20    2
    20    19    21    1
    21    21    22    1
    22    23    22    1
    23    23    24    1
    24    24    25    1
    25    25    26    1
    26    26    27    2
    27    26    28   am
    28     6    29    1
    29    29    30    2
    30    29    31    2
    31    29    32    1
    32    32    33    2
    33    33    34    1
    34    34    35    2
    35    35    36    1
    36    36    37    2
    37    37    38    1
    38    38    39    1
    39    39    40    2
    40    17    12    1
    41    28    23    1
    42    40    32    1
    43    39    35    1
@<TRIPOS>SUBSTRUCTURE
     1 RES1        1 GROUP             0 ****  ****    0  
@<TRIPOS>MOLECULE
ligand_83
    40    43     1     0     0
SMALL
NO_CHARGES
****
Generated from the CSD

@<TRIPOS>ATOM
     1 C1       5.3398  11.8182   0.0795   C.3       1 RES1   0.0000
     2 C2       4.4972  10.6008  -0.2680   C.3       1 RES1   0.0000
     3 C3       5.2905   9.2890  -0.2921   C.3       1 RES1   0.0000
     4 C4       6.3969   9.3648  -1.3450   C.3       1 RES1   0.0000
     5 C5       4.3117   8.1175  -0.4867   C.3       1 RES1   0.0000
     6 N6       3.3753   7.9875   0.6537   N.3       1 RES1   0.0000
     7 C7       1.9747   7.7699   0.2044   C.3       1 RES1   0.0000
     8 C8       1.0422   8.6564   1.0427   C.3       1 RES1   0.0000
     9 O9       1.3877  10.0239   0.8032   O.3       1 RES1   0.0000
    10 C10     -0.4431   8.4311   0.7503   C.3       1 RES1   0.0000
    11 C11     -0.9029   8.9470  -0.6168   C.3       1 RES1   0.0000
    12 C12     -2.3353   8.5282  -0.9134   C.2       1 RES1   0.0000
    13 C13     -2.5771   7.3254  -1.5656   C.2       1 RES1   0.0000
    14 C14     -3.8840   6.9265  -1.8396   C.2       1 RES1   0.0000
    15 C15     -4.9542   7.7259  -1.4562   C.2       1 RES1   0.0000
    16 C16     -4.7143   8.9282  -0.8014   C.2       1 RES1   0.0000
    17 C17     -3.4070   9.3199  -0.5265   C.2       1 RES1   0.0000
    18 N18     -1.2444   9.0772   1.7772   N.am      1 RES1   0.0000
    19 C19     -1.9607   8.4590   2.7109   C.2       1 RES1   0.0000
    20 O20     -2.0592   7.2514   2.8538   O.2       1 RES1   0.0000
    21 O21     -2.7124   9.3239   3.6034   O.3       1 RES1   0.0000
    22 C22     -3.5407   8.7519   4.6169   C.3       1 RES1   0.0000
    23 C23     -4.8576   8.3989   3.9477   C.3       1 RES1   0.0000
    24 C24     -5.6301   9.6993   3.6569   C.3       1 RES1   0.0000
    25 C25     -6.6218   9.9222   4.8282   C.3       1 RES1   0.0000
    26 C26     -6.6619   8.6133   5.5632   C.2       1 RES1   0.0000
    27 O27     -7.3973   8.3272   6.4790   O.2       1 RES1   0.0000
    28 N28     -5.7612   7.7682   4.9684   N.am      1 RES1   0.0000
    29 S29      3.8888   6.9604   1.8094   S.o2      1 RES1   0.0000
    30 O30      3.0272   7.1332   2.9385   O.2       1 RES1   0.0000
    31 O31      5.2699   7.3048   2.0539   O.2       1 RES1   0.0000
    32 C32      3.8391   5.4020   1.2865   C.2       1 RES1   0.0000
    33 C33      4.9737   4.8848   0.6578   C.2       1 RES1   0.0000
    34 C34      5.0308   3.5558   0.2409   C.2       1 RES1   0.0000
    35 C35      3.9554   2.7100   0.4224   C.2       1 RES1   0.0000
    36 N36      3.8088   1.4066   0.0873   N.2       1 RES1   0.0000
    37 C37      2.6015   0.9247   0.4229   C.2       1 RES1   0.0000
    38 S38      1.5312   2.0552   1.1932   S.3       1 RES1   0.0000
    39 C39      2.7975   3.1965   1.0329   C.2       1 RES1   0.0000
    40 C40      2.7496   4.5343   1.4601   C.2       1 RES1   0.0000
@<TRIPOS>BOND
     1     1     2    1
     2     2     3    1
     3     3     4    1
     4     3     5    1
     5     5     6    1
     6     6     7    1
     7     7     8    1
     8     8     9    1
     9     8    10    1
    10    10    11    1
    11    11    12    1
    12    12    13    2
    13    13    14    1
    14    14    15    2
    15    15    16    1
    16    16    17    2
    17    10    18    1
    18    18    19   am
    19    19    20    2
    20    19    21    1
    21    21    22    1
    22    23    22    1
    23    23    24    1
    24    24    25    1
    25    25    26    1
    26    26    27    2
    27    26    28   am
    28     6    29    1
    29    29    30    2
    30    29    31    2
    31    29    32    1
    32    32    33    2
    33    33    34    1
    34    34    35    2
    35    35    36    1
    36    36    37    2
    37    37    38    1
    38    38    39    1
    39    39    40    2
    40    17    12    1
    41    28    23    1
    42    40    32    1
    43    39    35    1
@<TRIPOS>SUBSTRUCTURE
     1 RES1        1 GROUP             0 ****  ****    0  
@<TRIPOS>MOLECULE
ligand_84
    40    43     1     0     0
SMALL
NO_CHARGES
****
Generated from the CSD

@<TRIPOS>ATOM
     1 C1       1.1948  17.4470   5.8161   C.3       1 RES1   0.0000
     2 C2       1.0479  16.1146   5.0980   C.3       1 RES1   0.0000
     3 C3       0.5897  16.2473   3.6409   C.3       1 RES1   0.0000
     4 C4      -0.7837  16.9172   3.5822   C.3       1 RES1   0.0000
     5 C5       0.6469  14.8626   2.9718   C.3       1 RES1   0.0000
     6 N6       2.0317  14.3410   2.9037   N.3       1 RES1   0.0000
     7 C7       2.0938  12.8826   3.1870   C.3       1 RES1   0.0000
     8 C8       0.7423  12.2497   2.8253   C.3       1 RES1   0.0000
     9 O9       0.4293  12.6008   1.4741   O.3       1 RES1   0.0000
    10 C10      0.7141  10.7287   2.9925   C.3       1 RES1   0.0000
    11 C11      1.6275   9.9700   2.0249   C.3       1 RES1   0.0000
    12 C12      1.7291   8.4985   2.3982   C.2       1 RES1   0.0000
    13 C13      2.7252   8.0798   3.2718   C.2       1 RES1   0.0000
    14 C14      2.8275   6.7359   3.6266   C.2       1 RES1   0.0000
    15 C15      1.9298   5.8070   3.1143   C.2       1 RES1   0.0000
    16 C16      0.9311   6.2244   2.2423   C.2       1 RES1   0.0000
    17 C17      0.8309   7.5687   1.8945   C.2       1 RES1   0.0000
    18 N18     -0.6454  10.2449   2.8142   N.am      1 RES1   0.0000
    19 C19     -1.4292   9.7528   3.7683   C.2       1 RES1   0.0000
    20 O20     -1.1317   9.6291   4.9451   O.2       1 RES1   0.0000
    21 O21     -2.7376   9.2950   3.3348   O.3       1 RES1   0.0000
    22 C22     -3.6381   8.7170   4.2811   C.3       1 RES1   0.0000
    23 C23     -4.8953   8.3517   3.5112   C.3       1 RES1   0.0000
    24 C24     -5.6536   9.6450   3.1582   C.3       1 RES1   0.0000
    25 C25     -6.7362   9.8608   4.2475   C.3       1 RES1   0.0000
    26 C26     -6.8227   8.5524   4.9795   C.2       1 RES1   0.0000
    27 O27     -7.6253   8.2610   5.8352   O.2       1 RES1   0.0000
    28 N28     -5.8709   7.7144   4.4588   N.am      1 RES1   0.0000
    29 S29      2.8450  14.8131   1.5734   S.o2      1 RES1   0.0000
    30 O30      4.2169  14.4585   1.7714   O.2       1 RES1   0.0000
    31 O31      2.6067  16.2324   1.4518   O.2       1 RES1   0.0000
    32 C32      2.2553  14.0820   0.2236   C.2       1 RES1   0.0000
    33 C33      1.2063  14.7059  -0.4550   C.2       1 RES1   0.0000
    34 C34      0.6928  14.1799  -1.6394   C.2       1 RES1   0.0000
    35 C35      1.1967  13.0105  -2.1720   C.2       1 RES1   0.0000
    36 N36      0.8374  12.3400  -3.2917   N.2       1 RES1   0.0000
    37 C37      1.5625  11.2252  -3.4754   C.2       1 RES1   0.0000
    38 S38      2.7675  10.9073  -2.2655   S.3       1 RES1   0.0000
    39 C39      2.2352  12.3498  -1.5122   C.2       1 RES1   0.0000
    40 C40      2.7555  12.8903  -0.3241   C.2       1 RES1   0.0000
@<TRIPOS>BOND
     1     1     2    1
     2     2     3    1
     3     3     4    1
     4     3     5    1
     5     5     6    1
     6     6     7    1
     7     7     8    1
     8     8     9    1
     9     8    10    1
    10    10    11    1
    11    11    12    1
    12    12    13    2
    13    13    14    1
    14    14    15    2
    15    15    16    1
    16    16    17    2
    17    10    18    1
    18    18    19   am
    19    19    20    2
    20    19    21    1
    21    21    22    1
    22    23    22    1
    23    23    24    1
    24    24    25    1
    25    25    26    1
    26    26    27    2
    27    26    28   am
    28     6    29    1
    29    29    30    2
    30    29    31    2
    31    29    32    1
    32    32    33    2
    33    33    34    1
    34    34    35    2
    35    35    36    1
    36    36    37    2
    37    37    38    1
    38    38    39    1
    39    39    40    2
    40    17    12    1
    41    28    23    1
    42    40    32    1
    43    39    35    1
@<TRIPOS>SUBSTRUCTURE
     1 RES1        1 GROUP             0 ****  ****    0  
@<TRIPOS>MOLECULE
ligand_85
    40    43     1     0     0
SMALL
NO_CHARGES
****
Generated from the CSD

@<TRIPOS>ATOM
     1 C1       1.1292  17.4251   5.8263   C.3       1 RES1   0.0000
     2 C2       1.0004  16.0969   5.0971   C.3       1 RES1   0.0000
     3 C3       0.5675  16.2373   3.6330   C.3       1 RES1   0.0000
     4 C4      -0.8073  16.9022   3.5543   C.3       1 RES1   0.0000
     5 C5       0.6421  14.8573   2.9560   C.3       1 RES1   0.0000
     6 N6       2.0300  14.3419   2.9085   N.3       1 RES1   0.0000
     7 C7       2.0938  12.8826   3.1870   C.3       1 RES1   0.0000
     8 C8       0.7423  12.2497   2.8253   C.3       1 RES1   0.0000
     9 O9       0.4293  12.6008   1.4741   O.3       1 RES1   0.0000
    10 C10      0.7141  10.7287   2.9925   C.3       1 RES1   0.0000
    11 C11      1.6158   9.9691   2.0147   C.3       1 RES1   0.0000
    12 C12      1.7153   8.4963   2.3833   C.2       1 RES1   0.0000
    13 C13      2.7177   8.0716   3.2467   C.2       1 RES1   0.0000
    14 C14      2.8183   6.7265   3.5972   C.2       1 RES1   0.0000
    15 C15      1.9124   5.8022   3.0908   C.2       1 RES1   0.0000
    16 C16      0.9074   6.2256   2.2290   C.2       1 RES1   0.0000
    17 C17      0.8091   7.5711   1.8855   C.2       1 RES1   0.0000
    18 N18     -0.6479  10.2466   2.8292   N.am      1 RES1   0.0000
    19 C19     -1.4217   9.7552   3.7918   C.2       1 RES1   0.0000
    20 O20     -1.1113   9.6309   4.9652   O.2       1 RES1   0.0000
    21 O21     -2.7354   9.2991   3.3727   O.3       1 RES1   0.0000
    22 C22     -3.6260   8.7220   4.3288   C.3       1 RES1   0.0000
    23 C23     -4.8921   8.3584   3.5728   C.3       1 RES1   0.0000
    24 C24     -5.6527   9.6528   3.2284   C.3       1 RES1   0.0000
    25 C25     -6.7229   9.8695   4.3298   C.3       1 RES1   0.0000
    26 C26     -6.8029   8.5611   5.0623   C.2       1 RES1   0.0000
    27 O27     -7.5963   8.2705   5.9268   O.2       1 RES1   0.0000
    28 N28     -5.8579   7.7221   4.5310   N.am      1 RES1   0.0000
    29 S29      2.8628  14.8228   1.5935   S.o2      1 RES1   0.0000
    30 O30      4.2337  14.4780   1.8148   O.2       1 RES1   0.0000
    31 O31      2.6160  16.2404   1.4705   O.2       1 RES1   0.0000
    32 C32      2.3024  14.0900   0.2322   C.2       1 RES1   0.0000
    33 C33      2.8974  12.8885  -0.1582   C.2       1 RES1   0.0000
    34 C34      2.4386  12.1770  -1.2657   C.2       1 RES1   0.0000
    35 C35      1.3872  12.6492  -2.0248   C.2       1 RES1   0.0000
    36 N36      0.8043  12.1204  -3.1263   N.2       1 RES1   0.0000
    37 C37     -0.1961  12.8847  -3.5926   C.2       1 RES1   0.0000
    38 S38     -0.5074  14.3400  -2.6969   S.3       1 RES1   0.0000
    39 C39      0.7778  13.8559  -1.6743   C.2       1 RES1   0.0000
    40 C40      1.2381  14.5635  -0.5509   C.2       1 RES1   0.0000
@<TRIPOS>BOND
     1     1     2    1
     2     2     3    1
     3     3     4    1
     4     3     5    1
     5     5     6    1
     6     6     7    1
     7     7     8    1
     8     8     9    1
     9     8    10    1
    10    10    11    1
    11    11    12    1
    12    12    13    2
    13    13    14    1
    14    14    15    2
    15    15    16    1
    16    16    17    2
    17    10    18    1
    18    18    19   am
    19    19    20    2
    20    19    21    1
    21    21    22    1
    22    23    22    1
    23    23    24    1
    24    24    25    1
    25    25    26    1
    26    26    27    2
    27    26    28   am
    28     6    29    1
    29    29    30    2
    30    29    31    2
    31    29    32    1
    32    32    33    2
    33    33    34    1
    34    34    35    2
    35    35    36    1
    36    36    37    2
    37    37    38    1
    38    38    39    1
    39    39    40    2
    40    17    12    1
    41    28    23    1
    42    40    32    1
    43    39    35    1
@<TRIPOS>SUBSTRUCTURE
     1 RES1        1 GROUP             0 ****  ****    0  
@<TRIPOS>MOLECULE
ligand_86
    40    43     1     0     0
SMALL
NO_CHARGES
****
Generated from the CSD

@<TRIPOS>ATOM
     1 C1       4.5405  11.1032   3.3981   C.3       1 RES1   0.0000
     2 C2       3.8708  10.4475   2.2005   C.3       1 RES1   0.0000
     3 C3       4.8593   9.8478   1.1937   C.3       1 RES1   0.0000
     4 C4       5.7542  10.9468   0.6195   C.3       1 RES1   0.0000
     5 C5       4.0734   9.0546   0.1347   C.3       1 RES1   0.0000
     6 N6       3.3600   7.9004   0.7288   N.3       1 RES1   0.0000
     7 C7       1.9747   7.7699   0.2044   C.3       1 RES1   0.0000
     8 C8       1.0422   8.6564   1.0427   C.3       1 RES1   0.0000
     9 O9       1.3877  10.0239   0.8032   O.3       1 RES1   0.0000
    10 C10     -0.4431   8.4311   0.7503   C.3       1 RES1   0.0000
    11 C11     -0.9029   8.9470  -0.6168   C.3       1 RES1   0.0000
    12 C12     -2.3352   8.5282  -0.9134   C.2       1 RES1   0.0000
    13 C13     -2.5771   7.3254  -1.5655   C.2       1 RES1   0.0000
    14 C14     -3.8839   6.9264  -1.8396   C.2       1 RES1   0.0000
    15 C15     -4.9542   7.7258  -1.4562   C.2       1 RES1   0.0000
    16 C16     -4.7143   8.9282  -0.8015   C.2       1 RES1   0.0000
    17 C17     -3.4070   9.3199  -0.5265   C.2       1 RES1   0.0000
    18 N18     -1.2444   9.0772   1.7772   N.am      1 RES1   0.0000
    19 C19     -1.9607   8.4591   2.7109   C.2       1 RES1   0.0000
    20 O20     -2.0592   7.2514   2.8538   O.2       1 RES1   0.0000
    21 O21     -2.7124   9.3240   3.6033   O.3       1 RES1   0.0000
    22 C22     -3.5407   8.7521   4.6169   C.3       1 RES1   0.0000
    23 C23     -4.8576   8.3990   3.9477   C.3       1 RES1   0.0000
    24 C24     -5.6301   9.6994   3.6568   C.3       1 RES1   0.0000
    25 C25     -6.6218   9.9224   4.8281   C.3       1 RES1   0.0000
    26 C26     -6.6620   8.6135   5.5631   C.2       1 RES1   0.0000
    27 O27     -7.3973   8.3275   6.4790   O.2       1 RES1   0.0000
    28 N28     -5.7613   7.7684   4.9684   N.am      1 RES1   0.0000
    29 S29      4.2256   6.5203   0.7208   S.o2      1 RES1   0.0000
    30 O30      3.5236   5.5789   1.5382   O.2       1 RES1   0.0000
    31 O31      5.5360   6.8771   1.2121   O.2       1 RES1   0.0000
    32 C32      4.3983   5.9339  -0.8058   C.2       1 RES1   0.0000
    33 C33      3.4291   5.0482  -1.2816   C.2       1 RES1   0.0000
    34 C34      3.4730   4.5551  -2.5847   C.2       1 RES1   0.0000
    35 C35      4.4909   4.9156  -3.4444   C.2       1 RES1   0.0000
    36 N36      4.7160   4.5473  -4.7274   N.2       1 RES1   0.0000
    37 C37      5.8267   5.1069  -5.2330   C.2       1 RES1   0.0000
    38 S38      6.6981   6.1511  -4.1526   S.3       1 RES1   0.0000
    39 C39      5.4870   5.7868  -2.9983   C.2       1 RES1   0.0000
    40 C40      5.4318   6.2886  -1.6869   C.2       1 RES1   0.0000
@<TRIPOS>BOND
     1     1     2    1
     2     2     3    1
     3     3     4    1
     4     3     5    1
     5     5     6    1
     6     6     7    1
     7     7     8    1
     8     8     9    1
     9     8    10    1
    10    10    11    1
    11    11    12    1
    12    12    13    2
    13    13    14    1
    14    14    15    2
    15    15    16    1
    16    16    17    2
    17    10    18    1
    18    18    19   am
    19    19    20    2
    20    19    21    1
    21    21    22    1
    22    23    22    1
    23    23    24    1
    24    24    25    1
    25    25    26    1
    26    26    27    2
    27    26    28   am
    28     6    29    1
    29    29    30    2
    30    29    31    2
    31    29    32    1
    32    32    33    2
    33    33    34    1
    34    34    35    2
    35    35    36    1
    36    36    37    2
    37    37    38    1
    38    38    39    1
    39    39    40    2
    40    17    12    1
    41    28    23    1
    42    40    32    1
    43    39    35    1
@<TRIPOS>SUBSTRUCTURE
     1 RES1        1 GROUP             0 ****  ****    0  
@<TRIPOS>MOLECULE
ligand_87
    40    43     1     0     0
SMALL
NO_CHARGES
****
Generated from the CSD

@<TRIPOS>ATOM
     1 C1       4.5405  11.1032   3.3981   C.3       1 RES1   0.0000
     2 C2       3.8708  10.4475   2.2005   C.3       1 RES1   0.0000
     3 C3       4.8593   9.8478   1.1937   C.3       1 RES1   0.0000
     4 C4       5.7542  10.9468   0.6195   C.3       1 RES1   0.0000
     5 C5       4.0734   9.0546   0.1347   C.3       1 RES1   0.0000
     6 N6       3.3600   7.9004   0.7288   N.3       1 RES1   0.0000
     7 C7       1.9747   7.7699   0.2044   C.3       1 RES1   0.0000
     8 C8       1.0422   8.6564   1.0427   C.3       1 RES1   0.0000
     9 O9       1.3877  10.0239   0.8032   O.3       1 RES1   0.0000
    10 C10     -0.4431   8.4311   0.7503   C.3       1 RES1   0.0000
    11 C11     -0.9029   8.9469  -0.6168   C.3       1 RES1   0.0000
    12 C12     -2.3352   8.5282  -0.9134   C.2       1 RES1   0.0000
    13 C13     -2.5771   7.3254  -1.5655   C.2       1 RES1   0.0000
    14 C14     -3.8839   6.9264  -1.8396   C.2       1 RES1   0.0000
    15 C15     -4.9542   7.7258  -1.4562   C.2       1 RES1   0.0000
    16 C16     -4.7143   8.9282  -0.8015   C.2       1 RES1   0.0000
    17 C17     -3.4070   9.3199  -0.5265   C.2       1 RES1   0.0000
    18 N18     -1.2444   9.0772   1.7772   N.am      1 RES1   0.0000
    19 C19     -1.9607   8.4591   2.7109   C.2       1 RES1   0.0000
    20 O20     -2.0592   7.2515   2.8538   O.2       1 RES1   0.0000
    21 O21     -2.7124   9.3240   3.6033   O.3       1 RES1   0.0000
    22 C22     -3.5407   8.7521   4.6169   C.3       1 RES1   0.0000
    23 C23     -4.8576   8.3990   3.9477   C.3       1 RES1   0.0000
    24 C24     -5.6301   9.6994   3.6568   C.3       1 RES1   0.0000
    25 C25     -6.6218   9.9224   4.8281   C.3       1 RES1   0.0000
    26 C26     -6.6620   8.6135   5.5631   C.2       1 RES1   0.0000
    27 O27     -7.3973   8.3275   6.4790   O.2       1 RES1   0.0000
    28 N28     -5.7613   7.7684   4.9684   N.am      1 RES1   0.0000
    29 S29      4.2256   6.5203   0.7208   S.o2      1 RES1   0.0000
    30 O30      3.5236   5.5789   1.5382   O.2       1 RES1   0.0000
    31 O31      5.5360   6.8771   1.2121   O.2       1 RES1   0.0000
    32 C32      4.3983   5.9339  -0.8058   C.2       1 RES1   0.0000
    33 C33      5.5051   6.3519  -1.5476   C.2       1 RES1   0.0000
    34 C34      5.7531   5.8536  -2.8257   C.2       1 RES1   0.0000
    35 C35      4.8983   4.9394  -3.4074   C.2       1 RES1   0.0000
    36 N36      4.9559   4.3477  -4.6236   N.2       1 RES1   0.0000
    37 C37      3.9263   3.5126  -4.8355   C.2       1 RES1   0.0000
    38 S38      2.7853   3.3839  -3.5322   S.3       1 RES1   0.0000
    39 C39      3.7720   4.5106  -2.7020   C.2       1 RES1   0.0000
    40 C40      3.5328   5.0087  -1.4101   C.2       1 RES1   0.0000
@<TRIPOS>BOND
     1     1     2    1
     2     2     3    1
     3     3     4    1
     4     3     5    1
     5     5     6    1
     6     6     7    1
     7     7     8    1
     8     8     9    1
     9     8    10    1
    10    10    11    1
    11    11    12    1
    12    12    13    2
    13    13    14    1
    14    14    15    2
    15    15    16    1
    16    16    17    2
    17    10    18    1
    18    18    19   am
    19    19    20    2
    20    19    21    1
    21    21    22    1
    22    23    22    1
    23    23    24    1
    24    24    25    1
    25    25    26    1
    26    26    27    2
    27    26    28   am
    28     6    29    1
    29    29    30    2
    30    29    31    2
    31    29    32    1
    32    32    33    2
    33    33    34    1
    34    34    35    2
    35    35    36    1
    36    36    37    2
    37    37    38    1
    38    38    39    1
    39    39    40    2
    40    17    12    1
    41    28    23    1
    42    40    32    1
    43    39    35    1
@<TRIPOS>SUBSTRUCTURE
     1 RES1        1 GROUP             0 ****  ****    0  
@<TRIPOS>MOLECULE
ligand_88
    40    43     1     0     0
SMALL
NO_CHARGES
****
Generated from the CSD

@<TRIPOS>ATOM
     1 C1       6.5704  11.5091   0.5277   C.3       1 RES1   0.0000
     2 C2       5.5251  11.0655   1.5392   C.3       1 RES1   0.0000
     3 C3       5.3654  12.0274   2.7224   C.3       1 RES1   0.0000
     4 C4       6.6852  12.1428   3.4860   C.3       1 RES1   0.0000
     5 C5       4.1753  11.5670   3.5827   C.3       1 RES1   0.0000
     6 N6       2.8963  11.6449   2.8396   N.3       1 RES1   0.0000
     7 C7       2.0650  10.4267   3.0292   C.3       1 RES1   0.0000
     8 C8       1.4888  10.0039   1.6700   C.3       1 RES1   0.0000
     9 O9       2.5785   9.6788   0.8018   O.3       1 RES1   0.0000
    10 C10      0.5170   8.8248   1.7570   C.3       1 RES1   0.0000
    11 C11      0.2549   8.1225   0.4212   C.3       1 RES1   0.0000
    12 C12     -0.5686   6.8576   0.6129   C.2       1 RES1   0.0000
    13 C13      0.0757   5.6471   0.8367   C.2       1 RES1   0.0000
    14 C14     -0.6656   4.4811   1.0188   C.2       1 RES1   0.0000
    15 C15     -2.0543   4.5227   0.9846   C.2       1 RES1   0.0000
    16 C16     -2.7007   5.7332   0.7635   C.2       1 RES1   0.0000
    17 C17     -1.9554   6.8956   0.5863   C.2       1 RES1   0.0000
    18 N18     -0.7554   9.2816   2.2922   N.am      1 RES1   0.0000
    19 C19     -1.4433   8.7011   3.2703   C.2       1 RES1   0.0000
    20 O20     -1.1157   7.6927   3.8739   O.2       1 RES1   0.0000
    21 O21     -2.7124   9.3240   3.6033   O.3       1 RES1   0.0000
    22 C22     -3.5409   8.7519   4.6166   C.3       1 RES1   0.0000
    23 C23     -4.8580   8.3997   3.9474   C.3       1 RES1   0.0000
    24 C24     -5.6299   9.7006   3.6573   C.3       1 RES1   0.0000
    25 C25     -6.6215   9.9235   4.8288   C.3       1 RES1   0.0000
    26 C26     -6.6621   8.6142   5.5632   C.2       1 RES1   0.0000
    27 O27     -7.3975   8.3280   6.4789   O.2       1 RES1   0.0000
    28 N28     -5.7618   7.7690   4.9679   N.am      1 RES1   0.0000
    29 S29      2.1023  13.0522   3.0478   S.o2      1 RES1   0.0000
    30 O30      1.0353  13.0779   2.0949   O.2       1 RES1   0.0000
    31 O31      3.0902  14.0898   2.8660   O.2       1 RES1   0.0000
    32 C32      1.5069  13.1802   4.5754   C.2       1 RES1   0.0000
    33 C33      0.2154  12.7075   4.8176   C.2       1 RES1   0.0000
    34 C34     -0.3366  12.7258   6.0975   C.2       1 RES1   0.0000
    35 C35      0.3738  13.2304   7.1678   C.2       1 RES1   0.0000
    36 N36      0.0202  13.3434   8.4697   N.2       1 RES1   0.0000
    37 C37      0.9878  13.8990   9.2163   C.2       1 RES1   0.0000
    38 S38      2.4370  14.3329   8.3626   S.3       1 RES1   0.0000
    39 C39      1.6624  13.7270   6.9608   C.2       1 RES1   0.0000
    40 C40      2.2174  13.6965   5.6703   C.2       1 RES1   0.0000
@<TRIPOS>BOND
     1     1     2    1
     2     2     3    1
     3     3     4    1
     4     3     5    1
     5     5     6    1
     6     6     7    1
     7     7     8    1
     8     8     9    1
     9     8    10    1
    10    10    11    1
    11    11    12    1
    12    12    13    2
    13    13    14    1
    14    14    15    2
    15    15    16    1
    16    16    17    2
    17    10    18    1
    18    18    19   am
    19    19    20    2
    20    19    21    1
    21    21    22    1
    22    23    22    1
    23    23    24    1
    24    24    25    1
    25    25    26    1
    26    26    27    2
    27    26    28   am
    28     6    29    1
    29    29    30    2
    30    29    31    2
    31    29    32    1
    32    32    33    2
    33    33    34    1
    34    34    35    2
    35    35    36    1
    36    36    37    2
    37    37    38    1
    38    38    39    1
    39    39    40    2
    40    17    12    1
    41    28    23    1
    42    40    32    1
    43    39    35    1
@<TRIPOS>SUBSTRUCTURE
     1 RES1        1 GROUP             0 ****  ****    0  
@<TRIPOS>MOLECULE
ligand_89
    40    43     1     0     0
SMALL
NO_CHARGES
****
Generated from the CSD

@<TRIPOS>ATOM
     1 C1       3.9616  13.2250  -1.0289   C.3       1 RES1   0.0000
     2 C2       3.7667  12.2015   0.0788   C.3       1 RES1   0.0000
     3 C3       4.6207  12.4704   1.3234   C.3       1 RES1   0.0000
     4 C4       6.1056  12.4147   0.9623   C.3       1 RES1   0.0000
     5 C5       4.2034  11.4923   2.4358   C.3       1 RES1   0.0000
     6 N6       2.8008  11.7078   2.8606   N.3       1 RES1   0.0000
     7 C7       2.0650  10.4267   3.0292   C.3       1 RES1   0.0000
     8 C8       1.4888  10.0039   1.6700   C.3       1 RES1   0.0000
     9 O9       2.5785   9.6788   0.8018   O.3       1 RES1   0.0000
    10 C10      0.5170   8.8248   1.7570   C.3       1 RES1   0.0000
    11 C11      0.2549   8.1225   0.4212   C.3       1 RES1   0.0000
    12 C12     -0.5686   6.8576   0.6129   C.2       1 RES1   0.0000
    13 C13      0.0757   5.6471   0.8367   C.2       1 RES1   0.0000
    14 C14     -0.6656   4.4811   1.0188   C.2       1 RES1   0.0000
    15 C15     -2.0543   4.5227   0.9846   C.2       1 RES1   0.0000
    16 C16     -2.7007   5.7332   0.7635   C.2       1 RES1   0.0000
    17 C17     -1.9554   6.8956   0.5863   C.2       1 RES1   0.0000
    18 N18     -0.7554   9.2816   2.2922   N.am      1 RES1   0.0000
    19 C19     -1.4433   8.7011   3.2703   C.2       1 RES1   0.0000
    20 O20     -1.1157   7.6927   3.8739   O.2       1 RES1   0.0000
    21 O21     -2.7124   9.3240   3.6033   O.3       1 RES1   0.0000
    22 C22     -3.5409   8.7519   4.6166   C.3       1 RES1   0.0000
    23 C23     -4.8580   8.3998   3.9474   C.3       1 RES1   0.0000
    24 C24     -5.6299   9.7006   3.6573   C.3       1 RES1   0.0000
    25 C25     -6.6214   9.9235   4.8288   C.3       1 RES1   0.0000
    26 C26     -6.6621   8.6142   5.5631   C.2       1 RES1   0.0000
    27 O27     -7.3975   8.3280   6.4789   O.2       1 RES1   0.0000
    28 N28     -5.7618   7.7690   4.9679   N.am      1 RES1   0.0000
    29 S29      2.6449  12.7527   4.1007   S.o2      1 RES1   0.0000
    30 O30      1.2510  13.0495   4.2278   O.2       1 RES1   0.0000
    31 O31      3.4688  13.8892   3.7611   O.2       1 RES1   0.0000
    32 C32      3.2212  12.1078   5.4994   C.2       1 RES1   0.0000
    33 C33      4.5676  12.3112   5.8094   C.2       1 RES1   0.0000
    34 C34      5.1157  11.8480   7.0045   C.2       1 RES1   0.0000
    35 C35      4.3445  11.1552   7.9157   C.2       1 RES1   0.0000
    36 N36      4.6828  10.6227   9.1133   N.2       1 RES1   0.0000
    37 C37      3.6486  10.0102   9.7114   C.2       1 RES1   0.0000
    38 S38      2.1497  10.0423   8.8344   S.3       1 RES1   0.0000
    39 C39      2.9977  10.9185   7.6323   C.2       1 RES1   0.0000
    40 C40      2.4483  11.3968   6.4307   C.2       1 RES1   0.0000
@<TRIPOS>BOND
     1     1     2    1
     2     2     3    1
     3     3     4    1
     4     3     5    1
     5     5     6    1
     6     6     7    1
     7     7     8    1
     8     8     9    1
     9     8    10    1
    10    10    11    1
    11    11    12    1
    12    12    13    2
    13    13    14    1
    14    14    15    2
    15    15    16    1
    16    16    17    2
    17    10    18    1
    18    18    19   am
    19    19    20    2
    20    19    21    1
    21    21    22    1
    22    23    22    1
    23    23    24    1
    24    24    25    1
    25    25    26    1
    26    26    27    2
    27    26    28   am
    28     6    29    1
    29    29    30    2
    30    29    31    2
    31    29    32    1
    32    32    33    2
    33    33    34    1
    34    34    35    2
    35    35    36    1
    36    36    37    2
    37    37    38    1
    38    38    39    1
    39    39    40    2
    40    17    12    1
    41    28    23    1
    42    40    32    1
    43    39    35    1
@<TRIPOS>SUBSTRUCTURE
     1 RES1        1 GROUP             0 ****  ****    0  
@<TRIPOS>MOLECULE
ligand_90
    40    43     1     0     0
SMALL
NO_CHARGES
****
Generated from the CSD

@<TRIPOS>ATOM
     1 C1      -3.2401  11.5353  -0.4417   C.3       1 RES1   0.0000
     2 C2      -2.2412  12.3998   0.3118   C.3       1 RES1   0.0000
     3 C3      -2.8951  13.4393   1.2297   C.3       1 RES1   0.0000
     4 C4      -3.7354  14.4136   0.4032   C.3       1 RES1   0.0000
     5 C5      -1.8029  14.1108   2.0808   C.3       1 RES1   0.0000
     6 N6      -1.2374  13.1799   3.0847   N.3       1 RES1   0.0000
     7 C7       0.2472  13.2471   3.1351   C.3       1 RES1   0.0000
     8 C8       0.8238  12.0914   2.3046   C.3       1 RES1   0.0000
     9 O9       2.1935  12.3862   2.0151   O.3       1 RES1   0.0000
    10 C10      0.7141  10.7287   2.9925   C.3       1 RES1   0.0000
    11 C11      1.6973   9.6766   2.4703   C.3       1 RES1   0.0000
    12 C12      1.6563   8.4125   3.3159   C.2       1 RES1   0.0000
    13 C13      2.5006   8.2935   4.4130   C.2       1 RES1   0.0000
    14 C14      2.4708   7.1435   5.1996   C.2       1 RES1   0.0000
    15 C15      1.5915   6.1110   4.8959   C.2       1 RES1   0.0000
    16 C16      0.7443   6.2293   3.8004   C.2       1 RES1   0.0000
    17 C17      0.7754   7.3820   3.0204   C.2       1 RES1   0.0000
    18 N18     -0.6360  10.2122   2.8361   N.am      1 RES1   0.0000
    19 C19     -1.3784   9.6679   3.7949   C.2       1 RES1   0.0000
    20 O20     -1.0342   9.4901   4.9519   O.2       1 RES1   0.0000
    21 O21     -2.6998   9.2203   3.3909   O.3       1 RES1   0.0000
    22 C22     -3.5585   8.5896   4.3423   C.3       1 RES1   0.0000
    23 C23     -4.8425   8.2512   3.6051   C.3       1 RES1   0.0000
    24 C24     -5.6228   9.5535   3.3450   C.3       1 RES1   0.0000
    25 C25     -6.6631   9.7071   4.4848   C.3       1 RES1   0.0000
    26 C26     -6.7122   8.3643   5.1552   C.2       1 RES1   0.0000
    27 O27     -7.4786   8.0250   6.0263   O.2       1 RES1   0.0000
    28 N28     -5.7759   7.5606   4.5579   N.am      1 RES1   0.0000
    29 S29     -1.9737  13.2553   4.5360   S.o2      1 RES1   0.0000
    30 O30     -1.4582  12.1790   5.3254   O.2       1 RES1   0.0000
    31 O31     -3.3891  13.1700   4.2620   O.2       1 RES1   0.0000
    32 C32     -1.6859  14.6952   5.2763   C.2       1 RES1   0.0000
    33 C33     -0.5667  14.7940   6.1057   C.2       1 RES1   0.0000
    34 C34     -0.2222  15.9968   6.7203   C.2       1 RES1   0.0000
    35 C35     -0.9904  17.1293   6.5408   C.2       1 RES1   0.0000
    36 N36     -0.8337  18.3749   7.0471   N.2       1 RES1   0.0000
    37 C37     -1.8006  19.2157   6.6462   C.2       1 RES1   0.0000
    38 S38     -3.0005  18.5303   5.5938   S.3       1 RES1   0.0000
    39 C39     -2.1264  17.0643   5.7311   C.2       1 RES1   0.0000
    40 C40     -2.4629  15.8517   5.1061   C.2       1 RES1   0.0000
@<TRIPOS>BOND
     1     1     2    1
     2     2     3    1
     3     3     4    1
     4     3     5    1
     5     5     6    1
     6     6     7    1
     7     7     8    1
     8     8     9    1
     9     8    10    1
    10    10    11    1
    11    11    12    1
    12    12    13    2
    13    13    14    1
    14    14    15    2
    15    15    16    1
    16    16    17    2
    17    10    18    1
    18    18    19   am
    19    19    20    2
    20    19    21    1
    21    21    22    1
    22    23    22    1
    23    23    24    1
    24    24    25    1
    25    25    26    1
    26    26    27    2
    27    26    28   am
    28     6    29    1
    29    29    30    2
    30    29    31    2
    31    29    32    1
    32    32    33    2
    33    33    34    1
    34    34    35    2
    35    35    36    1
    36    36    37    2
    37    37    38    1
    38    38    39    1
    39    39    40    2
    40    17    12    1
    41    28    23    1
    42    40    32    1
    43    39    35    1
@<TRIPOS>SUBSTRUCTURE
     1 RES1        1 GROUP             0 ****  ****    0  
@<TRIPOS>MOLECULE
ligand_91
    40    43     1     0     0
SMALL
NO_CHARGES
****
Generated from the CSD

@<TRIPOS>ATOM
     1 C1      -3.2399  11.5350  -0.4418   C.3       1 RES1   0.0000
     2 C2      -2.2410  12.3995   0.3116   C.3       1 RES1   0.0000
     3 C3      -2.8948  13.4392   1.2292   C.3       1 RES1   0.0000
     4 C4      -3.7349  14.4135   0.4025   C.3       1 RES1   0.0000
     5 C5      -1.8026  14.1108   2.0803   C.3       1 RES1   0.0000
     6 N6      -1.2374  13.1800   3.0845   N.3       1 RES1   0.0000
     7 C7       0.2472  13.2471   3.1351   C.3       1 RES1   0.0000
     8 C8       0.8238  12.0914   2.3046   C.3       1 RES1   0.0000
     9 O9       2.1935  12.3862   2.0151   O.3       1 RES1   0.0000
    10 C10      0.7141  10.7287   2.9925   C.3       1 RES1   0.0000
    11 C11      1.6975   9.6767   2.4706   C.3       1 RES1   0.0000
    12 C12      1.6564   8.4125   3.3161   C.2       1 RES1   0.0000
    13 C13      2.5004   8.2937   4.4135   C.2       1 RES1   0.0000
    14 C14      2.4705   7.1436   5.2001   C.2       1 RES1   0.0000
    15 C15      1.5915   6.1111   4.8961   C.2       1 RES1   0.0000
    16 C16      0.7446   6.2293   3.8003   C.2       1 RES1   0.0000
    17 C17      0.7757   7.3820   3.0204   C.2       1 RES1   0.0000
    18 N18     -0.6359  10.2120   2.8358   N.am      1 RES1   0.0000
    19 C19     -1.3785   9.6676   3.7944   C.2       1 RES1   0.0000
    20 O20     -1.0345   9.4899   4.9515   O.2       1 RES1   0.0000
    21 O21     -2.6997   9.2198   3.3900   O.3       1 RES1   0.0000
    22 C22     -3.5586   8.5891   4.3413   C.3       1 RES1   0.0000
    23 C23     -4.8423   8.2505   3.6037   C.3       1 RES1   0.0000
    24 C24     -5.6227   9.5527   3.3435   C.3       1 RES1   0.0000
    25 C25     -6.6634   9.7061   4.4830   C.3       1 RES1   0.0000
    26 C26     -6.7124   8.3633   5.1534   C.2       1 RES1   0.0000
    27 O27     -7.4789   8.0239   6.0243   O.2       1 RES1   0.0000
    28 N28     -5.7759   7.5597   4.5563   N.am      1 RES1   0.0000
    29 S29     -1.9739  13.2558   4.5357   S.o2      1 RES1   0.0000
    30 O30     -1.4600  12.1785   5.3248   O.2       1 RES1   0.0000
    31 O31     -3.3894  13.1725   4.2614   O.2       1 RES1   0.0000
    32 C32     -1.6843  14.6950   5.2767   C.2       1 RES1   0.0000
    33 C33     -2.5733  15.7454   5.0393   C.2       1 RES1   0.0000
    34 C34     -2.4297  16.9767   5.6770   C.2       1 RES1   0.0000
    35 C35     -1.3886  17.2024   6.5545   C.2       1 RES1   0.0000
    36 N36     -1.0725  18.3134   7.2604   N.2       1 RES1   0.0000
    37 C37      0.0303  18.1482   8.0080   C.2       1 RES1   0.0000
    38 S38      0.7796  16.5847   7.9026   S.3       1 RES1   0.0000
    39 C39     -0.4701  16.1805   6.8041   C.2       1 RES1   0.0000
    40 C40     -0.6260  14.9382   6.1662   C.2       1 RES1   0.0000
@<TRIPOS>BOND
     1     1     2    1
     2     2     3    1
     3     3     4    1
     4     3     5    1
     5     5     6    1
     6     6     7    1
     7     7     8    1
     8     8     9    1
     9     8    10    1
    10    10    11    1
    11    11    12    1
    12    12    13    2
    13    13    14    1
    14    14    15    2
    15    15    16    1
    16    16    17    2
    17    10    18    1
    18    18    19   am
    19    19    20    2
    20    19    21    1
    21    21    22    1
    22    23    22    1
    23    23    24    1
    24    24    25    1
    25    25    26    1
    26    26    27    2
    27    26    28   am
    28     6    29    1
    29    29    30    2
    30    29    31    2
    31    29    32    1
    32    32    33    2
    33    33    34    1
    34    34    35    2
    35    35    36    1
    36    36    37    2
    37    37    38    1
    38    38    39    1
    39    39    40    2
    40    17    12    1
    41    28    23    1
    42    40    32    1
    43    39    35    1
@<TRIPOS>SUBSTRUCTURE
     1 RES1        1 GROUP             0 ****  ****    0  
@<TRIPOS>MOLECULE
ligand_92
    40    43     1     0     0
SMALL
NO_CHARGES
****
Generated from the CSD

@<TRIPOS>ATOM
     1 C1       5.9384   5.5562   1.1376   C.3       1 RES1   0.0000
     2 C2       4.6644   6.0268   1.8217   C.3       1 RES1   0.0000
     3 C3       4.9146   6.8944   3.0607   C.3       1 RES1   0.0000
     4 C4       5.6929   6.0987   4.1093   C.3       1 RES1   0.0000
     5 C5       3.5697   7.4517   3.5597   C.3       1 RES1   0.0000
     6 N6       2.9473   8.3580   2.5671   N.3       1 RES1   0.0000
     7 C7       1.4961   8.0841   2.3934   C.3       1 RES1   0.0000
     8 C8       1.0422   8.6564   1.0427   C.3       1 RES1   0.0000
     9 O9       1.8403   8.0645   0.0132   O.3       1 RES1   0.0000
    10 C10     -0.4431   8.4311   0.7503   C.3       1 RES1   0.0000
    11 C11     -0.9029   8.9469  -0.6168   C.3       1 RES1   0.0000
    12 C12     -2.3352   8.5282  -0.9134   C.2       1 RES1   0.0000
    13 C13     -2.5771   7.3253  -1.5655   C.2       1 RES1   0.0000
    14 C14     -3.8839   6.9264  -1.8396   C.2       1 RES1   0.0000
    15 C15     -4.9542   7.7258  -1.4562   C.2       1 RES1   0.0000
    16 C16     -4.7143   8.9282  -0.8015   C.2       1 RES1   0.0000
    17 C17     -3.4070   9.3199  -0.5265   C.2       1 RES1   0.0000
    18 N18     -1.2444   9.0772   1.7772   N.am      1 RES1   0.0000
    19 C19     -1.9607   8.4591   2.7109   C.2       1 RES1   0.0000
    20 O20     -2.0592   7.2515   2.8538   O.2       1 RES1   0.0000
    21 O21     -2.7124   9.3240   3.6033   O.3       1 RES1   0.0000
    22 C22     -3.5407   8.7521   4.6169   C.3       1 RES1   0.0000
    23 C23     -4.8576   8.3990   3.9477   C.3       1 RES1   0.0000
    24 C24     -5.6301   9.6994   3.6568   C.3       1 RES1   0.0000
    25 C25     -6.6218   9.9225   4.8281   C.3       1 RES1   0.0000
    26 C26     -6.6620   8.6136   5.5631   C.2       1 RES1   0.0000
    27 O27     -7.3973   8.3275   6.4790   O.2       1 RES1   0.0000
    28 N28     -5.7613   7.7684   4.9684   N.am      1 RES1   0.0000
    29 S29      3.3241   9.9277   2.7862   S.o2      1 RES1   0.0000
    30 O30      3.0544  10.6010   1.5529   O.2       1 RES1   0.0000
    31 O31      4.7121   9.9453   3.1849   O.2       1 RES1   0.0000
    32 C32      2.4379  10.5890   4.0034   C.2       1 RES1   0.0000
    33 C33      1.2126  11.1752   3.6789   C.2       1 RES1   0.0000
    34 C34      0.3770  11.7029   4.6619   C.2       1 RES1   0.0000
    35 C35      0.7445  11.6777   5.9920   C.2       1 RES1   0.0000
    36 N36      0.0888  12.1372   7.0836   N.2       1 RES1   0.0000
    37 C37      0.7791  11.9363   8.2174   C.2       1 RES1   0.0000
    38 S38      2.3167  11.1504   8.0292   S.3       1 RES1   0.0000
    39 C39      1.9703  11.1142   6.3527   C.2       1 RES1   0.0000
    40 C40      2.8038  10.5746   5.3585   C.2       1 RES1   0.0000
@<TRIPOS>BOND
     1     1     2    1
     2     2     3    1
     3     3     4    1
     4     3     5    1
     5     5     6    1
     6     6     7    1
     7     7     8    1
     8     8     9    1
     9     8    10    1
    10    10    11    1
    11    11    12    1
    12    12    13    2
    13    13    14    1
    14    14    15    2
    15    15    16    1
    16    16    17    2
    17    10    18    1
    18    18    19   am
    19    19    20    2
    20    19    21    1
    21    21    22    1
    22    23    22    1
    23    23    24    1
    24    24    25    1
    25    25    26    1
    26    26    27    2
    27    26    28   am
    28     6    29    1
    29    29    30    2
    30    29    31    2
    31    29    32    1
    32    32    33    2
    33    33    34    1
    34    34    35    2
    35    35    36    1
    36    36    37    2
    37    37    38    1
    38    38    39    1
    39    39    40    2
    40    17    12    1
    41    28    23    1
    42    40    32    1
    43    39    35    1
@<TRIPOS>SUBSTRUCTURE
     1 RES1        1 GROUP             0 ****  ****    0  
@<TRIPOS>MOLECULE
ligand_93
    40    43     1     0     0
SMALL
NO_CHARGES
****
Generated from the CSD

@<TRIPOS>ATOM
     1 C1       5.9384   5.5561   1.1377   C.3       1 RES1   0.0000
     2 C2       4.6643   6.0267   1.8217   C.3       1 RES1   0.0000
     3 C3       4.9146   6.8943   3.0607   C.3       1 RES1   0.0000
     4 C4       5.6928   6.0986   4.1094   C.3       1 RES1   0.0000
     5 C5       3.5697   7.4516   3.5597   C.3       1 RES1   0.0000
     6 N6       2.9473   8.3580   2.5670   N.3       1 RES1   0.0000
     7 C7       1.4961   8.0841   2.3934   C.3       1 RES1   0.0000
     8 C8       1.0422   8.6564   1.0427   C.3       1 RES1   0.0000
     9 O9       1.8403   8.0645   0.0132   O.3       1 RES1   0.0000
    10 C10     -0.4431   8.4311   0.7503   C.3       1 RES1   0.0000
    11 C11     -0.9029   8.9469  -0.6168   C.3       1 RES1   0.0000
    12 C12     -2.3352   8.5282  -0.9134   C.2       1 RES1   0.0000
    13 C13     -2.5771   7.3253  -1.5655   C.2       1 RES1   0.0000
    14 C14     -3.8839   6.9264  -1.8396   C.2       1 RES1   0.0000
    15 C15     -4.9542   7.7258  -1.4562   C.2       1 RES1   0.0000
    16 C16     -4.7143   8.9282  -0.8015   C.2       1 RES1   0.0000
    17 C17     -3.4070   9.3199  -0.5265   C.2       1 RES1   0.0000
    18 N18     -1.2444   9.0772   1.7772   N.am      1 RES1   0.0000
    19 C19     -1.9607   8.4591   2.7109   C.2       1 RES1   0.0000
    20 O20     -2.0592   7.2515   2.8538   O.2       1 RES1   0.0000
    21 O21     -2.7124   9.3240   3.6033   O.3       1 RES1   0.0000
    22 C22     -3.5407   8.7521   4.6169   C.3       1 RES1   0.0000
    23 C23     -4.8576   8.3990   3.9477   C.3       1 RES1   0.0000
    24 C24     -5.6301   9.6994   3.6568   C.3       1 RES1   0.0000
    25 C25     -6.6218   9.9225   4.8281   C.3       1 RES1   0.0000
    26 C26     -6.6620   8.6136   5.5631   C.2       1 RES1   0.0000
    27 O27     -7.3973   8.3275   6.4790   O.2       1 RES1   0.0000
    28 N28     -5.7613   7.7684   4.9684   N.am      1 RES1   0.0000
    29 S29      3.3241   9.9277   2.7862   S.o2      1 RES1   0.0000
    30 O30      3.0545  10.6009   1.5528   O.2       1 RES1   0.0000
    31 O31      4.7121   9.9452   3.1849   O.2       1 RES1   0.0000
    32 C32      2.4380  10.5891   4.0033   C.2       1 RES1   0.0000
    33 C33      2.9565  10.5304   5.2987   C.2       1 RES1   0.0000
    34 C34      2.2939  11.1209   6.3736   C.2       1 RES1   0.0000
    35 C35      1.0896  11.7705   6.1927   C.2       1 RES1   0.0000
    36 N36      0.2946  12.3938   7.0939   N.2       1 RES1   0.0000
    37 C37     -0.8122  12.9055   6.5321   C.2       1 RES1   0.0000
    38 S38     -0.9660  12.6587   4.8197   S.3       1 RES1   0.0000
    39 C39      0.5323  11.8352   4.9139   C.2       1 RES1   0.0000
    40 C40      1.2099  11.2470   3.8326   C.2       1 RES1   0.0000
@<TRIPOS>BOND
     1     1     2    1
     2     2     3    1
     3     3     4    1
     4     3     5    1
     5     5     6    1
     6     6     7    1
     7     7     8    1
     8     8     9    1
     9     8    10    1
    10    10    11    1
    11    11    12    1
    12    12    13    2
    13    13    14    1
    14    14    15    2
    15    15    16    1
    16    16    17    2
    17    10    18    1
    18    18    19   am
    19    19    20    2
    20    19    21    1
    21    21    22    1
    22    23    22    1
    23    23    24    1
    24    24    25    1
    25    25    26    1
    26    26    27    2
    27    26    28   am
    28     6    29    1
    29    29    30    2
    30    29    31    2
    31    29    32    1
    32    32    33    2
    33    33    34    1
    34    34    35    2
    35    35    36    1
    36    36    37    2
    37    37    38    1
    38    38    39    1
    39    39    40    2
    40    17    12    1
    41    28    23    1
    42    40    32    1
    43    39    35    1
@<TRIPOS>SUBSTRUCTURE
     1 RES1        1 GROUP             0 ****  ****    0  
@<TRIPOS>MOLECULE
ligand_94
    40    43     1     0     0
SMALL
NO_CHARGES
****
Generated from the CSD

@<TRIPOS>ATOM
     1 C1      -1.9912  14.2911  13.3217   C.3       1 RES1   0.0000
     2 C2      -1.9305  14.7898  11.8863   C.3       1 RES1   0.0000
     3 C3      -0.6310  15.5282  11.5450   C.3       1 RES1   0.0000
     4 C4      -0.4778  16.7600  12.4381   C.3       1 RES1   0.0000
     5 C5      -0.6123  15.8343  10.0369   C.3       1 RES1   0.0000
     6 N6      -0.5840  14.5962   9.2243   N.3       1 RES1   0.0000
     7 C7      -1.5411  14.6520   8.0877   C.3       1 RES1   0.0000
     8 C8      -2.2818  13.3098   7.9975   C.3       1 RES1   0.0000
     9 O9      -3.0238  13.1244   9.2066   O.3       1 RES1   0.0000
    10 C10     -3.2138  13.2049   6.7882   C.3       1 RES1   0.0000
    11 C11     -4.4656  14.0832   6.8774   C.3       1 RES1   0.0000
    12 C12     -5.2467  14.0682   5.5719   C.2       1 RES1   0.0000
    13 C13     -4.9346  14.9847   4.5753   C.2       1 RES1   0.0000
    14 C14     -5.6383  14.9798   3.3724   C.2       1 RES1   0.0000
    15 C15     -6.6522  14.0536   3.1591   C.2       1 RES1   0.0000
    16 C16     -6.9641  13.1343   4.1538   C.2       1 RES1   0.0000
    17 C17     -6.2552  13.1410   5.3520   C.2       1 RES1   0.0000
    18 N18     -3.6343  11.8236   6.6166   N.am      1 RES1   0.0000
    19 C19     -3.2507  11.0075   5.6400   C.2       1 RES1   0.0000
    20 O20     -2.5100  11.2979   4.7150   O.2       1 RES1   0.0000
    21 O21     -3.8089   9.6673   5.6835   O.3       1 RES1   0.0000
    22 C22     -3.4669   8.7215   4.6691   C.3       1 RES1   0.0000
    23 C23     -4.7721   8.2969   4.0191   C.3       1 RES1   0.0000
    24 C24     -5.6108   9.5546   3.7235   C.3       1 RES1   0.0000
    25 C25     -6.5992   9.7417   4.9038   C.3       1 RES1   0.0000
    26 C26     -6.5668   8.4407   5.6530   C.2       1 RES1   0.0000
    27 O27     -7.2771   8.1292   6.5803   O.2       1 RES1   0.0000
    28 N28     -5.6323   7.6342   5.0568   N.am      1 RES1   0.0000
    29 S29      0.9185  14.1068   8.8279   S.o2      1 RES1   0.0000
    30 O30      0.7998  12.7948   8.2696   O.2       1 RES1   0.0000
    31 O31      1.6856  14.1684  10.0500   O.2       1 RES1   0.0000
    32 C32      1.6112  15.1290   7.7418   C.2       1 RES1   0.0000
    33 C33      1.4374  14.8579   6.3830   C.2       1 RES1   0.0000
    34 C34      1.9424  15.7099   5.4020   C.2       1 RES1   0.0000
    35 C35      2.6483  16.8452   5.7452   C.2       1 RES1   0.0000
    36 N36      3.2194  17.7851   4.9559   N.2       1 RES1   0.0000
    37 C37      3.8322  18.7458   5.6658   C.2       1 RES1   0.0000
    38 S38      3.7523  18.5685   7.3918   S.3       1 RES1   0.0000
    39 C39      2.8560  17.1401   7.0943   C.2       1 RES1   0.0000
    40 C40      2.3358  16.2829   8.0787   C.2       1 RES1   0.0000
@<TRIPOS>BOND
     1     1     2    1
     2     2     3    1
     3     3     4    1
     4     3     5    1
     5     5     6    1
     6     6     7    1
     7     7     8    1
     8     8     9    1
     9     8    10    1
    10    10    11    1
    11    11    12    1
    12    12    13    2
    13    13    14    1
    14    14    15    2
    15    15    16    1
    16    16    17    2
    17    10    18    1
    18    18    19   am
    19    19    20    2
    20    19    21    1
    21    21    22    1
    22    23    22    1
    23    23    24    1
    24    24    25    1
    25    25    26    1
    26    26    27    2
    27    26    28   am
    28     6    29    1
    29    29    30    2
    30    29    31    2
    31    29    32    1
    32    32    33    2
    33    33    34    1
    34    34    35    2
    35    35    36    1
    36    36    37    2
    37    37    38    1
    38    38    39    1
    39    39    40    2
    40    17    12    1
    41    28    23    1
    42    40    32    1
    43    39    35    1
@<TRIPOS>SUBSTRUCTURE
     1 RES1        1 GROUP             0 ****  ****    0  
@<TRIPOS>MOLECULE
ligand_95
    40    43     1     0     0
SMALL
NO_CHARGES
****
Generated from the CSD

@<TRIPOS>ATOM
     1 C1      -1.9907  14.2903  13.3218   C.3       1 RES1   0.0000
     2 C2      -1.9303  14.7893  11.8865   C.3       1 RES1   0.0000
     3 C3      -0.6308  15.5277  11.5450   C.3       1 RES1   0.0000
     4 C4      -0.4776  16.7594  12.4383   C.3       1 RES1   0.0000
     5 C5      -0.6123  15.8341  10.0370   C.3       1 RES1   0.0000
     6 N6      -0.5839  14.5961   9.2242   N.3       1 RES1   0.0000
     7 C7      -1.5411  14.6520   8.0877   C.3       1 RES1   0.0000
     8 C8      -2.2818  13.3098   7.9975   C.3       1 RES1   0.0000
     9 O9      -3.0238  13.1244   9.2066   O.3       1 RES1   0.0000
    10 C10     -3.2138  13.2049   6.7882   C.3       1 RES1   0.0000
    11 C11     -4.4655  14.0833   6.8774   C.3       1 RES1   0.0000
    12 C12     -5.2467  14.0682   5.5719   C.2       1 RES1   0.0000
    13 C13     -4.9344  14.9845   4.5751   C.2       1 RES1   0.0000
    14 C14     -5.6381  14.9794   3.3722   C.2       1 RES1   0.0000
    15 C15     -6.6522  14.0534   3.1591   C.2       1 RES1   0.0000
    16 C16     -6.9643  13.1344   4.1540   C.2       1 RES1   0.0000
    17 C17     -6.2554  13.1412   5.3521   C.2       1 RES1   0.0000
    18 N18     -3.6344  11.8236   6.6167   N.am      1 RES1   0.0000
    19 C19     -3.2510  11.0075   5.6401   C.2       1 RES1   0.0000
    20 O20     -2.5102  11.2977   4.7151   O.2       1 RES1   0.0000
    21 O21     -3.8092   9.6673   5.6837   O.3       1 RES1   0.0000
    22 C22     -3.4674   8.7215   4.6693   C.3       1 RES1   0.0000
    23 C23     -4.7728   8.2968   4.0196   C.3       1 RES1   0.0000
    24 C24     -5.6114   9.5545   3.7240   C.3       1 RES1   0.0000
    25 C25     -6.5997   9.7418   4.9044   C.3       1 RES1   0.0000
    26 C26     -6.5672   8.4408   5.6538   C.2       1 RES1   0.0000
    27 O27     -7.2773   8.1294   6.5812   O.2       1 RES1   0.0000
    28 N28     -5.6328   7.6342   5.0575   N.am      1 RES1   0.0000
    29 S29      0.9187  14.1070   8.8276   S.o2      1 RES1   0.0000
    30 O30      0.8013  12.7906   8.2794   O.2       1 RES1   0.0000
    31 O31      1.6887  14.1794  10.0473   O.2       1 RES1   0.0000
    32 C32      1.6063  15.1226   7.7322   C.2       1 RES1   0.0000
    33 C33      2.3440  16.2057   8.2149   C.2       1 RES1   0.0000
    34 C34      3.0065  17.0759   7.3507   C.2       1 RES1   0.0000
    35 C35      2.9396  16.9031   5.9830   C.2       1 RES1   0.0000
    36 N36      3.4967  17.6309   4.9868   N.2       1 RES1   0.0000
    37 C37      3.1941  17.1497   3.7706   C.2       1 RES1   0.0000
    38 S38      2.1837  15.7369   3.7540   S.3       1 RES1   0.0000
    39 C39      2.1977  15.8403   5.4631   C.2       1 RES1   0.0000
    40 C40      1.5403  14.9604   6.3395   C.2       1 RES1   0.0000
@<TRIPOS>BOND
     1     1     2    1
     2     2     3    1
     3     3     4    1
     4     3     5    1
     5     5     6    1
     6     6     7    1
     7     7     8    1
     8     8     9    1
     9     8    10    1
    10    10    11    1
    11    11    12    1
    12    12    13    2
    13    13    14    1
    14    14    15    2
    15    15    16    1
    16    16    17    2
    17    10    18    1
    18    18    19   am
    19    19    20    2
    20    19    21    1
    21    21    22    1
    22    23    22    1
    23    23    24    1
    24    24    25    1
    25    25    26    1
    26    26    27    2
    27    26    28   am
    28     6    29    1
    29    29    30    2
    30    29    31    2
    31    29    32    1
    32    32    33    2
    33    33    34    1
    34    34    35    2
    35    35    36    1
    36    36    37    2
    37    37    38    1
    38    38    39    1
    39    39    40    2
    40    17    12    1
    41    28    23    1
    42    40    32    1
    43    39    35    1
@<TRIPOS>SUBSTRUCTURE
     1 RES1        1 GROUP             0 ****  ****    0  
@<TRIPOS>MOLECULE
ligand_96
    40    43     1     0     0
SMALL
NO_CHARGES
****
Generated from the CSD

@<TRIPOS>ATOM
     1 C1      -8.8793  12.7665  12.6322   C.3       1 RES1   0.0000
     2 C2      -7.5473  12.0345  12.6833   C.3       1 RES1   0.0000
     3 C3      -7.5244  10.8653  13.6747   C.3       1 RES1   0.0000
     4 C4      -7.7937  11.3739  15.0915   C.3       1 RES1   0.0000
     5 C5      -6.1961  10.1041  13.5181   C.3       1 RES1   0.0000
     6 N6      -6.0718   9.4839  12.1787   N.3       1 RES1   0.0000
     7 C7      -4.7266   9.7031  11.5841   C.3       1 RES1   0.0000
     8 C8      -4.8948  10.0926  10.1083   C.3       1 RES1   0.0000
     9 O9      -5.6227  11.3229  10.0489   O.3       1 RES1   0.0000
    10 C10     -3.5690  10.2301   9.3564   C.3       1 RES1   0.0000
    11 C11     -2.7377  11.4517   9.7602   C.3       1 RES1   0.0000
    12 C12     -1.3619  11.4243   9.1111   C.2       1 RES1   0.0000
    13 C13     -0.3065  10.8024   9.7668   C.2       1 RES1   0.0000
    14 C14      0.9581  10.7651   9.1824   C.2       1 RES1   0.0000
    15 C15      1.1703  11.3439   7.9369   C.2       1 RES1   0.0000
    16 C16      0.1151  11.9642   7.2783   C.2       1 RES1   0.0000
    17 C17     -1.1471  11.9949   7.8648   C.2       1 RES1   0.0000
    18 N18     -3.8257  10.3024   7.9271   N.am      1 RES1   0.0000
    19 C19     -3.5331   9.3624   7.0340   C.2       1 RES1   0.0000
    20 O20     -3.0027   8.2898   7.2724   O.2       1 RES1   0.0000
    21 O21     -3.8509   9.6842   5.6538   O.3       1 RES1   0.0000
    22 C22     -3.5410   8.7518   4.6169   C.3       1 RES1   0.0000
    23 C23     -4.8579   8.3996   3.9474   C.3       1 RES1   0.0000
    24 C24     -5.6270   9.7008   3.6511   C.3       1 RES1   0.0000
    25 C25     -6.6196   9.9302   4.8204   C.3       1 RES1   0.0000
    26 C26     -6.6637   8.6239   5.5599   C.2       1 RES1   0.0000
    27 O27     -7.4008   8.3428   6.4758   O.2       1 RES1   0.0000
    28 N28     -5.7642   7.7746   4.9691   N.am      1 RES1   0.0000
    29 S29     -6.6025   7.9448  12.1176   S.o2      1 RES1   0.0000
    30 O30     -6.6498   7.5709  10.7373   O.2       1 RES1   0.0000
    31 O31     -7.8858   7.9464  12.7800   O.2       1 RES1   0.0000
    32 C32     -5.6037   6.9366  12.9484   C.2       1 RES1   0.0000
    33 C33     -4.5526   6.3352  12.2529   C.2       1 RES1   0.0000
    34 C34     -3.6284   5.5162  12.8996   C.2       1 RES1   0.0000
    35 C35     -3.7341   5.2592  14.2516   C.2       1 RES1   0.0000
    36 N36     -2.9553   4.4969  15.0547   N.2       1 RES1   0.0000
    37 C37     -3.3876   4.4856  16.3256   C.2       1 RES1   0.0000
    38 S38     -4.8109   5.4300  16.6414   S.3       1 RES1   0.0000
    39 C39     -4.7820   5.8302  14.9768   C.2       1 RES1   0.0000
    40 C40     -5.7046   6.6631  14.3214   C.2       1 RES1   0.0000
@<TRIPOS>BOND
     1     1     2    1
     2     2     3    1
     3     3     4    1
     4     3     5    1
     5     5     6    1
     6     6     7    1
     7     7     8    1
     8     8     9    1
     9     8    10    1
    10    10    11    1
    11    11    12    1
    12    12    13    2
    13    13    14    1
    14    14    15    2
    15    15    16    1
    16    16    17    2
    17    10    18    1
    18    18    19   am
    19    19    20    2
    20    19    21    1
    21    21    22    1
    22    23    22    1
    23    23    24    1
    24    24    25    1
    25    25    26    1
    26    26    27    2
    27    26    28   am
    28     6    29    1
    29    29    30    2
    30    29    31    2
    31    29    32    1
    32    32    33    2
    33    33    34    1
    34    34    35    2
    35    35    36    1
    36    36    37    2
    37    37    38    1
    38    38    39    1
    39    39    40    2
    40    17    12    1
    41    28    23    1
    42    40    32    1
    43    39    35    1
@<TRIPOS>SUBSTRUCTURE
     1 RES1        1 GROUP             0 ****  ****    0  
@<TRIPOS>MOLECULE
ligand_97
    40    43     1     0     0
SMALL
NO_CHARGES
****
Generated from the CSD

@<TRIPOS>ATOM
     1 C1      -8.8801  12.7659  12.6314   C.3       1 RES1   0.0000
     2 C2      -7.5479  12.0343  12.6827   C.3       1 RES1   0.0000
     3 C3      -7.5247  10.8653  13.6744   C.3       1 RES1   0.0000
     4 C4      -7.7942  11.3741  15.0910   C.3       1 RES1   0.0000
     5 C5      -6.1962  10.1044  13.5179   C.3       1 RES1   0.0000
     6 N6      -6.0718   9.4838  12.1786   N.3       1 RES1   0.0000
     7 C7      -4.7266   9.7031  11.5841   C.3       1 RES1   0.0000
     8 C8      -4.8948  10.0926  10.1083   C.3       1 RES1   0.0000
     9 O9      -5.6227  11.3229  10.0489   O.3       1 RES1   0.0000
    10 C10     -3.5690  10.2301   9.3564   C.3       1 RES1   0.0000
    11 C11     -2.7377  11.4518   9.7602   C.3       1 RES1   0.0000
    12 C12     -1.3619  11.4243   9.1111   C.2       1 RES1   0.0000
    13 C13     -0.3065  10.8024   9.7668   C.2       1 RES1   0.0000
    14 C14      0.9581  10.7652   9.1824   C.2       1 RES1   0.0000
    15 C15      1.1703  11.3439   7.9368   C.2       1 RES1   0.0000
    16 C16      0.1151  11.9642   7.2782   C.2       1 RES1   0.0000
    17 C17     -1.1471  11.9949   7.8647   C.2       1 RES1   0.0000
    18 N18     -3.8257  10.3024   7.9271   N.am      1 RES1   0.0000
    19 C19     -3.5331   9.3624   7.0340   C.2       1 RES1   0.0000
    20 O20     -3.0027   8.2898   7.2725   O.2       1 RES1   0.0000
    21 O21     -3.8509   9.6842   5.6538   O.3       1 RES1   0.0000
    22 C22     -3.5410   8.7518   4.6169   C.3       1 RES1   0.0000
    23 C23     -4.8579   8.3995   3.9474   C.3       1 RES1   0.0000
    24 C24     -5.6269   9.7007   3.6510   C.3       1 RES1   0.0000
    25 C25     -6.6195   9.9303   4.8203   C.3       1 RES1   0.0000
    26 C26     -6.6637   8.6241   5.5598   C.2       1 RES1   0.0000
    27 O27     -7.4009   8.3430   6.4757   O.2       1 RES1   0.0000
    28 N28     -5.7643   7.7747   4.9692   N.am      1 RES1   0.0000
    29 S29     -6.6023   7.9447  12.1179   S.o2      1 RES1   0.0000
    30 O30     -6.6601   7.5741  10.7371   O.2       1 RES1   0.0000
    31 O31     -7.8804   7.9441  12.7903   O.2       1 RES1   0.0000
    32 C32     -5.5966   6.9349  12.9384   C.2       1 RES1   0.0000
    33 C33     -5.8495   6.7169  14.2944   C.2       1 RES1   0.0000
    34 C34     -5.0790   5.8288  15.0433   C.2       1 RES1   0.0000
    35 C35     -4.0258   5.1466  14.4687   C.2       1 RES1   0.0000
    36 N36     -3.1634   4.2585  15.0166   N.2       1 RES1   0.0000
    37 C37     -2.2588   3.8109  14.1314   C.2       1 RES1   0.0000
    38 S38     -2.3996   4.4560  12.5248   S.3       1 RES1   0.0000
    39 C39     -3.7327   5.3515  13.1187   C.2       1 RES1   0.0000
    40 C40     -4.5193   6.2402  12.3665   C.2       1 RES1   0.0000
@<TRIPOS>BOND
     1     1     2    1
     2     2     3    1
     3     3     4    1
     4     3     5    1
     5     5     6    1
     6     6     7    1
     7     7     8    1
     8     8     9    1
     9     8    10    1
    10    10    11    1
    11    11    12    1
    12    12    13    2
    13    13    14    1
    14    14    15    2
    15    15    16    1
    16    16    17    2
    17    10    18    1
    18    18    19   am
    19    19    20    2
    20    19    21    1
    21    21    22    1
    22    23    22    1
    23    23    24    1
    24    24    25    1
    25    25    26    1
    26    26    27    2
    27    26    28   am
    28     6    29    1
    29    29    30    2
    30    29    31    2
    31    29    32    1
    32    32    33    2
    33    33    34    1
    34    34    35    2
    35    35    36    1
    36    36    37    2
    37    37    38    1
    38    38    39    1
    39    39    40    2
    40    17    12    1
    41    28    23    1
    42    40    32    1
    43    39    35    1
@<TRIPOS>SUBSTRUCTURE
     1 RES1        1 GROUP             0 ****  ****    0  
@<TRIPOS>MOLECULE
ligand_98
    40    43     1     0     0
SMALL
NO_CHARGES
****
Generated from the CSD

@<TRIPOS>ATOM
     1 C1      -0.4889  11.3877  12.1041   C.3       1 RES1   0.0000
     2 C2      -1.0678  12.4822  11.2211   C.3       1 RES1   0.0000
     3 C3      -0.5486  13.8849  11.5581   C.3       1 RES1   0.0000
     4 C4      -0.9365  14.2574  12.9896   C.3       1 RES1   0.0000
     5 C5      -1.0500  14.8726  10.4898   C.3       1 RES1   0.0000
     6 N6      -0.5043  14.5572   9.1493   N.3       1 RES1   0.0000
     7 C7      -1.5411  14.6520   8.0877   C.3       1 RES1   0.0000
     8 C8      -2.2818  13.3098   7.9975   C.3       1 RES1   0.0000
     9 O9      -3.0238  13.1244   9.2066   O.3       1 RES1   0.0000
    10 C10     -3.2138  13.2049   6.7882   C.3       1 RES1   0.0000
    11 C11     -4.4656  14.0831   6.8775   C.3       1 RES1   0.0000
    12 C12     -5.2467  14.0682   5.5719   C.2       1 RES1   0.0000
    13 C13     -4.9346  14.9848   4.5754   C.2       1 RES1   0.0000
    14 C14     -5.6383  14.9799   3.3725   C.2       1 RES1   0.0000
    15 C15     -6.6521  14.0537   3.1591   C.2       1 RES1   0.0000
    16 C16     -6.9640  13.1343   4.1537   C.2       1 RES1   0.0000
    17 C17     -6.2552  13.1410   5.3519   C.2       1 RES1   0.0000
    18 N18     -3.6342  11.8236   6.6166   N.am      1 RES1   0.0000
    19 C19     -3.2506  11.0076   5.6399   C.2       1 RES1   0.0000
    20 O20     -2.5099  11.2980   4.7149   O.2       1 RES1   0.0000
    21 O21     -3.8086   9.6673   5.6834   O.3       1 RES1   0.0000
    22 C22     -3.4664   8.7215   4.6691   C.3       1 RES1   0.0000
    23 C23     -4.7716   8.2968   4.0190   C.3       1 RES1   0.0000
    24 C24     -5.6102   9.5543   3.7230   C.3       1 RES1   0.0000
    25 C25     -6.5988   9.7417   4.9032   C.3       1 RES1   0.0000
    26 C26     -6.5665   8.4409   5.6527   C.2       1 RES1   0.0000
    27 O27     -7.2768   8.1295   6.5799   O.2       1 RES1   0.0000
    28 N28     -5.6319   7.6342   5.0567   N.am      1 RES1   0.0000
    29 S29      0.8907  15.3281   8.8117   S.o2      1 RES1   0.0000
    30 O30      1.4168  14.7416   7.6174   O.2       1 RES1   0.0000
    31 O31      1.7247  15.1573   9.9783   O.2       1 RES1   0.0000
    32 C32      0.6439  16.9396   8.5958   C.2       1 RES1   0.0000
    33 C33      0.3591  17.3923   7.3058   C.2       1 RES1   0.0000
    34 C34      0.0788  18.7340   7.0523   C.2       1 RES1   0.0000
    35 C35      0.0909  19.6647   8.0714   C.2       1 RES1   0.0000
    36 N36     -0.1433  20.9975   8.0338   N.2       1 RES1   0.0000
    37 C37     -0.0294  21.5713   9.2422   C.2       1 RES1   0.0000
    38 S38      0.3803  20.4985  10.5455   S.3       1 RES1   0.0000
    39 C39      0.3877  19.2516   9.3719   C.2       1 RES1   0.0000
    40 C40      0.6594  17.8960   9.6230   C.2       1 RES1   0.0000
@<TRIPOS>BOND
     1     1     2    1
     2     2     3    1
     3     3     4    1
     4     3     5    1
     5     5     6    1
     6     6     7    1
     7     7     8    1
     8     8     9    1
     9     8    10    1
    10    10    11    1
    11    11    12    1
    12    12    13    2
    13    13    14    1
    14    14    15    2
    15    15    16    1
    16    16    17    2
    17    10    18    1
    18    18    19   am
    19    19    20    2
    20    19    21    1
    21    21    22    1
    22    23    22    1
    23    23    24    1
    24    24    25    1
    25    25    26    1
    26    26    27    2
    27    26    28   am
    28     6    29    1
    29    29    30    2
    30    29    31    2
    31    29    32    1
    32    32    33    2
    33    33    34    1
    34    34    35    2
    35    35    36    1
    36    36    37    2
    37    37    38    1
    38    38    39    1
    39    39    40    2
    40    17    12    1
    41    28    23    1
    42    40    32    1
    43    39    35    1
@<TRIPOS>SUBSTRUCTURE
     1 RES1        1 GROUP             0 ****  ****    0  
@<TRIPOS>MOLECULE
ligand_99
    40    43     1     0     0
SMALL
NO_CHARGES
****
Generated from the CSD

@<TRIPOS>ATOM
     1 C1      -0.4889  11.3877  12.1041   C.3       1 RES1   0.0000
     2 C2      -1.0678  12.4822  11.2211   C.3       1 RES1   0.0000
     3 C3      -0.5486  13.8849  11.5581   C.3       1 RES1   0.0000
     4 C4      -0.9365  14.2574  12.9896   C.3       1 RES1   0.0000
     5 C5      -1.0500  14.8726  10.4898   C.3       1 RES1   0.0000
     6 N6      -0.5043  14.5572   9.1493   N.3       1 RES1   0.0000
     7 C7      -1.5411  14.6520   8.0877   C.3       1 RES1   0.0000
     8 C8      -2.2818  13.3098   7.9975   C.3       1 RES1   0.0000
     9 O9      -3.0238  13.1244   9.2066   O.3       1 RES1   0.0000
    10 C10     -3.2138  13.2049   6.7882   C.3       1 RES1   0.0000
    11 C11     -4.4656  14.0831   6.8775   C.3       1 RES1   0.0000
    12 C12     -5.2467  14.0682   5.5719   C.2       1 RES1   0.0000
    13 C13     -4.9346  14.9848   4.5754   C.2       1 RES1   0.0000
    14 C14     -5.6383  14.9799   3.3725   C.2       1 RES1   0.0000
    15 C15     -6.6521  14.0537   3.1591   C.2       1 RES1   0.0000
    16 C16     -6.9640  13.1343   4.1537   C.2       1 RES1   0.0000
    17 C17     -6.2552  13.1410   5.3519   C.2       1 RES1   0.0000
    18 N18     -3.6342  11.8236   6.6166   N.am      1 RES1   0.0000
    19 C19     -3.2506  11.0076   5.6399   C.2       1 RES1   0.0000
    20 O20     -2.5099  11.2980   4.7149   O.2       1 RES1   0.0000
    21 O21     -3.8086   9.6673   5.6834   O.3       1 RES1   0.0000
    22 C22     -3.4664   8.7215   4.6691   C.3       1 RES1   0.0000
    23 C23     -4.7716   8.2968   4.0190   C.3       1 RES1   0.0000
    24 C24     -5.6102   9.5543   3.7230   C.3       1 RES1   0.0000
    25 C25     -6.5988   9.7417   4.9032   C.3       1 RES1   0.0000
    26 C26     -6.5665   8.4409   5.6527   C.2       1 RES1   0.0000
    27 O27     -7.2768   8.1295   6.5799   O.2       1 RES1   0.0000
    28 N28     -5.6319   7.6342   5.0567   N.am      1 RES1   0.0000
    29 S29      0.8907  15.3281   8.8117   S.o2      1 RES1   0.0000
    30 O30      1.4168  14.7416   7.6174   O.2       1 RES1   0.0000
    31 O31      1.7247  15.1573   9.9783   O.2       1 RES1   0.0000
    32 C32      0.6439  16.9396   8.5958   C.2       1 RES1   0.0000
    33 C33      0.7318  17.7721   9.7135   C.2       1 RES1   0.0000
    34 C34      0.5948  19.1548   9.6018   C.2       1 RES1   0.0000
    35 C35      0.3497  19.7456   8.3787   C.2       1 RES1   0.0000
    36 N36      0.1799  21.0509   8.0627   N.2       1 RES1   0.0000
    37 C37     -0.0500  21.2344   6.7528   C.2       1 RES1   0.0000
    38 S38     -0.0743  19.7910   5.7868   S.3       1 RES1   0.0000
    39 C39      0.2391  18.9432   7.2411   C.2       1 RES1   0.0000
    40 C40      0.3882  17.5510   7.3584   C.2       1 RES1   0.0000
@<TRIPOS>BOND
     1     1     2    1
     2     2     3    1
     3     3     4    1
     4     3     5    1
     5     5     6    1
     6     6     7    1
     7     7     8    1
     8     8     9    1
     9     8    10    1
    10    10    11    1
    11    11    12    1
    12    12    13    2
    13    13    14    1
    14    14    15    2
    15    15    16    1
    16    16    17    2
    17    10    18    1
    18    18    19   am
    19    19    20    2
    20    19    21    1
    21    21    22    1
    22    23    22    1
    23    23    24    1
    24    24    25    1
    25    25    26    1
    26    26    27    2
    27    26    28   am
    28     6    29    1
    29    29    30    2
    30    29    31    2
    31    29    32    1
    32    32    33    2
    33    33    34    1
    34    34    35    2
    35    35    36    1
    36    36    37    2
    37    37    38    1
    38    38    39    1
    39    39    40    2
    40    17    12    1
    41    28    23    1
    42    40    32    1
    43    39    35    1
@<TRIPOS>SUBSTRUCTURE
     1 RES1        1 GROUP             0 ****  ****    0  
