@<TRIPOS>MOLECULE
native
    29    32     1     0     0
SMALL
USER_CHARGES
****
Generated from the CSD

@<TRIPOS>ATOM
     1 C1      12.9480 -14.6400  10.6960   C.3       1 RES1   0.0000
     2 C2      11.9110 -14.5950   9.5930   C.3       1 RES1   0.0000
     3 C3      10.6760 -13.8810  10.1890   C.3       1 RES1   0.0000
     4 C4      12.5080 -13.7890   8.4520   C.3       1 RES1   0.0000
     5 C5      11.4970 -13.7740   7.3240   C.2       1 RES1   0.0000
     6 C6      11.2740 -12.6430   6.5280   C.2       1 RES1   0.0000
     7 C7      10.3020 -12.7740   5.5610   C.2       1 RES1   0.0000
     8 Cl8      9.9610 -11.3380   4.5550   Cl        1 RES1   0.0000
     9 C9       9.5710 -13.9400   5.3360   C.2       1 RES1   0.0000
    10 C10      9.7600 -15.0860   6.0900   C.2       1 RES1   0.0000
    11 C11     10.7310 -14.9860   7.0900   C.2       1 RES1   0.0000
    12 C12     11.0570 -16.1600   7.9690   C.2       1 RES1   0.0000
    13 N13     10.8080 -17.3620   7.4480   N.2       1 RES1   0.0000
    14 C14     10.8320 -18.6080   8.2490   C.3       1 RES1   0.0000
    15 C15      9.4280 -19.1070   8.6540   C.3       1 RES1   0.0000
    16 C16      9.0840 -18.2970   9.9050   C.2       1 RES1   0.0000
    17 C17      9.6050 -18.5940  11.1740   C.2       1 RES1   0.0000
    18 S18      9.0380 -17.3900  12.3000   S.3       1 RES1   0.0000
    19 C19      8.0440 -16.4370  11.2510   C.2       1 RES1   0.0000
    20 C20      8.1860 -17.0770  10.0060   C.2       1 RES1   0.0000
    21 C21      7.5530 -16.4480   8.7970   C.2       1 RES1   0.0000
    22 C22      7.4140 -15.0330   8.6720   C.2       1 RES1   0.0000
    23 N23      6.8870 -14.8100   7.4390   N.2       1 RES1   0.0000
    24 N24      6.7150 -16.0870   6.8270   N.2       1 RES1   0.0000
    25 C25      7.1460 -17.1040   7.6620   C.2       1 RES1   0.0000
    26 C26     11.5300 -19.6260   7.4030   C.2       1 RES1   0.0000
    27 O27     11.7850 -19.4380   6.2100   O.co2     1 RES1   0.0000
    28 O28     11.7920 -20.7450   7.8910   O.co2     1 RES1  -1.0000
    29 N29     11.5830 -15.9400   9.1050   N.2       1 RES1   0.0000
@<TRIPOS>BOND
     1     1     2    1
     2     2     3    1
     3     2     4    1
     4     4     5    1
     5     5     6    2
     6     6     7    1
     7     7     8    1
     8     7     9    2
     9     9    10    1
    10    10    11    2
    11    11    12    1
    12    12    13    1
    13    13    14    1
    14    14    15    1
    15    15    16    1
    16    16    17    2
    17    17    18    1
    18    18    19    1
    19    19    20    2
    20    20    21    1
    21    21    22    1
    22    22    23    2
    23    23    24    1
    24    24    25    1
    25    14    26    1
    26    26    27    2
    27    26    28    1
    28    12    29    2
    29    29     2    1
    30    11     5    1
    31    20    16    1
    32    25    21    2
@<TRIPOS>SUBSTRUCTURE
     1 RES1        1 GROUP             0 ****  ****    0  
@<TRIPOS>MOLECULE
ligand_0
    29    32     1     0     0
SMALL
USER_CHARGES
****
Generated from the CSD

@<TRIPOS>ATOM
     1 C1      13.2968 -14.9596  10.4763   C.3       1 RES1   0.0000
     2 C2      12.1041 -14.7217   9.5728   C.3       1 RES1   0.0000
     3 C3      10.9350 -14.1429  10.4014   C.3       1 RES1   0.0000
     4 C4      12.4965 -13.8134   8.4233   C.3       1 RES1   0.0000
     5 C5      11.4391 -13.7714   7.3499   C.2       1 RES1   0.0000
     6 C6      11.1991 -12.6326   6.5687   C.2       1 RES1   0.0000
     7 C7      10.2302 -12.7623   5.5983   C.2       1 RES1   0.0000
     8 Cl8      9.8636 -11.3193   4.6139   Cl        1 RES1   0.0000
     9 C9       9.5092 -13.9359   5.3737   C.2       1 RES1   0.0000
    10 C10      9.7255 -15.0757   6.1301   C.2       1 RES1   0.0000
    11 C11     10.7054 -14.9682   7.1225   C.2       1 RES1   0.0000
    12 C12     11.0518 -16.1318   7.9820   C.2       1 RES1   0.0000
    13 N13     10.6236 -17.3379   7.6181   N.2       1 RES1   0.0000
    14 C14     10.8095 -18.5455   8.4558   C.3       1 RES1   0.0000
    15 C15      9.9042 -19.7265   8.0435   C.3       1 RES1   0.0000
    16 C16      8.4840 -19.2292   8.3176   C.2       1 RES1   0.0000
    17 C17      7.9072 -19.2337   9.5972   C.2       1 RES1   0.0000
    18 S18      6.3237 -18.5122   9.4922   S.3       1 RES1   0.0000
    19 C19      6.2469 -18.1935   7.7925   C.2       1 RES1   0.0000
    20 C20      7.4930 -18.6496   7.3242   C.2       1 RES1   0.0000
    21 C21      7.8481 -18.4195   5.8823   C.2       1 RES1   0.0000
    22 C22      7.1953 -17.4220   5.0976   C.2       1 RES1   0.0000
    23 N23      7.8112 -17.4279   3.8858   N.2       1 RES1   0.0000
    24 N24      8.8316 -18.4229   3.9468   N.2       1 RES1   0.0000
    25 C25      8.8680 -19.0263   5.1926   C.2       1 RES1   0.0000
    26 C26     12.2532 -18.9169   8.3253   C.2       1 RES1   0.0000
    27 O27     12.9489 -18.5586   7.3707   O.co2     1 RES1   0.0000
    28 O28     12.7602 -19.6895   9.1650   O.co2     1 RES1  -1.0000
    29 N29     11.6656 -16.0533   9.0978   N.2       1 RES1   0.0000
@<TRIPOS>BOND
     1     1     2    1
     2     2     3    1
     3     2     4    1
     4     4     5    1
     5     5     6    2
     6     6     7    1
     7     7     8    1
     8     7     9    2
     9     9    10    1
    10    10    11    2
    11    11    12    1
    12    12    13    1
    13    13    14    1
    14    14    15    1
    15    15    16    1
    16    16    17    2
    17    17    18    1
    18    18    19    1
    19    19    20    2
    20    20    21    1
    21    21    22    1
    22    22    23    2
    23    23    24    1
    24    24    25    1
    25    14    26    1
    26    26    27    2
    27    26    28    1
    28    12    29    2
    29    29     2    1
    30    11     5    1
    31    20    16    1
    32    25    21    2
@<TRIPOS>SUBSTRUCTURE
     1 RES1        1 GROUP             0 ****  ****    0  
@<TRIPOS>MOLECULE
ligand_1
    29    32     1     0     0
SMALL
USER_CHARGES
****
Generated from the CSD

@<TRIPOS>ATOM
     1 C1      13.3003 -14.9599  10.4734   C.3       1 RES1   0.0000
     2 C2      12.1060 -14.7221   9.5719   C.3       1 RES1   0.0000
     3 C3      10.9380 -14.1443  10.4027   C.3       1 RES1   0.0000
     4 C4      12.4962 -13.8130   8.4223   C.3       1 RES1   0.0000
     5 C5      11.4371 -13.7709   7.3505   C.2       1 RES1   0.0000
     6 C6      11.1952 -12.6318   6.5704   C.2       1 RES1   0.0000
     7 C7      10.2249 -12.7613   5.6015   C.2       1 RES1   0.0000
     8 Cl8      9.8560 -11.3180   4.6185   Cl        1 RES1   0.0000
     9 C9       9.5040 -13.9352   5.3773   C.2       1 RES1   0.0000
    10 C10      9.7220 -15.0753   6.1328   C.2       1 RES1   0.0000
    11 C11     10.7036 -14.9679   7.1237   C.2       1 RES1   0.0000
    12 C12     11.0518 -16.1319   7.9820   C.2       1 RES1   0.0000
    13 N13     10.6236 -17.3379   7.6181   N.2       1 RES1   0.0000
    14 C14     10.8095 -18.5455   8.4558   C.3       1 RES1   0.0000
    15 C15      9.9042 -19.7265   8.0435   C.3       1 RES1   0.0000
    16 C16      8.4844 -19.2317   8.3238   C.2       1 RES1   0.0000
    17 C17      7.7404 -18.4827   7.3989   C.2       1 RES1   0.0000
    18 S18      6.1559 -18.1957   8.0670   S.3       1 RES1   0.0000
    19 C19      6.3319 -18.9649   9.6078   C.2       1 RES1   0.0000
    20 C20      7.6484 -19.4600   9.5704   C.2       1 RES1   0.0000
    21 C21      8.1290 -20.3134  10.7101   C.2       1 RES1   0.0000
    22 C22      7.2200 -20.9485  11.6087   C.2       1 RES1   0.0000
    23 N23      7.9792 -21.6978  12.4513   N.2       1 RES1   0.0000
    24 N24      9.3374 -21.5147  12.0555   N.2       1 RES1   0.0000
    25 C25      9.4303 -20.6701  10.9622   C.2       1 RES1   0.0000
    26 C26     12.2532 -18.9169   8.3253   C.2       1 RES1   0.0000
    27 O27     12.9489 -18.5586   7.3707   O.co2     1 RES1   0.0000
    28 O28     12.7602 -19.6895   9.1650   O.co2     1 RES1  -1.0000
    29 N29     11.6674 -16.0536   9.0969   N.2       1 RES1   0.0000
@<TRIPOS>BOND
     1     1     2    1
     2     2     3    1
     3     2     4    1
     4     4     5    1
     5     5     6    2
     6     6     7    1
     7     7     8    1
     8     7     9    2
     9     9    10    1
    10    10    11    2
    11    11    12    1
    12    12    13    1
    13    13    14    1
    14    14    15    1
    15    15    16    1
    16    16    17    2
    17    17    18    1
    18    18    19    1
    19    19    20    2
    20    20    21    1
    21    21    22    1
    22    22    23    2
    23    23    24    1
    24    24    25    1
    25    14    26    1
    26    26    27    2
    27    26    28    1
    28    12    29    2
    29    29     2    1
    30    11     5    1
    31    20    16    1
    32    25    21    2
@<TRIPOS>SUBSTRUCTURE
     1 RES1        1 GROUP             0 ****  ****    0  
@<TRIPOS>MOLECULE
ligand_2
    29    32     1     0     0
SMALL
USER_CHARGES
****
Generated from the CSD

@<TRIPOS>ATOM
     1 C1      13.3128 -14.9622  10.4635   C.3       1 RES1   0.0000
     2 C2      12.1142 -14.7238   9.5679   C.3       1 RES1   0.0000
     3 C3      10.9500 -14.1473  10.4048   C.3       1 RES1   0.0000
     4 C4      12.4988 -13.8133   8.4174   C.3       1 RES1   0.0000
     5 C5      11.4347 -13.7704   7.3507   C.2       1 RES1   0.0000
     6 C6      11.1888 -12.6304   6.5730   C.2       1 RES1   0.0000
     7 C7      10.2140 -12.7592   5.6085   C.2       1 RES1   0.0000
     8 Cl8      9.8401 -11.3149   4.6287   Cl        1 RES1   0.0000
     9 C9       9.4925 -13.9331   5.3864   C.2       1 RES1   0.0000
    10 C10      9.7144 -15.0740   6.1395   C.2       1 RES1   0.0000
    11 C11     10.7005 -14.9673   7.1259   C.2       1 RES1   0.0000
    12 C12     11.0531 -16.1321   7.9814   C.2       1 RES1   0.0000
    13 N13     10.6236 -17.3379   7.6181   N.2       1 RES1   0.0000
    14 C14     10.8095 -18.5455   8.4558   C.3       1 RES1   0.0000
    15 C15      9.4945 -19.2993   8.7503   C.3       1 RES1   0.0000
    16 C16      8.6780 -18.3210   9.5963   C.2       1 RES1   0.0000
    17 C17      8.8375 -18.1953  10.9851   C.2       1 RES1   0.0000
    18 S18      7.7890 -16.9219  11.5490   S.3       1 RES1   0.0000
    19 C19      7.0201 -16.4806  10.0622   C.2       1 RES1   0.0000
    20 C20      7.6188 -17.3413   9.1238   C.2       1 RES1   0.0000
    21 C21      7.2862 -17.1635   7.6693   C.2       1 RES1   0.0000
    22 C22      6.6085 -16.0025   7.1898   C.2       1 RES1   0.0000
    23 N23      6.5472 -16.1289   5.8378   N.2       1 RES1   0.0000
    24 N24      7.1895 -17.3595   5.5092   N.2       1 RES1   0.0000
    25 C25      7.6658 -17.9938   6.6442   C.2       1 RES1   0.0000
    26 C26     11.7633 -19.4217   7.7063   C.2       1 RES1   0.0000
    27 O27     11.9374 -19.3266   6.4880   O.co2     1 RES1   0.0000
    28 O28     12.3463 -20.3440   8.3133   O.co2     1 RES1  -1.0000
    29 N29     11.6739 -16.0549   9.0934   N.2       1 RES1   0.0000
@<TRIPOS>BOND
     1     1     2    1
     2     2     3    1
     3     2     4    1
     4     4     5    1
     5     5     6    2
     6     6     7    1
     7     7     8    1
     8     7     9    2
     9     9    10    1
    10    10    11    2
    11    11    12    1
    12    12    13    1
    13    13    14    1
    14    14    15    1
    15    15    16    1
    16    16    17    2
    17    17    18    1
    18    18    19    1
    19    19    20    2
    20    20    21    1
    21    21    22    1
    22    22    23    2
    23    23    24    1
    24    24    25    1
    25    14    26    1
    26    26    27    2
    27    26    28    1
    28    12    29    2
    29    29     2    1
    30    11     5    1
    31    20    16    1
    32    25    21    2
@<TRIPOS>SUBSTRUCTURE
     1 RES1        1 GROUP             0 ****  ****    0  
@<TRIPOS>MOLECULE
ligand_3
    29    32     1     0     0
SMALL
USER_CHARGES
****
Generated from the CSD

@<TRIPOS>ATOM
     1 C1      13.3752 -14.9800  10.4182   C.3       1 RES1   0.0000
     2 C2      12.1634 -14.7337   9.5429   C.3       1 RES1   0.0000
     3 C3      11.0170 -14.1500  10.3992   C.3       1 RES1   0.0000
     4 C4      12.5344 -13.8254   8.3862   C.3       1 RES1   0.0000
     5 C5      11.4528 -13.7755   7.3375   C.2       1 RES1   0.0000
     6 C6      11.2013 -12.6339   6.5641   C.2       1 RES1   0.0000
     7 C7      10.2096 -12.7563   5.6160   C.2       1 RES1   0.0000
     8 Cl8      9.8286 -11.3095   4.6428   Cl        1 RES1   0.0000
     9 C9       9.4770 -13.9255   5.4059   C.2       1 RES1   0.0000
    10 C10      9.7042 -15.0679   6.1551   C.2       1 RES1   0.0000
    11 C11     10.7074 -14.9678   7.1249   C.2       1 RES1   0.0000
    12 C12     11.0668 -16.1350   7.9742   C.2       1 RES1   0.0000
    13 N13     10.6236 -17.3379   7.6181   N.2       1 RES1   0.0000
    14 C14     10.8095 -18.5455   8.4558   C.3       1 RES1   0.0000
    15 C15      9.4945 -19.2993   8.7503   C.3       1 RES1   0.0000
    16 C16      8.6774 -18.3203   9.5950   C.2       1 RES1   0.0000
    17 C17      7.8548 -17.3306   9.0347   C.2       1 RES1   0.0000
    18 S18      7.0401 -16.4918  10.3276   S.3       1 RES1   0.0000
    19 C19      7.7250 -17.3028  11.6951   C.2       1 RES1   0.0000
    20 C20      8.5859 -18.2487  11.1087   C.2       1 RES1   0.0000
    21 C21      9.2769 -19.2424  11.9993   C.2       1 RES1   0.0000
    22 C22      8.8151 -19.5144  13.3221   C.2       1 RES1   0.0000
    23 N23      9.6069 -20.5084  13.8046   N.2       1 RES1   0.0000
    24 N24     10.5367 -20.8326  12.7725   N.2       1 RES1   0.0000
    25 C25     10.3205 -20.0602  11.6438   C.2       1 RES1   0.0000
    26 C26     11.7633 -19.4217   7.7063   C.2       1 RES1   0.0000
    27 O27     11.9374 -19.3266   6.4880   O.co2     1 RES1   0.0000
    28 O28     12.3463 -20.3440   8.3133   O.co2     1 RES1  -1.0000
    29 N29     11.7066 -16.0619   9.0757   N.2       1 RES1   0.0000
@<TRIPOS>BOND
     1     1     2    1
     2     2     3    1
     3     2     4    1
     4     4     5    1
     5     5     6    2
     6     6     7    1
     7     7     8    1
     8     7     9    2
     9     9    10    1
    10    10    11    2
    11    11    12    1
    12    12    13    1
    13    13    14    1
    14    14    15    1
    15    15    16    1
    16    16    17    2
    17    17    18    1
    18    18    19    1
    19    19    20    2
    20    20    21    1
    21    21    22    1
    22    22    23    2
    23    23    24    1
    24    24    25    1
    25    14    26    1
    26    26    27    2
    27    26    28    1
    28    12    29    2
    29    29     2    1
    30    11     5    1
    31    20    16    1
    32    25    21    2
@<TRIPOS>SUBSTRUCTURE
     1 RES1        1 GROUP             0 ****  ****    0  
@<TRIPOS>MOLECULE
ligand_4
    29    32     1     0     0
SMALL
USER_CHARGES
****
Generated from the CSD

@<TRIPOS>ATOM
     1 C1      14.0348 -15.5680   7.5629   C.3       1 RES1   0.0000
     2 C2      13.1007 -15.1590   8.6818   C.3       1 RES1   0.0000
     3 C3      13.8599 -15.1510  10.0297   C.3       1 RES1   0.0000
     4 C4      12.4699 -13.7959   8.4399   C.3       1 RES1   0.0000
     5 C5      11.5186 -13.8053   7.2748   C.2       1 RES1   0.0000
     6 C6      11.2975 -12.6812   6.4674   C.2       1 RES1   0.0000
     7 C7      10.3652 -12.8312   5.4650   C.2       1 RES1   0.0000
     8 Cl8     10.0701 -11.4241   4.4071   Cl        1 RES1   0.0000
     9 C9       9.6602 -14.0126   5.2317   C.2       1 RES1   0.0000
    10 C10      9.8554 -15.1403   6.0109   C.2       1 RES1   0.0000
    11 C11     10.7976 -15.0145   7.0368   C.2       1 RES1   0.0000
    12 C12     11.0528 -16.1291   7.9866   C.2       1 RES1   0.0000
    13 N13     10.1980 -17.1484   7.9739   N.2       1 RES1   0.0000
    14 C14     10.4101 -18.3875   8.7577   C.3       1 RES1   0.0000
    15 C15      9.1376 -19.2502   8.9023   C.3       1 RES1   0.0000
    16 C16      8.1983 -18.3997   9.7589   C.2       1 RES1   0.0000
    17 C17      7.1023 -17.7021   9.2278   C.2       1 RES1   0.0000
    18 S18      6.2474 -16.9347  10.5389   S.3       1 RES1   0.0000
    19 C19      7.2522 -17.3988  11.8699   C.2       1 RES1   0.0000
    20 C20      8.2529 -18.1774  11.2598   C.2       1 RES1   0.0000
    21 C21      9.2583 -18.8715  12.1347   C.2       1 RES1   0.0000
    22 C22      9.1351 -18.8846  13.5566   C.2       1 RES1   0.0000
    23 N23     10.1508 -19.6604  14.0193   N.2       1 RES1   0.0000
    24 N24     10.8768 -20.1132  12.8779   N.2       1 RES1   0.0000
    25 C25     10.3121 -19.6394  11.7057   C.2       1 RES1   0.0000
    26 C26     11.4834 -19.1464   8.0426   C.2       1 RES1   0.0000
    27 O27     11.7439 -18.9662   6.8496   O.co2     1 RES1   0.0000
    28 O28     12.0863 -20.0591   8.6447   O.co2     1 RES1  -1.0000
    29 N29     12.0707 -16.2284   8.7460   N.2       1 RES1   0.0000
@<TRIPOS>BOND
     1     1     2    1
     2     2     3    1
     3     2     4    1
     4     4     5    1
     5     5     6    2
     6     6     7    1
     7     7     8    1
     8     7     9    2
     9     9    10    1
    10    10    11    2
    11    11    12    1
    12    12    13    1
    13    13    14    1
    14    14    15    1
    15    15    16    1
    16    16    17    2
    17    17    18    1
    18    18    19    1
    19    19    20    2
    20    20    21    1
    21    21    22    1
    22    22    23    2
    23    23    24    1
    24    24    25    1
    25    14    26    1
    26    26    27    2
    27    26    28    1
    28    12    29    2
    29    29     2    1
    30    11     5    1
    31    20    16    1
    32    25    21    2
@<TRIPOS>SUBSTRUCTURE
     1 RES1        1 GROUP             0 ****  ****    0  
@<TRIPOS>MOLECULE
ligand_5
    29    32     1     0     0
SMALL
USER_CHARGES
****
Generated from the CSD

@<TRIPOS>ATOM
     1 C1      14.0373 -15.5787   7.5456   C.3       1 RES1   0.0000
     2 C2      13.1090 -15.1662   8.6681   C.3       1 RES1   0.0000
     3 C3      13.8738 -15.1593  10.0127   C.3       1 RES1   0.0000
     4 C4      12.4808 -13.8016   8.4277   C.3       1 RES1   0.0000
     5 C5      11.5246 -13.8094   7.2666   C.2       1 RES1   0.0000
     6 C6      11.3032 -12.6854   6.4593   C.2       1 RES1   0.0000
     7 C7      10.3663 -12.8336   5.4609   C.2       1 RES1   0.0000
     8 Cl8     10.0706 -11.4266   4.4031   Cl        1 RES1   0.0000
     9 C9       9.6572 -14.0133   5.2315   C.2       1 RES1   0.0000
    10 C10      9.8525 -15.1409   6.0108   C.2       1 RES1   0.0000
    11 C11     10.7994 -15.0168   7.0326   C.2       1 RES1   0.0000
    12 C12     11.0556 -16.1314   7.9822   C.2       1 RES1   0.0000
    13 N13     10.1980 -17.1484   7.9739   N.2       1 RES1   0.0000
    14 C14     10.4101 -18.3875   8.7577   C.3       1 RES1   0.0000
    15 C15      9.2196 -18.7493   9.6720   C.3       1 RES1   0.0000
    16 C16      9.1858 -17.6282  10.7119   C.2       1 RES1   0.0000
    17 C17      8.2447 -16.5873  10.6821   C.2       1 RES1   0.0000
    18 S18      8.4943 -15.5762  12.0801   S.3       1 RES1   0.0000
    19 C19      9.8581 -16.3712  12.7906   C.2       1 RES1   0.0000
    20 C20     10.0931 -17.4479  11.9158   C.2       1 RES1   0.0000
    21 C21     11.1459 -18.4558  12.2815   C.2       1 RES1   0.0000
    22 C22     11.7998 -18.4329  13.5500   C.2       1 RES1   0.0000
    23 N23     12.6173 -19.5186  13.5762   N.2       1 RES1   0.0000
    24 N24     12.4500 -20.1909  12.3293   N.2       1 RES1   0.0000
    25 C25     11.5222 -19.5424  11.5318   C.2       1 RES1   0.0000
    26 C26     10.6529 -19.4709   7.7543   C.2       1 RES1   0.0000
    27 O27     10.2799 -19.3868   6.5807   O.co2     1 RES1   0.0000
    28 O28     11.1763 -20.5405   8.1297   O.co2     1 RES1  -1.0000
    29 N29     12.0764 -16.2328   8.7374   N.2       1 RES1   0.0000
@<TRIPOS>BOND
     1     1     2    1
     2     2     3    1
     3     2     4    1
     4     4     5    1
     5     5     6    2
     6     6     7    1
     7     7     8    1
     8     7     9    2
     9     9    10    1
    10    10    11    2
    11    11    12    1
    12    12    13    1
    13    13    14    1
    14    14    15    1
    15    15    16    1
    16    16    17    2
    17    17    18    1
    18    18    19    1
    19    19    20    2
    20    20    21    1
    21    21    22    1
    22    22    23    2
    23    23    24    1
    24    24    25    1
    25    14    26    1
    26    26    27    2
    27    26    28    1
    28    12    29    2
    29    29     2    1
    30    11     5    1
    31    20    16    1
    32    25    21    2
@<TRIPOS>SUBSTRUCTURE
     1 RES1        1 GROUP             0 ****  ****    0  
@<TRIPOS>MOLECULE
ligand_6
    29    32     1     0     0
SMALL
USER_CHARGES
****
Generated from the CSD

@<TRIPOS>ATOM
     1 C1      13.3551 -14.9785  10.4366   C.3       1 RES1   0.0000
     2 C2      12.1531 -14.7314   9.5479   C.3       1 RES1   0.0000
     3 C3      11.0002 -14.1400  10.3901   C.3       1 RES1   0.0000
     4 C4      12.5392 -13.8292   8.3914   C.3       1 RES1   0.0000
     5 C5      11.4686 -13.7797   7.3315   C.2       1 RES1   0.0000
     6 C6      11.2291 -12.6404   6.5510   C.2       1 RES1   0.0000
     7 C7      10.2467 -12.7631   5.5933   C.2       1 RES1   0.0000
     8 Cl8      9.8808 -11.3189   4.6105   Cl        1 RES1   0.0000
     9 C9       9.5120 -13.9305   5.3805   C.2       1 RES1   0.0000
    10 C10      9.7274 -15.0706   6.1366   C.2       1 RES1   0.0000
    11 C11     10.7210 -14.9701   7.1162   C.2       1 RES1   0.0000
    12 C12     11.0675 -16.1351   7.9738   C.2       1 RES1   0.0000
    13 N13     10.6236 -17.3379   7.6181   N.2       1 RES1   0.0000
    14 C14     10.8095 -18.5455   8.4558   C.3       1 RES1   0.0000
    15 C15      9.9042 -19.7265   8.0435   C.3       1 RES1   0.0000
    16 C16     10.4490 -20.1649   6.6832   C.2       1 RES1   0.0000
    17 C17     10.1190 -19.5157   5.4833   C.2       1 RES1   0.0000
    18 S18     11.0095 -20.2658   4.1859   S.3       1 RES1   0.0000
    19 C19     11.8375 -21.5071   5.0634   C.2       1 RES1   0.0000
    20 C20     11.4103 -21.3025   6.3884   C.2       1 RES1   0.0000
    21 C21     12.0278 -22.1304   7.4797   C.2       1 RES1   0.0000
    22 C22     13.2969 -22.7629   7.3165   C.2       1 RES1   0.0000
    23 N23     13.5864 -23.3482   8.5087   N.2       1 RES1   0.0000
    24 N24     12.4960 -23.0636   9.3833   N.2       1 RES1   0.0000
    25 C25     11.5362 -22.2912   8.7512   C.2       1 RES1   0.0000
    26 C26     12.2532 -18.9169   8.3253   C.2       1 RES1   0.0000
    27 O27     12.9422 -18.5804   7.3580   O.co2     1 RES1   0.0000
    28 O28     12.7671 -19.6678   9.1803   O.co2     1 RES1  -1.0000
    29 N29     11.6963 -16.0599   9.0815   N.2       1 RES1   0.0000
@<TRIPOS>BOND
     1     1     2    1
     2     2     3    1
     3     2     4    1
     4     4     5    1
     5     5     6    2
     6     6     7    1
     7     7     8    1
     8     7     9    2
     9     9    10    1
    10    10    11    2
    11    11    12    1
    12    12    13    1
    13    13    14    1
    14    14    15    1
    15    15    16    1
    16    16    17    2
    17    17    18    1
    18    18    19    1
    19    19    20    2
    20    20    21    1
    21    21    22    1
    22    22    23    2
    23    23    24    1
    24    24    25    1
    25    14    26    1
    26    26    27    2
    27    26    28    1
    28    12    29    2
    29    29     2    1
    30    11     5    1
    31    20    16    1
    32    25    21    2
@<TRIPOS>SUBSTRUCTURE
     1 RES1        1 GROUP             0 ****  ****    0  
@<TRIPOS>MOLECULE
ligand_7
    29    32     1     0     0
SMALL
USER_CHARGES
****
Generated from the CSD

@<TRIPOS>ATOM
     1 C1      13.2039 -14.9348  10.5403   C.3       1 RES1   0.0000
     2 C2      12.0312 -14.7081   9.6081   C.3       1 RES1   0.0000
     3 C3      10.8369 -14.1406  10.4081   C.3       1 RES1   0.0000
     4 C4      12.4427 -13.7958   8.4684   C.3       1 RES1   0.0000
     5 C5      11.4113 -13.7638   7.3696   C.2       1 RES1   0.0000
     6 C6      11.1795 -12.6271   6.5829   C.2       1 RES1   0.0000
     7 C7      10.2357 -12.7658   5.5892   C.2       1 RES1   0.0000
     8 Cl8      9.8793 -11.3262   4.5962   Cl        1 RES1   0.0000
     9 C9       9.5316 -13.9463   5.3472   C.2       1 RES1   0.0000
    10 C10      9.7403 -15.0841   6.1086   C.2       1 RES1   0.0000
    11 C11     10.6948 -14.9674   7.1246   C.2       1 RES1   0.0000
    12 C12     11.0313 -16.1279   7.9923   C.2       1 RES1   0.0000
    13 N13     10.6236 -17.3379   7.6181   N.2       1 RES1   0.0000
    14 C14     10.8095 -18.5455   8.4558   C.3       1 RES1   0.0000
    15 C15      9.9042 -19.7265   8.0435   C.3       1 RES1   0.0000
    16 C16     10.2750 -19.9971   6.5845   C.2       1 RES1   0.0000
    17 C17     11.3823 -20.7738   6.2095   C.2       1 RES1   0.0000
    18 S18     11.4012 -20.9068   4.4715   S.3       1 RES1   0.0000
    19 C19     10.0240 -19.9350   4.0773   C.2       1 RES1   0.0000
    20 C20      9.5492 -19.5259   5.3370   C.2       1 RES1   0.0000
    21 C21      8.2629 -18.7520   5.4048   C.2       1 RES1   0.0000
    22 C22      7.3310 -18.7472   4.3237   C.2       1 RES1   0.0000
    23 N23      6.2586 -18.0282   4.7491   N.2       1 RES1   0.0000
    24 N24      6.5464 -17.6077   6.0814   N.2       1 RES1   0.0000
    25 C25      7.7828 -18.0727   6.4967   C.2       1 RES1   0.0000
    26 C26     12.2532 -18.9169   8.3253   C.2       1 RES1   0.0000
    27 O27     12.9531 -18.5454   7.3788   O.co2     1 RES1   0.0000
    28 O28     12.7559 -19.7026   9.1554   O.co2     1 RES1  -1.0000
    29 N29     11.6171 -16.0437   9.1227   N.2       1 RES1   0.0000
@<TRIPOS>BOND
     1     1     2    1
     2     2     3    1
     3     2     4    1
     4     4     5    1
     5     5     6    2
     6     6     7    1
     7     7     8    1
     8     7     9    2
     9     9    10    1
    10    10    11    2
    11    11    12    1
    12    12    13    1
    13    13    14    1
    14    14    15    1
    15    15    16    1
    16    16    17    2
    17    17    18    1
    18    18    19    1
    19    19    20    2
    20    20    21    1
    21    21    22    1
    22    22    23    2
    23    23    24    1
    24    24    25    1
    25    14    26    1
    26    26    27    2
    27    26    28    1
    28    12    29    2
    29    29     2    1
    30    11     5    1
    31    20    16    1
    32    25    21    2
@<TRIPOS>SUBSTRUCTURE
     1 RES1        1 GROUP             0 ****  ****    0  
@<TRIPOS>MOLECULE
ligand_8
    29    32     1     0     0
SMALL
USER_CHARGES
****
Generated from the CSD

@<TRIPOS>ATOM
     1 C1      13.3002 -14.9598  10.4734   C.3       1 RES1   0.0000
     2 C2      12.1058 -14.7220   9.5720   C.3       1 RES1   0.0000
     3 C3      10.9378 -14.1445  10.4030   C.3       1 RES1   0.0000
     4 C4      12.4958 -13.8128   8.4224   C.3       1 RES1   0.0000
     5 C5      11.4366 -13.7708   7.3508   C.2       1 RES1   0.0000
     6 C6      11.1945 -12.6316   6.5708   C.2       1 RES1   0.0000
     7 C7      10.2241 -12.7612   5.6019   C.2       1 RES1   0.0000
     8 Cl8      9.8550 -11.3178   4.6190   Cl        1 RES1   0.0000
     9 C9       9.5034 -13.9352   5.3777   C.2       1 RES1   0.0000
    10 C10      9.7216 -15.0753   6.1330   C.2       1 RES1   0.0000
    11 C11     10.7032 -14.9678   7.1239   C.2       1 RES1   0.0000
    12 C12     11.0517 -16.1318   7.9821   C.2       1 RES1   0.0000
    13 N13     10.6236 -17.3379   7.6181   N.2       1 RES1   0.0000
    14 C14     10.8095 -18.5455   8.4558   C.3       1 RES1   0.0000
    15 C15      9.9042 -19.7265   8.0435   C.3       1 RES1   0.0000
    16 C16     10.2303 -20.8257   9.0559   C.2       1 RES1   0.0000
    17 C17      9.7102 -20.8416  10.3595   C.2       1 RES1   0.0000
    18 S18     10.2530 -22.2956  11.1534   S.3       1 RES1   0.0000
    19 C19     11.2341 -22.9777   9.9008   C.2       1 RES1   0.0000
    20 C20     11.1071 -22.0482   8.8522   C.2       1 RES1   0.0000
    21 C21     11.7333 -22.3707   7.5248   C.2       1 RES1   0.0000
    22 C22     12.1097 -23.7023   7.1752   C.2       1 RES1   0.0000
    23 N23     12.5578 -23.6468   5.8931   N.2       1 RES1   0.0000
    24 N24     12.4462 -22.2872   5.4758   N.2       1 RES1   0.0000
    25 C25     11.9164 -21.4971   6.4820   C.2       1 RES1   0.0000
    26 C26     12.2532 -18.9169   8.3253   C.2       1 RES1   0.0000
    27 O27     12.9362 -18.5999   7.3472   O.co2     1 RES1   0.0000
    28 O28     12.7733 -19.6483   9.1934   O.co2     1 RES1  -1.0000
    29 N29     11.6673 -16.0536   9.0969   N.2       1 RES1   0.0000
@<TRIPOS>BOND
     1     1     2    1
     2     2     3    1
     3     2     4    1
     4     4     5    1
     5     5     6    2
     6     6     7    1
     7     7     8    1
     8     7     9    2
     9     9    10    1
    10    10    11    2
    11    11    12    1
    12    12    13    1
    13    13    14    1
    14    14    15    1
    15    15    16    1
    16    16    17    2
    17    17    18    1
    18    18    19    1
    19    19    20    2
    20    20    21    1
    21    21    22    1
    22    22    23    2
    23    23    24    1
    24    24    25    1
    25    14    26    1
    26    26    27    2
    27    26    28    1
    28    12    29    2
    29    29     2    1
    30    11     5    1
    31    20    16    1
    32    25    21    2
@<TRIPOS>SUBSTRUCTURE
     1 RES1        1 GROUP             0 ****  ****    0  
@<TRIPOS>MOLECULE
ligand_9
    29    32     1     0     0
SMALL
USER_CHARGES
****
Generated from the CSD

@<TRIPOS>ATOM
     1 C1      14.0273 -15.5376   7.6135   C.3       1 RES1   0.0000
     2 C2      13.0763 -15.1380   8.7216   C.3       1 RES1   0.0000
     3 C3      13.8186 -15.1269  10.0787   C.3       1 RES1   0.0000
     4 C4      12.4379 -13.7794   8.4744   C.3       1 RES1   0.0000
     5 C5      11.5012 -13.7938   7.2976   C.2       1 RES1   0.0000
     6 C6      11.2815 -12.6699   6.4896   C.2       1 RES1   0.0000
     7 C7      10.3629 -12.8251   5.4754   C.2       1 RES1   0.0000
     8 Cl8     10.0701 -11.4182   4.4166   Cl        1 RES1   0.0000
     9 C9       9.6700 -14.0114   5.2311   C.2       1 RES1   0.0000
    10 C10      9.8642 -15.1391   6.0106   C.2       1 RES1   0.0000
    11 C11     10.7927 -15.0081   7.0484   C.2       1 RES1   0.0000
    12 C12     11.0447 -16.1225   7.9992   C.2       1 RES1   0.0000
    13 N13     10.1980 -17.1484   7.9739   N.2       1 RES1   0.0000
    14 C14     10.4101 -18.3875   8.7577   C.3       1 RES1   0.0000
    15 C15      9.2196 -18.7493   9.6720   C.3       1 RES1   0.0000
    16 C16      9.1684 -17.6135  10.6951   C.2       1 RES1   0.0000
    17 C17      9.9606 -17.5931  11.8535   C.2       1 RES1   0.0000
    18 S18      9.6652 -16.0975  12.6990   S.3       1 RES1   0.0000
    19 C19      8.4637 -15.3976  11.6679   C.2       1 RES1   0.0000
    20 C20      8.3199 -16.3554  10.6471   C.2       1 RES1   0.0000
    21 C21      7.4332 -16.0332   9.4776   C.2       1 RES1   0.0000
    22 C22      6.9393 -14.7136   9.2501   C.2       1 RES1   0.0000
    23 N23      6.2519 -14.7614   8.0784   N.2       1 RES1   0.0000
    24 N24      6.3376 -16.1042   7.6046   N.2       1 RES1   0.0000
    25 C25      7.0871 -16.8906   8.4631   C.2       1 RES1   0.0000
    26 C26     10.6529 -19.4709   7.7543   C.2       1 RES1   0.0000
    27 O27     10.7973 -19.2423   6.5499   O.co2     1 RES1   0.0000
    28 O28     10.6249 -20.6620   8.1275   O.co2     1 RES1  -1.0000
    29 N29     12.0538 -16.2155   8.7709   N.2       1 RES1   0.0000
@<TRIPOS>BOND
     1     1     2    1
     2     2     3    1
     3     2     4    1
     4     4     5    1
     5     5     6    2
     6     6     7    1
     7     7     8    1
     8     7     9    2
     9     9    10    1
    10    10    11    2
    11    11    12    1
    12    12    13    1
    13    13    14    1
    14    14    15    1
    15    15    16    1
    16    16    17    2
    17    17    18    1
    18    18    19    1
    19    19    20    2
    20    20    21    1
    21    21    22    1
    22    22    23    2
    23    23    24    1
    24    24    25    1
    25    14    26    1
    26    26    27    2
    27    26    28    1
    28    12    29    2
    29    29     2    1
    30    11     5    1
    31    20    16    1
    32    25    21    2
@<TRIPOS>SUBSTRUCTURE
     1 RES1        1 GROUP             0 ****  ****    0  
@<TRIPOS>MOLECULE
ligand_10
    29    32     1     0     0
SMALL
USER_CHARGES
****
Generated from the CSD

@<TRIPOS>ATOM
     1 C1      13.3760 -14.9801  10.4176   C.3       1 RES1   0.0000
     2 C2      12.1639 -14.7338   9.5426   C.3       1 RES1   0.0000
     3 C3      11.0177 -14.1501  10.3993   C.3       1 RES1   0.0000
     4 C4      12.5346 -13.8255   8.3859   C.3       1 RES1   0.0000
     5 C5      11.4527 -13.7755   7.3375   C.2       1 RES1   0.0000
     6 C6      11.2010 -12.6339   6.5642   C.2       1 RES1   0.0000
     7 C7      10.2091 -12.7562   5.6164   C.2       1 RES1   0.0000
     8 Cl8      9.8278 -11.3093   4.6434   Cl        1 RES1   0.0000
     9 C9       9.4764 -13.9254   5.4064   C.2       1 RES1   0.0000
    10 C10      9.7038 -15.0678   6.1555   C.2       1 RES1   0.0000
    11 C11     10.7072 -14.9677   7.1250   C.2       1 RES1   0.0000
    12 C12     11.0669 -16.1350   7.9742   C.2       1 RES1   0.0000
    13 N13     10.6236 -17.3379   7.6181   N.2       1 RES1   0.0000
    14 C14     10.8095 -18.5455   8.4558   C.3       1 RES1   0.0000
    15 C15      9.4945 -19.2993   8.7503   C.3       1 RES1   0.0000
    16 C16      9.9170 -20.4616   9.6502   C.2       1 RES1   0.0000
    17 C17     10.1741 -20.3108  11.0218   C.2       1 RES1   0.0000
    18 S18     10.5393 -21.8784  11.6913   S.3       1 RES1   0.0000
    19 C19     10.4456 -22.8491  10.2611   C.2       1 RES1   0.0000
    20 C20     10.1064 -21.9173   9.2629   C.2       1 RES1   0.0000
    21 C21      9.8105 -22.4212   7.8785   C.2       1 RES1   0.0000
    22 C22      9.4929 -23.7902   7.6290   C.2       1 RES1   0.0000
    23 N23      9.2029 -23.8780   6.3039   N.2       1 RES1   0.0000
    24 N24      9.3427 -22.5653   5.7633   N.2       1 RES1   0.0000
    25 C25      9.7015 -21.6561   6.7441   C.2       1 RES1   0.0000
    26 C26     11.7633 -19.4217   7.7063   C.2       1 RES1   0.0000
    27 O27     11.9016 -19.3599   6.4813   O.co2     1 RES1   0.0000
    28 O28     12.3848 -20.3112   8.3240   O.co2     1 RES1  -1.0000
    29 N29     11.7070 -16.0620   9.0755   N.2       1 RES1   0.0000
@<TRIPOS>BOND
     1     1     2    1
     2     2     3    1
     3     2     4    1
     4     4     5    1
     5     5     6    2
     6     6     7    1
     7     7     8    1
     8     7     9    2
     9     9    10    1
    10    10    11    2
    11    11    12    1
    12    12    13    1
    13    13    14    1
    14    14    15    1
    15    15    16    1
    16    16    17    2
    17    17    18    1
    18    18    19    1
    19    19    20    2
    20    20    21    1
    21    21    22    1
    22    22    23    2
    23    23    24    1
    24    24    25    1
    25    14    26    1
    26    26    27    2
    27    26    28    1
    28    12    29    2
    29    29     2    1
    30    11     5    1
    31    20    16    1
    32    25    21    2
@<TRIPOS>SUBSTRUCTURE
     1 RES1        1 GROUP             0 ****  ****    0  
@<TRIPOS>MOLECULE
ligand_11
    29    32     1     0     0
SMALL
USER_CHARGES
****
Generated from the CSD

@<TRIPOS>ATOM
     1 C1      13.3002 -14.9600  10.4735   C.3       1 RES1   0.0000
     2 C2      12.1060 -14.7221   9.5719   C.3       1 RES1   0.0000
     3 C3      10.9380 -14.1441  10.4025   C.3       1 RES1   0.0000
     4 C4      12.4964 -13.8131   8.4222   C.3       1 RES1   0.0000
     5 C5      11.4374 -13.7710   7.3504   C.2       1 RES1   0.0000
     6 C6      11.1958 -12.6319   6.5701   C.2       1 RES1   0.0000
     7 C7      10.2255 -12.7614   5.6011   C.2       1 RES1   0.0000
     8 Cl8      9.8570 -11.3181   4.6179   Cl        1 RES1   0.0000
     9 C9       9.5046 -13.9353   5.3770   C.2       1 RES1   0.0000
    10 C10      9.7224 -15.0753   6.1325   C.2       1 RES1   0.0000
    11 C11     10.7038 -14.9679   7.1235   C.2       1 RES1   0.0000
    12 C12     11.0519 -16.1319   7.9820   C.2       1 RES1   0.0000
    13 N13     10.6236 -17.3379   7.6181   N.2       1 RES1   0.0000
    14 C14     10.8095 -18.5455   8.4558   C.3       1 RES1   0.0000
    15 C15      9.9042 -19.7265   8.0435   C.3       1 RES1   0.0000
    16 C16     10.1665 -20.7945   9.1065   C.2       1 RES1   0.0000
    17 C17     10.9204 -21.9517   8.8564   C.2       1 RES1   0.0000
    18 S18     11.0522 -22.8571  10.3403   S.3       1 RES1   0.0000
    19 C19     10.1086 -21.8566  11.3916   C.2       1 RES1   0.0000
    20 C20      9.7097 -20.7984  10.5544   C.2       1 RES1   0.0000
    21 C21      8.9623 -19.6439  11.1600   C.2       1 RES1   0.0000
    22 C22      8.8256 -19.4955  12.5729   C.2       1 RES1   0.0000
    23 N23      8.1770 -18.3174  12.7707   N.2       1 RES1   0.0000
    24 N24      7.9301 -17.7611  11.4806   N.2       1 RES1   0.0000
    25 C25      8.4343 -18.5748  10.4801   C.2       1 RES1   0.0000
    26 C26     12.2532 -18.9169   8.3253   C.2       1 RES1   0.0000
    27 O27     12.9372 -18.5965   7.3490   O.co2     1 RES1   0.0000
    28 O28     12.7722 -19.6517   9.1912   O.co2     1 RES1  -1.0000
    29 N29     11.6674 -16.0536   9.0969   N.2       1 RES1   0.0000
@<TRIPOS>BOND
     1     1     2    1
     2     2     3    1
     3     2     4    1
     4     4     5    1
     5     5     6    2
     6     6     7    1
     7     7     8    1
     8     7     9    2
     9     9    10    1
    10    10    11    2
    11    11    12    1
    12    12    13    1
    13    13    14    1
    14    14    15    1
    15    15    16    1
    16    16    17    2
    17    17    18    1
    18    18    19    1
    19    19    20    2
    20    20    21    1
    21    21    22    1
    22    22    23    2
    23    23    24    1
    24    24    25    1
    25    14    26    1
    26    26    27    2
    27    26    28    1
    28    12    29    2
    29    29     2    1
    30    11     5    1
    31    20    16    1
    32    25    21    2
@<TRIPOS>SUBSTRUCTURE
     1 RES1        1 GROUP             0 ****  ****    0  
@<TRIPOS>MOLECULE
ligand_12
    29    32     1     0     0
SMALL
USER_CHARGES
****
Generated from the CSD

@<TRIPOS>ATOM
     1 C1      14.0032 -15.4516   7.8026   C.3       1 RES1   0.0000
     2 C2      12.9871 -15.0687   8.8575   C.3       1 RES1   0.0000
     3 C3      13.6575 -15.0339  10.2511   C.3       1 RES1   0.0000
     4 C4      12.3317 -13.7263   8.5694   C.3       1 RES1   0.0000
     5 C5      11.4579 -13.7680   7.3458   C.2       1 RES1   0.0000
     6 C6      11.2549 -12.6533   6.5208   C.2       1 RES1   0.0000
     7 C7      10.3938 -12.8345   5.4614   C.2       1 RES1   0.0000
     8 Cl8     10.1244 -11.4398   4.3804   Cl        1 RES1   0.0000
     9 C9       9.7418 -14.0376   5.1887   C.2       1 RES1   0.0000
    10 C10      9.9209 -15.1568   5.9840   C.2       1 RES1   0.0000
    11 C11     10.7910 -14.9994   7.0676   C.2       1 RES1   0.0000
    12 C12     11.0187 -16.1032   8.0368   C.2       1 RES1   0.0000
    13 N13     10.1980 -17.1484   7.9739   N.2       1 RES1   0.0000
    14 C14     10.4101 -18.3875   8.7577   C.3       1 RES1   0.0000
    15 C15      9.1376 -19.2502   8.9023   C.3       1 RES1   0.0000
    16 C16      8.1818 -18.3816   9.7217   C.2       1 RES1   0.0000
    17 C17      8.2583 -18.2711  11.1189   C.2       1 RES1   0.0000
    18 S18      7.0548 -17.1270  11.6496   S.3       1 RES1   0.0000
    19 C19      6.3182 -16.7351  10.1329   C.2       1 RES1   0.0000
    20 C20      7.0500 -17.5074   9.2121   C.2       1 RES1   0.0000
    21 C21      6.7729 -17.3327   7.7455   C.2       1 RES1   0.0000
    22 C22      6.1419 -16.1589   7.2346   C.2       1 RES1   0.0000
    23 N23      6.1246 -16.2943   5.8822   N.2       1 RES1   0.0000
    24 N24      6.7466 -17.5431   5.5849   N.2       1 RES1   0.0000
    25 C25      7.1668 -18.1803   6.7402   C.2       1 RES1   0.0000
    26 C26     11.4834 -19.1464   8.0426   C.2       1 RES1   0.0000
    27 O27     12.4601 -18.5933   7.5290   O.co2     1 RES1   0.0000
    28 O28     11.3517 -20.3773   7.8796   O.co2     1 RES1  -1.0000
    29 N29     11.9883 -16.1691   8.8603   N.2       1 RES1   0.0000
@<TRIPOS>BOND
     1     1     2    1
     2     2     3    1
     3     2     4    1
     4     4     5    1
     5     5     6    2
     6     6     7    1
     7     7     8    1
     8     7     9    2
     9     9    10    1
    10    10    11    2
    11    11    12    1
    12    12    13    1
    13    13    14    1
    14    14    15    1
    15    15    16    1
    16    16    17    2
    17    17    18    1
    18    18    19    1
    19    19    20    2
    20    20    21    1
    21    21    22    1
    22    22    23    2
    23    23    24    1
    24    24    25    1
    25    14    26    1
    26    26    27    2
    27    26    28    1
    28    12    29    2
    29    29     2    1
    30    11     5    1
    31    20    16    1
    32    25    21    2
@<TRIPOS>SUBSTRUCTURE
     1 RES1        1 GROUP             0 ****  ****    0  
@<TRIPOS>MOLECULE
ligand_13
    29    32     1     0     0
SMALL
USER_CHARGES
****
Generated from the CSD

@<TRIPOS>ATOM
     1 C1      13.3002 -14.9598  10.4734   C.3       1 RES1   0.0000
     2 C2      12.1058 -14.7220   9.5720   C.3       1 RES1   0.0000
     3 C3      10.9378 -14.1445  10.4030   C.3       1 RES1   0.0000
     4 C4      12.4958 -13.8128   8.4224   C.3       1 RES1   0.0000
     5 C5      11.4366 -13.7708   7.3508   C.2       1 RES1   0.0000
     6 C6      11.1946 -12.6316   6.5708   C.2       1 RES1   0.0000
     7 C7      10.2241 -12.7612   5.6019   C.2       1 RES1   0.0000
     8 Cl8      9.8550 -11.3179   4.6190   Cl        1 RES1   0.0000
     9 C9       9.5034 -13.9352   5.3777   C.2       1 RES1   0.0000
    10 C10      9.7217 -15.0753   6.1330   C.2       1 RES1   0.0000
    11 C11     10.7032 -14.9678   7.1239   C.2       1 RES1   0.0000
    12 C12     11.0517 -16.1318   7.9821   C.2       1 RES1   0.0000
    13 N13     10.6236 -17.3379   7.6181   N.2       1 RES1   0.0000
    14 C14     10.8095 -18.5455   8.4558   C.3       1 RES1   0.0000
    15 C15      9.9042 -19.7265   8.0435   C.3       1 RES1   0.0000
    16 C16      8.4817 -19.2029   8.2473   C.2       1 RES1   0.0000
    17 C17      8.1883 -18.0732   9.0269   C.2       1 RES1   0.0000
    18 S18      6.4751 -17.7654   8.9315   S.3       1 RES1   0.0000
    19 C19      5.9840 -19.0884   7.9290   C.2       1 RES1   0.0000
    20 C20      7.1938 -19.7560   7.6637   C.2       1 RES1   0.0000
    21 C21      7.1831 -20.9102   6.7016   C.2       1 RES1   0.0000
    22 C22      6.0451 -21.2024   5.8913   C.2       1 RES1   0.0000
    23 N23      6.4045 -22.2406   5.0908   N.2       1 RES1   0.0000
    24 N24      7.7543 -22.5658   5.4185   N.2       1 RES1   0.0000
    25 C25      8.2452 -21.7278   6.4054   C.2       1 RES1   0.0000
    26 C26     12.2532 -18.9169   8.3253   C.2       1 RES1   0.0000
    27 O27     12.9489 -18.5586   7.3707   O.co2     1 RES1   0.0000
    28 O28     12.7602 -19.6895   9.1650   O.co2     1 RES1  -1.0000
    29 N29     11.6673 -16.0536   9.0969   N.2       1 RES1   0.0000
@<TRIPOS>BOND
     1     1     2    1
     2     2     3    1
     3     2     4    1
     4     4     5    1
     5     5     6    2
     6     6     7    1
     7     7     8    1
     8     7     9    2
     9     9    10    1
    10    10    11    2
    11    11    12    1
    12    12    13    1
    13    13    14    1
    14    14    15    1
    15    15    16    1
    16    16    17    2
    17    17    18    1
    18    18    19    1
    19    19    20    2
    20    20    21    1
    21    21    22    1
    22    22    23    2
    23    23    24    1
    24    24    25    1
    25    14    26    1
    26    26    27    2
    27    26    28    1
    28    12    29    2
    29    29     2    1
    30    11     5    1
    31    20    16    1
    32    25    21    2
@<TRIPOS>SUBSTRUCTURE
     1 RES1        1 GROUP             0 ****  ****    0  
@<TRIPOS>MOLECULE
ligand_14
    29    32     1     0     0
SMALL
USER_CHARGES
****
Generated from the CSD

@<TRIPOS>ATOM
     1 C1      13.2996 -14.9599  10.4739   C.3       1 RES1   0.0000
     2 C2      12.1056 -14.7220   9.5721   C.3       1 RES1   0.0000
     3 C3      10.9374 -14.1440  10.4025   C.3       1 RES1   0.0000
     4 C4      12.4962 -13.8130   8.4225   C.3       1 RES1   0.0000
     5 C5      11.4374 -13.7710   7.3504   C.2       1 RES1   0.0000
     6 C6      11.1959 -12.6319   6.5701   C.2       1 RES1   0.0000
     7 C7      10.2258 -12.7615   5.6009   C.2       1 RES1   0.0000
     8 Cl8      9.8574 -11.3182   4.6176   Cl        1 RES1   0.0000
     9 C9       9.5050 -13.9353   5.3767   C.2       1 RES1   0.0000
    10 C10      9.7227 -15.0754   6.1323   C.2       1 RES1   0.0000
    11 C11     10.7039 -14.9679   7.1235   C.2       1 RES1   0.0000
    12 C12     11.0518 -16.1318   7.9820   C.2       1 RES1   0.0000
    13 N13     10.6236 -17.3379   7.6181   N.2       1 RES1   0.0000
    14 C14     10.8095 -18.5455   8.4558   C.3       1 RES1   0.0000
    15 C15      9.9042 -19.7265   8.0435   C.3       1 RES1   0.0000
    16 C16      8.5064 -19.3121   8.5059   C.2       1 RES1   0.0000
    17 C17      8.2004 -18.0138   8.9427   C.2       1 RES1   0.0000
    18 S18      6.4948 -17.9368   9.2950   S.3       1 RES1   0.0000
    19 C19      6.0417 -19.5743   8.9634   C.2       1 RES1   0.0000
    20 C20      7.2520 -20.1659   8.5573   C.2       1 RES1   0.0000
    21 C21      7.2288 -21.5834   8.0593   C.2       1 RES1   0.0000
    22 C22      6.0084 -22.3094   7.9154   C.2       1 RES1   0.0000
    23 N23      6.3415 -23.5092   7.3702   N.2       1 RES1   0.0000
    24 N24      7.7559 -23.4994   7.1850   N.2       1 RES1   0.0000
    25 C25      8.3058 -22.2966   7.5950   C.2       1 RES1   0.0000
    26 C26     12.2532 -18.9169   8.3253   C.2       1 RES1   0.0000
    27 O27     12.9489 -18.5586   7.3707   O.co2     1 RES1   0.0000
    28 O28     12.7602 -19.6895   9.1650   O.co2     1 RES1  -1.0000
    29 N29     11.6671 -16.0535   9.0971   N.2       1 RES1   0.0000
@<TRIPOS>BOND
     1     1     2    1
     2     2     3    1
     3     2     4    1
     4     4     5    1
     5     5     6    2
     6     6     7    1
     7     7     8    1
     8     7     9    2
     9     9    10    1
    10    10    11    2
    11    11    12    1
    12    12    13    1
    13    13    14    1
    14    14    15    1
    15    15    16    1
    16    16    17    2
    17    17    18    1
    18    18    19    1
    19    19    20    2
    20    20    21    1
    21    21    22    1
    22    22    23    2
    23    23    24    1
    24    24    25    1
    25    14    26    1
    26    26    27    2
    27    26    28    1
    28    12    29    2
    29    29     2    1
    30    11     5    1
    31    20    16    1
    32    25    21    2
@<TRIPOS>SUBSTRUCTURE
     1 RES1        1 GROUP             0 ****  ****    0  
@<TRIPOS>MOLECULE
ligand_15
    29    32     1     0     0
SMALL
USER_CHARGES
****
Generated from the CSD

@<TRIPOS>ATOM
     1 C1      14.0226 -15.5195   7.6464   C.3       1 RES1   0.0000
     2 C2      13.0605 -15.1250   8.7466   C.3       1 RES1   0.0000
     3 C3      13.7913 -15.1111  10.1099   C.3       1 RES1   0.0000
     4 C4      12.4179 -13.7692   8.4947   C.3       1 RES1   0.0000
     5 C5      11.4911 -13.7874   7.3102   C.2       1 RES1   0.0000
     6 C6      11.2729 -12.6641   6.5009   C.2       1 RES1   0.0000
     7 C7      10.3635 -12.8230   5.4790   C.2       1 RES1   0.0000
     8 Cl8     10.0730 -11.4170   4.4185   Cl        1 RES1   0.0000
     9 C9       9.6783 -14.0124   5.2284   C.2       1 RES1   0.0000
    10 C10      9.8712 -15.1396   6.0089   C.2       1 RES1   0.0000
    11 C11     10.7904 -15.0048   7.0544   C.2       1 RES1   0.0000
    12 C12     11.0396 -16.1186   8.0067   C.2       1 RES1   0.0000
    13 N13     10.1980 -17.1484   7.9739   N.2       1 RES1   0.0000
    14 C14     10.4101 -18.3875   8.7577   C.3       1 RES1   0.0000
    15 C15      9.2196 -18.7493   9.6720   C.3       1 RES1   0.0000
    16 C16      8.0866 -19.0897   8.7025   C.2       1 RES1   0.0000
    17 C17      7.2875 -18.1125   8.0889   C.2       1 RES1   0.0000
    18 S18      6.1805 -18.9067   7.0013   S.3       1 RES1   0.0000
    19 C19      6.6124 -20.5594   7.2814   C.2       1 RES1   0.0000
    20 C20      7.6489 -20.4639   8.2281   C.2       1 RES1   0.0000
    21 C21      8.3746 -21.7169   8.6298   C.2       1 RES1   0.0000
    22 C22      8.3841 -22.8784   7.8005   C.2       1 RES1   0.0000
    23 N23      9.1917 -23.7805   8.4184   N.2       1 RES1   0.0000
    24 N24      9.6668 -23.1592   9.6113   N.2       1 RES1   0.0000
    25 C25      9.1752 -21.8706   9.7342   C.2       1 RES1   0.0000
    26 C26     10.6529 -19.4709   7.7543   C.2       1 RES1   0.0000
    27 O27     10.2539 -19.3998   6.5884   O.co2     1 RES1   0.0000
    28 O28     11.2047 -20.5283   8.1235   O.co2     1 RES1  -1.0000
    29 N29     12.0427 -16.2072   8.7868   N.2       1 RES1   0.0000
@<TRIPOS>BOND
     1     1     2    1
     2     2     3    1
     3     2     4    1
     4     4     5    1
     5     5     6    2
     6     6     7    1
     7     7     8    1
     8     7     9    2
     9     9    10    1
    10    10    11    2
    11    11    12    1
    12    12    13    1
    13    13    14    1
    14    14    15    1
    15    15    16    1
    16    16    17    2
    17    17    18    1
    18    18    19    1
    19    19    20    2
    20    20    21    1
    21    21    22    1
    22    22    23    2
    23    23    24    1
    24    24    25    1
    25    14    26    1
    26    26    27    2
    27    26    28    1
    28    12    29    2
    29    29     2    1
    30    11     5    1
    31    20    16    1
    32    25    21    2
@<TRIPOS>SUBSTRUCTURE
     1 RES1        1 GROUP             0 ****  ****    0  
@<TRIPOS>MOLECULE
ligand_16
    29    32     1     0     0
SMALL
USER_CHARGES
****
Generated from the CSD

@<TRIPOS>ATOM
     1 C1      14.0368 -15.5774   7.5456   C.3       1 RES1   0.0000
     2 C2      13.1087 -15.1659   8.6686   C.3       1 RES1   0.0000
     3 C3      13.8738 -15.1596  10.0130   C.3       1 RES1   0.0000
     4 C4      12.4801 -13.8013   8.4291   C.3       1 RES1   0.0000
     5 C5      11.5236 -13.8087   7.2683   C.2       1 RES1   0.0000
     6 C6      11.3018 -12.6842   6.4617   C.2       1 RES1   0.0000
     7 C7      10.3646 -12.8321   5.4634   C.2       1 RES1   0.0000
     8 Cl8     10.0683 -11.4244   4.4066   Cl        1 RES1   0.0000
     9 C9       9.6557 -14.0118   5.2335   C.2       1 RES1   0.0000
    10 C10      9.8516 -15.1398   6.0121   C.2       1 RES1   0.0000
    11 C11     10.7987 -15.0161   7.0337   C.2       1 RES1   0.0000
    12 C12     11.0554 -16.1311   7.9826   C.2       1 RES1   0.0000
    13 N13     10.1980 -17.1484   7.9739   N.2       1 RES1   0.0000
    14 C14     10.4101 -18.3875   8.7577   C.3       1 RES1   0.0000
    15 C15      9.2196 -18.7493   9.6720   C.3       1 RES1   0.0000
    16 C16      8.0451 -18.9345   8.7098   C.2       1 RES1   0.0000
    17 C17      7.7831 -20.1446   8.0489   C.2       1 RES1   0.0000
    18 S18      6.3185 -19.9620   7.1211   S.3       1 RES1   0.0000
    19 C19      5.9488 -18.3051   7.4598   C.2       1 RES1   0.0000
    20 C20      6.9879 -17.9151   8.3248   C.2       1 RES1   0.0000
    21 C21      6.9348 -16.5462   8.9422   C.2       1 RES1   0.0000
    22 C22      5.7298 -15.7818   8.9728   C.2       1 RES1   0.0000
    23 N23      6.0152 -14.6496   9.6686   N.2       1 RES1   0.0000
    24 N24      7.3851 -14.7381  10.0565   N.2       1 RES1   0.0000
    25 C25      7.9522 -15.9243   9.6223   C.2       1 RES1   0.0000
    26 C26     10.6529 -19.4709   7.7543   C.2       1 RES1   0.0000
    27 O27     10.2856 -19.3841   6.5791   O.co2     1 RES1   0.0000
    28 O28     11.1701 -20.5430   8.1310   O.co2     1 RES1  -1.0000
    29 N29     12.0764 -16.2328   8.7375   N.2       1 RES1   0.0000
@<TRIPOS>BOND
     1     1     2    1
     2     2     3    1
     3     2     4    1
     4     4     5    1
     5     5     6    2
     6     6     7    1
     7     7     8    1
     8     7     9    2
     9     9    10    1
    10    10    11    2
    11    11    12    1
    12    12    13    1
    13    13    14    1
    14    14    15    1
    15    15    16    1
    16    16    17    2
    17    17    18    1
    18    18    19    1
    19    19    20    2
    20    20    21    1
    21    21    22    1
    22    22    23    2
    23    23    24    1
    24    24    25    1
    25    14    26    1
    26    26    27    2
    27    26    28    1
    28    12    29    2
    29    29     2    1
    30    11     5    1
    31    20    16    1
    32    25    21    2
@<TRIPOS>SUBSTRUCTURE
     1 RES1        1 GROUP             0 ****  ****    0  
@<TRIPOS>MOLECULE
ligand_17
    29    32     1     0     0
SMALL
USER_CHARGES
****
Generated from the CSD

@<TRIPOS>ATOM
     1 C1      14.0261 -15.5600   7.5151   C.3       1 RES1   0.0000
     2 C2      13.1136 -15.1694   8.6581   C.3       1 RES1   0.0000
     3 C3      13.8983 -15.1828   9.9911   C.3       1 RES1   0.0000
     4 C4      12.4781 -13.8029   8.4501   C.3       1 RES1   0.0000
     5 C5      11.5047 -13.7940   7.3034   C.2       1 RES1   0.0000
     6 C6      11.2681 -12.6572   6.5185   C.2       1 RES1   0.0000
     7 C7      10.3168 -12.7915   5.5318   C.2       1 RES1   0.0000
     8 Cl8     10.0015 -11.3677   4.5025   Cl        1 RES1   0.0000
     9 C9       9.6076 -13.9692   5.2931   C.2       1 RES1   0.0000
    10 C10      9.8177 -15.1092   6.0503   C.2       1 RES1   0.0000
    11 C11     10.7794 -14.9995   7.0599   C.2       1 RES1   0.0000
    12 C12     11.0528 -16.1291   7.9866   C.2       1 RES1   0.0000
    13 N13     10.1980 -17.1484   7.9739   N.2       1 RES1   0.0000
    14 C14     10.5437 -18.4962   8.4826   C.3       1 RES1   0.0000
    15 C15      9.3131 -19.3952   8.7307   C.3       1 RES1   0.0000
    16 C16      8.5557 -18.6975   9.8616   C.2       1 RES1   0.0000
    17 C17      7.6235 -17.6724   9.6375   C.2       1 RES1   0.0000
    18 S18      6.9294 -17.2120  11.1689   S.3       1 RES1   0.0000
    19 C19      7.8132 -18.2562  12.2295   C.2       1 RES1   0.0000
    20 C20      8.6434 -18.9769  11.3514   C.2       1 RES1   0.0000
    21 C21      9.4852 -20.0904  11.9077   C.2       1 RES1   0.0000
    22 C22      9.1996 -20.6888  13.1717   C.2       1 RES1   0.0000
    23 N23     10.0923 -21.7027  13.3228   N.2       1 RES1   0.0000
    24 N24     10.9065 -21.7134  12.1516   N.2       1 RES1   0.0000
    25 C25     10.5181 -20.7246  11.2634   C.2       1 RES1   0.0000
    26 C26     11.4428 -19.1049   7.4529   C.2       1 RES1   0.0000
    27 O27     11.4637 -18.7242   6.2789   O.co2     1 RES1   0.0000
    28 O28     12.1401 -20.0931   7.7630   O.co2     1 RES1  -1.0000
    29 N29     12.0851 -16.2401   8.7247   N.2       1 RES1   0.0000
@<TRIPOS>BOND
     1     1     2    1
     2     2     3    1
     3     2     4    1
     4     4     5    1
     5     5     6    2
     6     6     7    1
     7     7     8    1
     8     7     9    2
     9     9    10    1
    10    10    11    2
    11    11    12    1
    12    12    13    1
    13    13    14    1
    14    14    15    1
    15    15    16    1
    16    16    17    2
    17    17    18    1
    18    18    19    1
    19    19    20    2
    20    20    21    1
    21    21    22    1
    22    22    23    2
    23    23    24    1
    24    24    25    1
    25    14    26    1
    26    26    27    2
    27    26    28    1
    28    12    29    2
    29    29     2    1
    30    11     5    1
    31    20    16    1
    32    25    21    2
@<TRIPOS>SUBSTRUCTURE
     1 RES1        1 GROUP             0 ****  ****    0  
@<TRIPOS>MOLECULE
ligand_18
    29    32     1     0     0
SMALL
USER_CHARGES
****
Generated from the CSD

@<TRIPOS>ATOM
     1 C1      14.0022 -15.4876   7.5768   C.3       1 RES1   0.0000
     2 C2      13.0669 -15.1200   8.7090   C.3       1 RES1   0.0000
     3 C3      13.8332 -15.1263  10.0527   C.3       1 RES1   0.0000
     4 C4      12.4092 -13.7643   8.4994   C.3       1 RES1   0.0000
     5 C5      11.4518 -13.7669   7.3393   C.2       1 RES1   0.0000
     6 C6      11.2052 -12.6304   6.5572   C.2       1 RES1   0.0000
     7 C7      10.2703 -12.7766   5.5566   C.2       1 RES1   0.0000
     8 Cl8      9.9430 -11.3532   4.5305   Cl        1 RES1   0.0000
     9 C9       9.5863 -13.9659   5.3019   C.2       1 RES1   0.0000
    10 C10      9.8069 -15.1059   6.0559   C.2       1 RES1   0.0000
    11 C11     10.7523 -14.9842   7.0794   C.2       1 RES1   0.0000
    12 C12     11.0336 -16.1136   8.0039   C.2       1 RES1   0.0000
    13 N13     10.1980 -17.1484   7.9739   N.2       1 RES1   0.0000
    14 C14     10.2267 -18.2366   8.9788   C.3       1 RES1   0.0000
    15 C15      8.9344 -19.0812   9.0092   C.3       1 RES1   0.0000
    16 C16      7.8537 -18.1040   9.4744   C.2       1 RES1   0.0000
    17 C17      7.1530 -17.2648   8.5941   C.2       1 RES1   0.0000
    18 S18      5.9606 -16.3788   9.5063   S.3       1 RES1   0.0000
    19 C19      6.2956 -16.9695  11.0987   C.2       1 RES1   0.0000
    20 C20      7.3452 -17.8824  10.8877   C.2       1 RES1   0.0000
    21 C21      7.8293 -18.7036  12.0493   C.2       1 RES1   0.0000
    22 C22      7.0408 -18.8790  13.2260   C.2       1 RES1   0.0000
    23 N23      7.7337 -19.7335  14.0244   N.2       1 RES1   0.0000
    24 N24      8.9308 -20.0712  13.3260   N.2       1 RES1   0.0000
    25 C25      8.9824 -19.4472  12.0910   C.2       1 RES1   0.0000
    26 C26     11.4056 -19.0885   8.6272   C.2       1 RES1   0.0000
    27 O27     11.9007 -19.1058   7.4966   O.co2     1 RES1   0.0000
    28 O28     11.8596 -19.8794   9.4800   O.co2     1 RES1  -1.0000
    29 N29     12.0574 -16.2098   8.7557   N.2       1 RES1   0.0000
@<TRIPOS>BOND
     1     1     2    1
     2     2     3    1
     3     2     4    1
     4     4     5    1
     5     5     6    2
     6     6     7    1
     7     7     8    1
     8     7     9    2
     9     9    10    1
    10    10    11    2
    11    11    12    1
    12    12    13    1
    13    13    14    1
    14    14    15    1
    15    15    16    1
    16    16    17    2
    17    17    18    1
    18    18    19    1
    19    19    20    2
    20    20    21    1
    21    21    22    1
    22    22    23    2
    23    23    24    1
    24    24    25    1
    25    14    26    1
    26    26    27    2
    27    26    28    1
    28    12    29    2
    29    29     2    1
    30    11     5    1
    31    20    16    1
    32    25    21    2
@<TRIPOS>SUBSTRUCTURE
     1 RES1        1 GROUP             0 ****  ****    0  
@<TRIPOS>MOLECULE
ligand_19
    29    32     1     0     0
SMALL
USER_CHARGES
****
Generated from the CSD

@<TRIPOS>ATOM
     1 C1      13.3370 -14.9699  10.4468   C.3       1 RES1   0.0000
     2 C2      12.1344 -14.7277   9.5577   C.3       1 RES1   0.0000
     3 C3      10.9768 -14.1464  10.4005   C.3       1 RES1   0.0000
     4 C4      12.5158 -13.8195   8.4044   C.3       1 RES1   0.0000
     5 C5      11.4460 -13.7735   7.3436   C.2       1 RES1   0.0000
     6 C6      11.2000 -12.6332   6.5664   C.2       1 RES1   0.0000
     7 C7      10.2194 -12.7593   5.6073   C.2       1 RES1   0.0000
     8 Cl8      9.8453 -11.3143   4.6286   Cl        1 RES1   0.0000
     9 C9       9.4925 -13.9307   5.3901   C.2       1 RES1   0.0000
    10 C10      9.7144 -15.0718   6.1428   C.2       1 RES1   0.0000
    11 C11     10.7063 -14.9680   7.1238   C.2       1 RES1   0.0000
    12 C12     11.0594 -16.1334   7.9781   C.2       1 RES1   0.0000
    13 N13     10.6236 -17.3379   7.6181   N.2       1 RES1   0.0000
    14 C14     10.8095 -18.5455   8.4558   C.3       1 RES1   0.0000
    15 C15      9.7857 -18.6609   9.6059   C.3       1 RES1   0.0000
    16 C16      8.4385 -18.8209   8.8996   C.2       1 RES1   0.0000
    17 C17      7.7227 -17.7378   8.3662   C.2       1 RES1   0.0000
    18 S18      6.2946 -18.3532   7.5783   S.3       1 RES1   0.0000
    19 C19      6.4676 -20.0429   7.9121   C.2       1 RES1   0.0000
    20 C20      7.6730 -20.1051   8.6352   C.2       1 RES1   0.0000
    21 C21      8.2256 -21.4544   8.9985   C.2       1 RES1   0.0000
    22 C22      7.8518 -22.6353   8.2894   C.2       1 RES1   0.0000
    23 N23      8.5917 -23.6462   8.8171   N.2       1 RES1   0.0000
    24 N24      9.4082 -23.0712   9.8357   N.2       1 RES1   0.0000
    25 C25      9.1956 -21.7067   9.9364   C.2       1 RES1   0.0000
    26 C26     10.6919 -19.7119   7.5257   C.2       1 RES1   0.0000
    27 O27     10.0935 -19.6461   6.4481   O.co2     1 RES1   0.0000
    28 O28     11.1390 -20.8215   7.8832   O.co2     1 RES1  -1.0000
    29 N29     11.6866 -16.0576   9.0867   N.2       1 RES1   0.0000
@<TRIPOS>BOND
     1     1     2    1
     2     2     3    1
     3     2     4    1
     4     4     5    1
     5     5     6    2
     6     6     7    1
     7     7     8    1
     8     7     9    2
     9     9    10    1
    10    10    11    2
    11    11    12    1
    12    12    13    1
    13    13    14    1
    14    14    15    1
    15    15    16    1
    16    16    17    2
    17    17    18    1
    18    18    19    1
    19    19    20    2
    20    20    21    1
    21    21    22    1
    22    22    23    2
    23    23    24    1
    24    24    25    1
    25    14    26    1
    26    26    27    2
    27    26    28    1
    28    12    29    2
    29    29     2    1
    30    11     5    1
    31    20    16    1
    32    25    21    2
@<TRIPOS>SUBSTRUCTURE
     1 RES1        1 GROUP             0 ****  ****    0  
@<TRIPOS>MOLECULE
ligand_20
    29    32     1     0     0
SMALL
USER_CHARGES
****
Generated from the CSD

@<TRIPOS>ATOM
     1 C1      13.3007 -14.9603  10.4732   C.3       1 RES1   0.0000
     2 C2      12.1067 -14.7222   9.5716   C.3       1 RES1   0.0000
     3 C3      10.9388 -14.1438  10.4020   C.3       1 RES1   0.0000
     4 C4      12.4974 -13.8135   8.4218   C.3       1 RES1   0.0000
     5 C5      11.4384 -13.7713   7.3499   C.2       1 RES1   0.0000
     6 C6      11.1972 -12.6322   6.5695   C.2       1 RES1   0.0000
     7 C7      10.2269 -12.7616   5.6004   C.2       1 RES1   0.0000
     8 Cl8      9.8588 -11.3184   4.6170   Cl        1 RES1   0.0000
     9 C9       9.5057 -13.9353   5.3764   C.2       1 RES1   0.0000
    10 C10      9.7231 -15.0753   6.1321   C.2       1 RES1   0.0000
    11 C11     10.7045 -14.9680   7.1232   C.2       1 RES1   0.0000
    12 C12     11.0522 -16.1319   7.9818   C.2       1 RES1   0.0000
    13 N13     10.6236 -17.3379   7.6181   N.2       1 RES1   0.0000
    14 C14     10.8095 -18.5455   8.4558   C.3       1 RES1   0.0000
    15 C15      9.9042 -19.7265   8.0435   C.3       1 RES1   0.0000
    16 C16      8.4827 -19.2183   8.2891   C.2       1 RES1   0.0000
    17 C17      8.1215 -18.4812   9.4277   C.2       1 RES1   0.0000
    18 S18      6.4452 -18.0252   9.2822   S.3       1 RES1   0.0000
    19 C19      6.0529 -18.7856   7.7774   C.2       1 RES1   0.0000
    20 C20      7.2677 -19.3831   7.3938   C.2       1 RES1   0.0000
    21 C21      7.3509 -20.0444   6.0471   C.2       1 RES1   0.0000
    22 C22      6.4357 -19.7302   4.9978   C.2       1 RES1   0.0000
    23 N23      6.8462 -20.4360   3.9110   N.2       1 RES1   0.0000
    24 N24      8.0052 -21.1669   4.3077   N.2       1 RES1   0.0000
    25 C25      8.3308 -20.9098   5.6287   C.2       1 RES1   0.0000
    26 C26     12.2532 -18.9169   8.3253   C.2       1 RES1   0.0000
    27 O27     12.9489 -18.5586   7.3707   O.co2     1 RES1   0.0000
    28 O28     12.7602 -19.6895   9.1650   O.co2     1 RES1  -1.0000
    29 N29     11.6676 -16.0537   9.0968   N.2       1 RES1   0.0000
@<TRIPOS>BOND
     1     1     2    1
     2     2     3    1
     3     2     4    1
     4     4     5    1
     5     5     6    2
     6     6     7    1
     7     7     8    1
     8     7     9    2
     9     9    10    1
    10    10    11    2
    11    11    12    1
    12    12    13    1
    13    13    14    1
    14    14    15    1
    15    15    16    1
    16    16    17    2
    17    17    18    1
    18    18    19    1
    19    19    20    2
    20    20    21    1
    21    21    22    1
    22    22    23    2
    23    23    24    1
    24    24    25    1
    25    14    26    1
    26    26    27    2
    27    26    28    1
    28    12    29    2
    29    29     2    1
    30    11     5    1
    31    20    16    1
    32    25    21    2
@<TRIPOS>SUBSTRUCTURE
     1 RES1        1 GROUP             0 ****  ****    0  
@<TRIPOS>MOLECULE
ligand_21
    29    32     1     0     0
SMALL
USER_CHARGES
****
Generated from the CSD

@<TRIPOS>ATOM
     1 C1      13.3370 -14.9699  10.4468   C.3       1 RES1   0.0000
     2 C2      12.1344 -14.7277   9.5577   C.3       1 RES1   0.0000
     3 C3      10.9768 -14.1464  10.4005   C.3       1 RES1   0.0000
     4 C4      12.5158 -13.8195   8.4044   C.3       1 RES1   0.0000
     5 C5      11.4460 -13.7735   7.3436   C.2       1 RES1   0.0000
     6 C6      11.2000 -12.6332   6.5664   C.2       1 RES1   0.0000
     7 C7      10.2194 -12.7593   5.6073   C.2       1 RES1   0.0000
     8 Cl8      9.8453 -11.3143   4.6286   Cl        1 RES1   0.0000
     9 C9       9.4925 -13.9307   5.3901   C.2       1 RES1   0.0000
    10 C10      9.7144 -15.0718   6.1428   C.2       1 RES1   0.0000
    11 C11     10.7063 -14.9680   7.1238   C.2       1 RES1   0.0000
    12 C12     11.0594 -16.1334   7.9781   C.2       1 RES1   0.0000
    13 N13     10.6236 -17.3379   7.6181   N.2       1 RES1   0.0000
    14 C14     10.8095 -18.5455   8.4558   C.3       1 RES1   0.0000
    15 C15      9.7857 -18.6609   9.6059   C.3       1 RES1   0.0000
    16 C16     10.1920 -19.9347  10.3488   C.2       1 RES1   0.0000
    17 C17     11.2624 -19.9812  11.2555   C.2       1 RES1   0.0000
    18 S18     11.3364 -21.5819  11.9419   S.3       1 RES1   0.0000
    19 C19     10.0366 -22.3400  11.0859   C.2       1 RES1   0.0000
    20 C20      9.5423 -21.3047  10.2713   C.2       1 RES1   0.0000
    21 C21      8.3044 -21.5575   9.4579   C.2       1 RES1   0.0000
    22 C22      7.4164 -22.6345   9.7559   C.2       1 RES1   0.0000
    23 N23      6.3749 -22.5195   8.8901   N.2       1 RES1   0.0000
    24 N24      6.6369 -21.3753   8.0796   N.2       1 RES1   0.0000
    25 C25      7.8257 -20.7658   8.4439   C.2       1 RES1   0.0000
    26 C26     10.6919 -19.7119   7.5257   C.2       1 RES1   0.0000
    27 O27     10.0670 -19.6551   6.4628   O.co2     1 RES1   0.0000
    28 O28     11.1682 -20.8136   7.8696   O.co2     1 RES1  -1.0000
    29 N29     11.6866 -16.0576   9.0867   N.2       1 RES1   0.0000
@<TRIPOS>BOND
     1     1     2    1
     2     2     3    1
     3     2     4    1
     4     4     5    1
     5     5     6    2
     6     6     7    1
     7     7     8    1
     8     7     9    2
     9     9    10    1
    10    10    11    2
    11    11    12    1
    12    12    13    1
    13    13    14    1
    14    14    15    1
    15    15    16    1
    16    16    17    2
    17    17    18    1
    18    18    19    1
    19    19    20    2
    20    20    21    1
    21    21    22    1
    22    22    23    2
    23    23    24    1
    24    24    25    1
    25    14    26    1
    26    26    27    2
    27    26    28    1
    28    12    29    2
    29    29     2    1
    30    11     5    1
    31    20    16    1
    32    25    21    2
@<TRIPOS>SUBSTRUCTURE
     1 RES1        1 GROUP             0 ****  ****    0  
@<TRIPOS>MOLECULE
ligand_22
    29    32     1     0     0
SMALL
USER_CHARGES
****
Generated from the CSD

@<TRIPOS>ATOM
     1 C1      13.0079 -14.8870  10.6645   C.3       1 RES1   0.0000
     2 C2      11.8770 -14.6832   9.6770   C.3       1 RES1   0.0000
     3 C3      10.6336 -14.1432  10.4191   C.3       1 RES1   0.0000
     4 C4      12.3234 -13.7599   8.5597   C.3       1 RES1   0.0000
     5 C5      11.3458 -13.7472   7.4124   C.2       1 RES1   0.0000
     6 C6      11.1279 -12.6140   6.6168   C.2       1 RES1   0.0000
     7 C7      10.2364 -12.7705   5.5786   C.2       1 RES1   0.0000
     8 Cl8      9.8977 -11.3366   4.5712   Cl        1 RES1   0.0000
     9 C9       9.5702 -13.9651   5.3013   C.2       1 RES1   0.0000
    10 C10      9.7662 -15.1000   6.0705   C.2       1 RES1   0.0000
    11 C11     10.6679 -14.9653   7.1315   C.2       1 RES1   0.0000
    12 C12     10.9868 -16.1203   8.0130   C.2       1 RES1   0.0000
    13 N13     10.6236 -17.3379   7.6181   N.2       1 RES1   0.0000
    14 C14     10.8095 -18.5455   8.4558   C.3       1 RES1   0.0000
    15 C15      9.9042 -19.7265   8.0435   C.3       1 RES1   0.0000
    16 C16      8.4867 -19.2452   8.3573   C.2       1 RES1   0.0000
    17 C17      7.5889 -18.8175   7.3669   C.2       1 RES1   0.0000
    18 S18      6.0669 -18.4374   8.1272   S.3       1 RES1   0.0000
    19 C19      6.4696 -18.7434   9.7828   C.2       1 RES1   0.0000
    20 C20      7.8107 -19.1633   9.7143   C.2       1 RES1   0.0000
    21 C21      8.4792 -19.6453  10.9708   C.2       1 RES1   0.0000
    22 C22      7.7526 -19.8288  12.1855   C.2       1 RES1   0.0000
    23 N23      8.6341 -20.3464  13.0815   N.2       1 RES1   0.0000
    24 N24      9.8827 -20.4758  12.4039   N.2       1 RES1   0.0000
    25 C25      9.7830 -20.0585  11.0874   C.2       1 RES1   0.0000
    26 C26     12.2532 -18.9169   8.3253   C.2       1 RES1   0.0000
    27 O27     13.1556 -18.0757   8.2826   O.co2     1 RES1   0.0000
    28 O28     12.5600 -20.1168   8.1668   O.co2     1 RES1  -1.0000
    29 N29     11.5154 -16.0262   9.1705   N.2       1 RES1   0.0000
@<TRIPOS>BOND
     1     1     2    1
     2     2     3    1
     3     2     4    1
     4     4     5    1
     5     5     6    2
     6     6     7    1
     7     7     8    1
     8     7     9    2
     9     9    10    1
    10    10    11    2
    11    11    12    1
    12    12    13    1
    13    13    14    1
    14    14    15    1
    15    15    16    1
    16    16    17    2
    17    17    18    1
    18    18    19    1
    19    19    20    2
    20    20    21    1
    21    21    22    1
    22    22    23    2
    23    23    24    1
    24    24    25    1
    25    14    26    1
    26    26    27    2
    27    26    28    1
    28    12    29    2
    29    29     2    1
    30    11     5    1
    31    20    16    1
    32    25    21    2
@<TRIPOS>SUBSTRUCTURE
     1 RES1        1 GROUP             0 ****  ****    0  
@<TRIPOS>MOLECULE
ligand_23
    29    32     1     0     0
SMALL
USER_CHARGES
****
Generated from the CSD

@<TRIPOS>ATOM
     1 C1      13.3756 -14.9799  10.4178   C.3       1 RES1   0.0000
     2 C2      12.1634 -14.7337   9.5429   C.3       1 RES1   0.0000
     3 C3      11.0171 -14.1503  10.3996   C.3       1 RES1   0.0000
     4 C4      12.5339 -13.8252   8.3862   C.3       1 RES1   0.0000
     5 C5      11.4520 -13.7753   7.3378   C.2       1 RES1   0.0000
     6 C6      11.2000 -12.6336   6.5647   C.2       1 RES1   0.0000
     7 C7      10.2081 -12.7561   5.6169   C.2       1 RES1   0.0000
     8 Cl8      9.8265 -11.3091   4.6441   Cl        1 RES1   0.0000
     9 C9       9.4757 -13.9254   5.4068   C.2       1 RES1   0.0000
    10 C10      9.7034 -15.0679   6.1558   C.2       1 RES1   0.0000
    11 C11     10.7067 -14.9677   7.1253   C.2       1 RES1   0.0000
    12 C12     11.0667 -16.1349   7.9743   C.2       1 RES1   0.0000
    13 N13     10.6236 -17.3379   7.6181   N.2       1 RES1   0.0000
    14 C14     10.8095 -18.5455   8.4558   C.3       1 RES1   0.0000
    15 C15      9.4945 -19.2993   8.7503   C.3       1 RES1   0.0000
    16 C16      9.9028 -20.4097   9.7196   C.2       1 RES1   0.0000
    17 C17      9.9920 -21.7585   9.3415   C.2       1 RES1   0.0000
    18 S18     10.5678 -22.6781  10.7060   S.3       1 RES1   0.0000
    19 C19     10.6914 -21.4209  11.8895   C.2       1 RES1   0.0000
    20 C20     10.2886 -20.2735  11.1817   C.2       1 RES1   0.0000
    21 C21     10.3872 -18.9370  11.8613   C.2       1 RES1   0.0000
    22 C22     11.0588 -18.7769  13.1105   C.2       1 RES1   0.0000
    23 N23     11.0323 -17.4467  13.3889   N.2       1 RES1   0.0000
    24 N24     10.3506 -16.8127  12.3080   N.2       1 RES1   0.0000
    25 C25      9.9662 -17.7349  11.3494   C.2       1 RES1   0.0000
    26 C26     11.7633 -19.4217   7.7063   C.2       1 RES1   0.0000
    27 O27     11.9051 -19.3565   6.4818   O.co2     1 RES1   0.0000
    28 O28     12.3811 -20.3145   8.3230   O.co2     1 RES1  -1.0000
    29 N29     11.7068 -16.0619   9.0756   N.2       1 RES1   0.0000
@<TRIPOS>BOND
     1     1     2    1
     2     2     3    1
     3     2     4    1
     4     4     5    1
     5     5     6    2
     6     6     7    1
     7     7     8    1
     8     7     9    2
     9     9    10    1
    10    10    11    2
    11    11    12    1
    12    12    13    1
    13    13    14    1
    14    14    15    1
    15    15    16    1
    16    16    17    2
    17    17    18    1
    18    18    19    1
    19    19    20    2
    20    20    21    1
    21    21    22    1
    22    22    23    2
    23    23    24    1
    24    24    25    1
    25    14    26    1
    26    26    27    2
    27    26    28    1
    28    12    29    2
    29    29     2    1
    30    11     5    1
    31    20    16    1
    32    25    21    2
@<TRIPOS>SUBSTRUCTURE
     1 RES1        1 GROUP             0 ****  ****    0  
@<TRIPOS>MOLECULE
ligand_24
    29    32     1     0     0
SMALL
USER_CHARGES
****
Generated from the CSD

@<TRIPOS>ATOM
     1 C1      14.0369 -15.5775   7.5461   C.3       1 RES1   0.0000
     2 C2      13.1086 -15.1658   8.6688   C.3       1 RES1   0.0000
     3 C3      13.8734 -15.1592  10.0135   C.3       1 RES1   0.0000
     4 C4      12.4800 -13.8013   8.4291   C.3       1 RES1   0.0000
     5 C5      11.5238 -13.8088   7.2680   C.2       1 RES1   0.0000
     6 C6      11.3021 -12.6845   6.4612   C.2       1 RES1   0.0000
     7 C7      10.3651 -12.8325   5.4627   C.2       1 RES1   0.0000
     8 Cl8     10.0690 -11.4251   4.4056   Cl        1 RES1   0.0000
     9 C9       9.6563 -14.0123   5.2328   C.2       1 RES1   0.0000
    10 C10      9.8520 -15.1401   6.0117   C.2       1 RES1   0.0000
    11 C11     10.7989 -15.0163   7.0335   C.2       1 RES1   0.0000
    12 C12     11.0554 -16.1311   7.9827   C.2       1 RES1   0.0000
    13 N13     10.1980 -17.1484   7.9739   N.2       1 RES1   0.0000
    14 C14     10.4101 -18.3875   8.7577   C.3       1 RES1   0.0000
    15 C15      9.2196 -18.7493   9.6720   C.3       1 RES1   0.0000
    16 C16      9.1634 -17.6094  10.6902   C.2       1 RES1   0.0000
    17 C17      8.4748 -16.4091  10.4553   C.2       1 RES1   0.0000
    18 S18      8.5844 -15.4197  11.8863   S.3       1 RES1   0.0000
    19 C19      9.5658 -16.4375  12.8851   C.2       1 RES1   0.0000
    20 C20      9.7841 -17.5671  12.0751   C.2       1 RES1   0.0000
    21 C21     10.5078 -18.7454  12.6631   C.2       1 RES1   0.0000
    22 C22     10.6353 -18.9215  14.0738   C.2       1 RES1   0.0000
    23 N23     11.2617 -20.1145  14.2531   N.2       1 RES1   0.0000
    24 N24     11.5045 -20.6521  12.9544   N.2       1 RES1   0.0000
    25 C25     11.0197 -19.8116  11.9664   C.2       1 RES1   0.0000
    26 C26     10.6529 -19.4709   7.7543   C.2       1 RES1   0.0000
    27 O27     11.3201 -19.2929   6.7312   O.co2     1 RES1   0.0000
    28 O28     10.0925 -20.5762   7.9060   O.co2     1 RES1  -1.0000
    29 N29     12.0762 -16.2327   8.7377   N.2       1 RES1   0.0000
@<TRIPOS>BOND
     1     1     2    1
     2     2     3    1
     3     2     4    1
     4     4     5    1
     5     5     6    2
     6     6     7    1
     7     7     8    1
     8     7     9    2
     9     9    10    1
    10    10    11    2
    11    11    12    1
    12    12    13    1
    13    13    14    1
    14    14    15    1
    15    15    16    1
    16    16    17    2
    17    17    18    1
    18    18    19    1
    19    19    20    2
    20    20    21    1
    21    21    22    1
    22    22    23    2
    23    23    24    1
    24    24    25    1
    25    14    26    1
    26    26    27    2
    27    26    28    1
    28    12    29    2
    29    29     2    1
    30    11     5    1
    31    20    16    1
    32    25    21    2
@<TRIPOS>SUBSTRUCTURE
     1 RES1        1 GROUP             0 ****  ****    0  
@<TRIPOS>MOLECULE
ligand_25
    29    32     1     0     0
SMALL
USER_CHARGES
****
Generated from the CSD

@<TRIPOS>ATOM
     1 C1      14.0486 -15.8664   7.0160   C.3       1 RES1   0.0000
     2 C2      13.3156 -15.3911   8.2523   C.3       1 RES1   0.0000
     3 C3      14.2553 -15.4468   9.4798   C.3       1 RES1   0.0000
     4 C4      12.7634 -13.9825   8.0920   C.3       1 RES1   0.0000
     5 C5      11.6596 -13.9142   7.0725   C.2       1 RES1   0.0000
     6 C6      11.4140 -12.7733   6.2964   C.2       1 RES1   0.0000
     7 C7      10.3410 -12.8472   5.4363   C.2       1 RES1   0.0000
     8 Cl8     10.0088 -11.4174   4.4206   Cl        1 RES1   0.0000
     9 C9       9.5216 -13.9699   5.3128   C.2       1 RES1   0.0000
    10 C10      9.7374 -15.1122   6.0647   C.2       1 RES1   0.0000
    11 C11     10.8216 -15.0633   6.9468   C.2       1 RES1   0.0000
    12 C12     11.1218 -16.1979   7.8591   C.2       1 RES1   0.0000
    13 N13     10.1980 -17.1484   7.9739   N.2       1 RES1   0.0000
    14 C14     10.4101 -18.3875   8.7577   C.3       1 RES1   0.0000
    15 C15     10.0225 -18.2490  10.2459   C.3       1 RES1   0.0000
    16 C16      8.5197 -17.9651  10.2214   C.2       1 RES1   0.0000
    17 C17      7.5554 -18.9707  10.0521   C.2       1 RES1   0.0000
    18 S18      5.9743 -18.2459  10.1693   S.3       1 RES1   0.0000
    19 C19      6.4162 -16.5870  10.3916   C.2       1 RES1   0.0000
    20 C20      7.8227 -16.6266  10.3879   C.2       1 RES1   0.0000
    21 C21      8.5791 -15.3629  10.6860   C.2       1 RES1   0.0000
    22 C22      7.9371 -14.2167  11.2438   C.2       1 RES1   0.0000
    23 N23      8.9168 -13.2995  11.4600   N.2       1 RES1   0.0000
    24 N24     10.1412 -13.8966  11.0367   N.2       1 RES1   0.0000
    25 C25      9.9355 -15.1851  10.5735   C.2       1 RES1   0.0000
    26 C26      9.5808 -19.4406   8.0923   C.2       1 RES1   0.0000
    27 O27      8.6334 -19.1703   7.3486   O.co2     1 RES1   0.0000
    28 O28      9.7933 -20.6412   8.3611   O.co2     1 RES1  -1.0000
    29 N29     12.2258 -16.3783   8.4683   N.2       1 RES1   0.0000
@<TRIPOS>BOND
     1     1     2    1
     2     2     3    1
     3     2     4    1
     4     4     5    1
     5     5     6    2
     6     6     7    1
     7     7     8    1
     8     7     9    2
     9     9    10    1
    10    10    11    2
    11    11    12    1
    12    12    13    1
    13    13    14    1
    14    14    15    1
    15    15    16    1
    16    16    17    2
    17    17    18    1
    18    18    19    1
    19    19    20    2
    20    20    21    1
    21    21    22    1
    22    22    23    2
    23    23    24    1
    24    24    25    1
    25    14    26    1
    26    26    27    2
    27    26    28    1
    28    12    29    2
    29    29     2    1
    30    11     5    1
    31    20    16    1
    32    25    21    2
@<TRIPOS>SUBSTRUCTURE
     1 RES1        1 GROUP             0 ****  ****    0  
@<TRIPOS>MOLECULE
ligand_26
    29    32     1     0     0
SMALL
USER_CHARGES
****
Generated from the CSD

@<TRIPOS>ATOM
     1 C1      14.0260 -15.5332   7.6197   C.3       1 RES1   0.0000
     2 C2      13.0731 -15.1353   8.7267   C.3       1 RES1   0.0000
     3 C3      13.8135 -15.1242  10.0848   C.3       1 RES1   0.0000
     4 C4      12.4336 -13.7772   8.4794   C.3       1 RES1   0.0000
     5 C5      11.4985 -13.7920   7.3013   C.2       1 RES1   0.0000
     6 C6      11.2787 -12.6679   6.4937   C.2       1 RES1   0.0000
     7 C7      10.3616 -12.8234   5.4782   C.2       1 RES1   0.0000
     8 Cl8     10.0687 -11.4163   4.4198   Cl        1 RES1   0.0000
     9 C9       9.6703 -14.0104   5.2323   C.2       1 RES1   0.0000
    10 C10      9.8647 -15.1383   6.0113   C.2       1 RES1   0.0000
    11 C11     10.7916 -15.0069   7.0504   C.2       1 RES1   0.0000
    12 C12     11.0435 -16.1216   8.0009   C.2       1 RES1   0.0000
    13 N13     10.1980 -17.1484   7.9739   N.2       1 RES1   0.0000
    14 C14     10.4101 -18.3875   8.7577   C.3       1 RES1   0.0000
    15 C15      9.1376 -19.2502   8.9023   C.3       1 RES1   0.0000
    16 C16      8.2583 -18.4680   9.8792   C.2       1 RES1   0.0000
    17 C17      7.8405 -17.1491   9.6425   C.2       1 RES1   0.0000
    18 S18      6.7922 -16.6589  10.9463   S.3       1 RES1   0.0000
    19 C19      6.8443 -18.0825  11.9298   C.2       1 RES1   0.0000
    20 C20      7.6842 -18.9448  11.2014   C.2       1 RES1   0.0000
    21 C21      7.8700 -20.3529  11.6922   C.2       1 RES1   0.0000
    22 C22      6.8961 -20.9972  12.5129   C.2       1 RES1   0.0000
    23 N23      7.3366 -22.2697  12.6982   N.2       1 RES1   0.0000
    24 N24      8.5678 -22.3874  11.9874   N.2       1 RES1   0.0000
    25 C25      8.8906 -21.2032  11.3465   C.2       1 RES1   0.0000
    26 C26     11.4834 -19.1464   8.0426   C.2       1 RES1   0.0000
    27 O27     11.7439 -18.9662   6.8496   O.co2     1 RES1   0.0000
    28 O28     12.0863 -20.0591   8.6447   O.co2     1 RES1  -1.0000
    29 N29     12.0517 -16.2139   8.7739   N.2       1 RES1   0.0000
@<TRIPOS>BOND
     1     1     2    1
     2     2     3    1
     3     2     4    1
     4     4     5    1
     5     5     6    2
     6     6     7    1
     7     7     8    1
     8     7     9    2
     9     9    10    1
    10    10    11    2
    11    11    12    1
    12    12    13    1
    13    13    14    1
    14    14    15    1
    15    15    16    1
    16    16    17    2
    17    17    18    1
    18    18    19    1
    19    19    20    2
    20    20    21    1
    21    21    22    1
    22    22    23    2
    23    23    24    1
    24    24    25    1
    25    14    26    1
    26    26    27    2
    27    26    28    1
    28    12    29    2
    29    29     2    1
    30    11     5    1
    31    20    16    1
    32    25    21    2
@<TRIPOS>SUBSTRUCTURE
     1 RES1        1 GROUP             0 ****  ****    0  
@<TRIPOS>MOLECULE
ligand_27
    29    32     1     0     0
SMALL
USER_CHARGES
****
Generated from the CSD

@<TRIPOS>ATOM
     1 C1      13.8251 -15.1327  10.0387   C.3       1 RES1   0.0000
     2 C2      12.5206 -14.8241   9.3327   C.3       1 RES1   0.0000
     3 C3      11.5250 -14.1988  10.3358   C.3       1 RES1   0.0000
     4 C4      12.7761 -13.9215   8.1409   C.3       1 RES1   0.0000
     5 C5      11.5689 -13.8131   7.2449   C.2       1 RES1   0.0000
     6 C6      11.2692 -12.6537   6.5164   C.2       1 RES1   0.0000
     7 C7      10.1564 -12.7225   5.7076   C.2       1 RES1   0.0000
     8 Cl8      9.7160 -11.2504   4.7995   Cl        1 RES1   0.0000
     9 C9       9.3503 -13.8558   5.5916   C.2       1 RES1   0.0000
    10 C10      9.6226 -15.0147   6.2993   C.2       1 RES1   0.0000
    11 C11     10.7486 -14.9689   7.1280   C.2       1 RES1   0.0000
    12 C12     11.1640 -16.1594   7.9174   C.2       1 RES1   0.0000
    13 N13     10.6236 -17.3379   7.6181   N.2       1 RES1   0.0000
    14 C14     10.8095 -18.5455   8.4558   C.3       1 RES1   0.0000
    15 C15      9.4945 -19.2993   8.7503   C.3       1 RES1   0.0000
    16 C16      8.6506 -18.2959   9.5380   C.2       1 RES1   0.0000
    17 C17      9.2034 -17.1940  10.2091   C.2       1 RES1   0.0000
    18 S18      7.9046 -16.2611  10.9033   S.3       1 RES1   0.0000
    19 C19      6.5498 -17.2327  10.4376   C.2       1 RES1   0.0000
    20 C20      7.1429 -18.2854   9.7166   C.2       1 RES1   0.0000
    21 C21      6.2502 -19.2837   9.0351   C.2       1 RES1   0.0000
    22 C22      4.8488 -19.0590   8.8847   C.2       1 RES1   0.0000
    23 N23      4.3714 -20.1050   8.1598   N.2       1 RES1   0.0000
    24 N24      5.4841 -20.9506   7.8741   N.2       1 RES1   0.0000
    25 C25      6.6549 -20.4319   8.4009   C.2       1 RES1   0.0000
    26 C26     11.7633 -19.4217   7.7063   C.2       1 RES1   0.0000
    27 O27     11.9374 -19.3266   6.4880   O.co2     1 RES1   0.0000
    28 O28     12.3463 -20.3440   8.3133   O.co2     1 RES1  -1.0000
    29 N29     11.9464 -16.1260   8.9247   N.2       1 RES1   0.0000
@<TRIPOS>BOND
     1     1     2    1
     2     2     3    1
     3     2     4    1
     4     4     5    1
     5     5     6    2
     6     6     7    1
     7     7     8    1
     8     7     9    2
     9     9    10    1
    10    10    11    2
    11    11    12    1
    12    12    13    1
    13    13    14    1
    14    14    15    1
    15    15    16    1
    16    16    17    2
    17    17    18    1
    18    18    19    1
    19    19    20    2
    20    20    21    1
    21    21    22    1
    22    22    23    2
    23    23    24    1
    24    24    25    1
    25    14    26    1
    26    26    27    2
    27    26    28    1
    28    12    29    2
    29    29     2    1
    30    11     5    1
    31    20    16    1
    32    25    21    2
@<TRIPOS>SUBSTRUCTURE
     1 RES1        1 GROUP             0 ****  ****    0  
@<TRIPOS>MOLECULE
ligand_28
    29    32     1     0     0
SMALL
USER_CHARGES
****
Generated from the CSD

@<TRIPOS>ATOM
     1 C1      13.3007 -14.9600  10.4730   C.3       1 RES1   0.0000
     2 C2      12.1062 -14.7221   9.5718   C.3       1 RES1   0.0000
     3 C3      10.9384 -14.1444  10.4028   C.3       1 RES1   0.0000
     4 C4      12.4962 -13.8130   8.4221   C.3       1 RES1   0.0000
     5 C5      11.4369 -13.7709   7.3506   C.2       1 RES1   0.0000
     6 C6      11.1949 -12.6317   6.5705   C.2       1 RES1   0.0000
     7 C7      10.2244 -12.7613   5.6018   C.2       1 RES1   0.0000
     8 Cl8      9.8554 -11.3179   4.6189   Cl        1 RES1   0.0000
     9 C9       9.5036 -13.9351   5.3777   C.2       1 RES1   0.0000
    10 C10      9.7217 -15.0753   6.1330   C.2       1 RES1   0.0000
    11 C11     10.7034 -14.9679   7.1238   C.2       1 RES1   0.0000
    12 C12     11.0518 -16.1319   7.9820   C.2       1 RES1   0.0000
    13 N13     10.6236 -17.3379   7.6181   N.2       1 RES1   0.0000
    14 C14     10.8095 -18.5455   8.4558   C.3       1 RES1   0.0000
    15 C15      9.9042 -19.7265   8.0435   C.3       1 RES1   0.0000
    16 C16      8.4843 -19.2316   8.3236   C.2       1 RES1   0.0000
    17 C17      7.9299 -19.1921   9.6124   C.2       1 RES1   0.0000
    18 S18      6.3381 -18.4891   9.5081   S.3       1 RES1   0.0000
    19 C19      6.2288 -18.2364   7.7991   C.2       1 RES1   0.0000
    20 C20      7.4708 -18.6991   7.3265   C.2       1 RES1   0.0000
    21 C21      7.7986 -18.5213   5.8709   C.2       1 RES1   0.0000
    22 C22      8.6545 -19.4287   5.1771   C.2       1 RES1   0.0000
    23 N23      8.6654 -19.0246   3.8793   N.2       1 RES1   0.0000
    24 N24      7.8157 -17.8817   3.7962   N.2       1 RES1   0.0000
    25 C25      7.2618 -17.5796   5.0288   C.2       1 RES1   0.0000
    26 C26     12.2532 -18.9169   8.3253   C.2       1 RES1   0.0000
    27 O27     12.9489 -18.5586   7.3707   O.co2     1 RES1   0.0000
    28 O28     12.7602 -19.6895   9.1650   O.co2     1 RES1  -1.0000
    29 N29     11.6676 -16.0536   9.0968   N.2       1 RES1   0.0000
@<TRIPOS>BOND
     1     1     2    1
     2     2     3    1
     3     2     4    1
     4     4     5    1
     5     5     6    2
     6     6     7    1
     7     7     8    1
     8     7     9    2
     9     9    10    1
    10    10    11    2
    11    11    12    1
    12    12    13    1
    13    13    14    1
    14    14    15    1
    15    15    16    1
    16    16    17    2
    17    17    18    1
    18    18    19    1
    19    19    20    2
    20    20    21    1
    21    21    22    1
    22    22    23    2
    23    23    24    1
    24    24    25    1
    25    14    26    1
    26    26    27    2
    27    26    28    1
    28    12    29    2
    29    29     2    1
    30    11     5    1
    31    20    16    1
    32    25    21    2
@<TRIPOS>SUBSTRUCTURE
     1 RES1        1 GROUP             0 ****  ****    0  
@<TRIPOS>MOLECULE
ligand_29
    29    32     1     0     0
SMALL
USER_CHARGES
****
Generated from the CSD

@<TRIPOS>ATOM
     1 C1      13.3003 -14.9599  10.4734   C.3       1 RES1   0.0000
     2 C2      12.1060 -14.7221   9.5719   C.3       1 RES1   0.0000
     3 C3      10.9380 -14.1442  10.4027   C.3       1 RES1   0.0000
     4 C4      12.4962 -13.8130   8.4223   C.3       1 RES1   0.0000
     5 C5      11.4371 -13.7709   7.3505   C.2       1 RES1   0.0000
     6 C6      11.1953 -12.6318   6.5704   C.2       1 RES1   0.0000
     7 C7      10.2250 -12.7614   5.6014   C.2       1 RES1   0.0000
     8 Cl8      9.8562 -11.3180   4.6184   Cl        1 RES1   0.0000
     9 C9       9.5041 -13.9352   5.3773   C.2       1 RES1   0.0000
    10 C10      9.7221 -15.0753   6.1327   C.2       1 RES1   0.0000
    11 C11     10.7036 -14.9679   7.1237   C.2       1 RES1   0.0000
    12 C12     11.0518 -16.1319   7.9820   C.2       1 RES1   0.0000
    13 N13     10.6236 -17.3379   7.6181   N.2       1 RES1   0.0000
    14 C14     10.8095 -18.5455   8.4558   C.3       1 RES1   0.0000
    15 C15      9.9042 -19.7265   8.0435   C.3       1 RES1   0.0000
    16 C16      8.4844 -19.2316   8.3236   C.2       1 RES1   0.0000
    17 C17      7.7511 -18.4585   7.4100   C.2       1 RES1   0.0000
    18 S18      6.1627 -18.1794   8.0717   S.3       1 RES1   0.0000
    19 C19      6.3228 -18.9839   9.5961   C.2       1 RES1   0.0000
    20 C20      7.6374 -19.4841   9.5581   C.2       1 RES1   0.0000
    21 C21      8.1050 -20.3652  10.6819   C.2       1 RES1   0.0000
    22 C22      9.4913 -20.5384  10.9739   C.2       1 RES1   0.0000
    23 N23      9.5513 -21.3180  12.0859   N.2       1 RES1   0.0000
    24 N24      8.2054 -21.6068  12.4601   N.2       1 RES1   0.0000
    25 C25      7.3059 -20.9999  11.6000   C.2       1 RES1   0.0000
    26 C26     12.2532 -18.9169   8.3253   C.2       1 RES1   0.0000
    27 O27     12.9489 -18.5586   7.3707   O.co2     1 RES1   0.0000
    28 O28     12.7602 -19.6895   9.1650   O.co2     1 RES1  -1.0000
    29 N29     11.6674 -16.0536   9.0969   N.2       1 RES1   0.0000
@<TRIPOS>BOND
     1     1     2    1
     2     2     3    1
     3     2     4    1
     4     4     5    1
     5     5     6    2
     6     6     7    1
     7     7     8    1
     8     7     9    2
     9     9    10    1
    10    10    11    2
    11    11    12    1
    12    12    13    1
    13    13    14    1
    14    14    15    1
    15    15    16    1
    16    16    17    2
    17    17    18    1
    18    18    19    1
    19    19    20    2
    20    20    21    1
    21    21    22    1
    22    22    23    2
    23    23    24    1
    24    24    25    1
    25    14    26    1
    26    26    27    2
    27    26    28    1
    28    12    29    2
    29    29     2    1
    30    11     5    1
    31    20    16    1
    32    25    21    2
@<TRIPOS>SUBSTRUCTURE
     1 RES1        1 GROUP             0 ****  ****    0  
@<TRIPOS>MOLECULE
ligand_30
    29    32     1     0     0
SMALL
USER_CHARGES
****
Generated from the CSD

@<TRIPOS>ATOM
     1 C1      13.3714 -14.9792  10.4214   C.3       1 RES1   0.0000
     2 C2      12.1608 -14.7332   9.5442   C.3       1 RES1   0.0000
     3 C3      11.0132 -14.1490  10.3986   C.3       1 RES1   0.0000
     4 C4      12.5335 -13.8253   8.3877   C.3       1 RES1   0.0000
     5 C5      11.4535 -13.7757   7.3374   C.2       1 RES1   0.0000
     6 C6      11.2032 -12.6343   6.5633   C.2       1 RES1   0.0000
     7 C7      10.2129 -12.7570   5.6138   C.2       1 RES1   0.0000
     8 Cl8      9.8334 -11.3104   4.6396   Cl        1 RES1   0.0000
     9 C9       9.4805 -13.9262   5.4031   C.2       1 RES1   0.0000
    10 C10      9.7065 -15.0684   6.1530   C.2       1 RES1   0.0000
    11 C11     10.7083 -14.9679   7.1242   C.2       1 RES1   0.0000
    12 C12     11.0664 -16.1349   7.9744   C.2       1 RES1   0.0000
    13 N13     10.6236 -17.3379   7.6181   N.2       1 RES1   0.0000
    14 C14     10.8095 -18.5455   8.4558   C.3       1 RES1   0.0000
    15 C15      9.4945 -19.2993   8.7503   C.3       1 RES1   0.0000
    16 C16      8.6623 -18.3064   9.5635   C.2       1 RES1   0.0000
    17 C17      9.2056 -17.5111  10.5844   C.2       1 RES1   0.0000
    18 S18      7.9527 -16.4648  11.1961   S.3       1 RES1   0.0000
    19 C19      6.6161 -16.9956  10.2325   C.2       1 RES1   0.0000
    20 C20      7.1842 -17.9921   9.4176   C.2       1 RES1   0.0000
    21 C21      6.3380 -18.6100   8.3406   C.2       1 RES1   0.0000
    22 C22      5.1737 -17.9587   7.8332   C.2       1 RES1   0.0000
    23 N23      4.7064 -18.7441   6.8271   N.2       1 RES1   0.0000
    24 N24      5.5903 -19.8595   6.7302   N.2       1 RES1   0.0000
    25 C25      6.6149 -19.7678   7.6570   C.2       1 RES1   0.0000
    26 C26     11.7633 -19.4217   7.7063   C.2       1 RES1   0.0000
    27 O27     11.9374 -19.3266   6.4880   O.co2     1 RES1   0.0000
    28 O28     12.3463 -20.3440   8.3133   O.co2     1 RES1  -1.0000
    29 N29     11.7046 -16.0615   9.0769   N.2       1 RES1   0.0000
@<TRIPOS>BOND
     1     1     2    1
     2     2     3    1
     3     2     4    1
     4     4     5    1
     5     5     6    2
     6     6     7    1
     7     7     8    1
     8     7     9    2
     9     9    10    1
    10    10    11    2
    11    11    12    1
    12    12    13    1
    13    13    14    1
    14    14    15    1
    15    15    16    1
    16    16    17    2
    17    17    18    1
    18    18    19    1
    19    19    20    2
    20    20    21    1
    21    21    22    1
    22    22    23    2
    23    23    24    1
    24    24    25    1
    25    14    26    1
    26    26    27    2
    27    26    28    1
    28    12    29    2
    29    29     2    1
    30    11     5    1
    31    20    16    1
    32    25    21    2
@<TRIPOS>SUBSTRUCTURE
     1 RES1        1 GROUP             0 ****  ****    0  
@<TRIPOS>MOLECULE
ligand_31
    29    32     1     0     0
SMALL
USER_CHARGES
****
Generated from the CSD

@<TRIPOS>ATOM
     1 C1      14.0348 -15.5679   7.5628   C.3       1 RES1   0.0000
     2 C2      13.1008 -15.1590   8.6818   C.3       1 RES1   0.0000
     3 C3      13.8600 -15.1511  10.0296   C.3       1 RES1   0.0000
     4 C4      12.4699 -13.7959   8.4399   C.3       1 RES1   0.0000
     5 C5      11.5185 -13.8053   7.2749   C.2       1 RES1   0.0000
     6 C6      11.2974 -12.6812   6.4676   C.2       1 RES1   0.0000
     7 C7      10.3650 -12.8311   5.4652   C.2       1 RES1   0.0000
     8 Cl8     10.0699 -11.4239   4.4074   Cl        1 RES1   0.0000
     9 C9       9.6601 -14.0125   5.2319   C.2       1 RES1   0.0000
    10 C10      9.8552 -15.1402   6.0111   C.2       1 RES1   0.0000
    11 C11     10.7976 -15.0144   7.0369   C.2       1 RES1   0.0000
    12 C12     11.0528 -16.1291   7.9866   C.2       1 RES1   0.0000
    13 N13     10.1980 -17.1484   7.9739   N.2       1 RES1   0.0000
    14 C14     10.4101 -18.3875   8.7577   C.3       1 RES1   0.0000
    15 C15      9.1376 -19.2502   8.9023   C.3       1 RES1   0.0000
    16 C16      9.5744 -20.4265   9.7769   C.2       1 RES1   0.0000
    17 C17     10.0892 -21.6207   9.2489   C.2       1 RES1   0.0000
    18 S18     10.5417 -22.6607  10.5727   S.3       1 RES1   0.0000
    19 C19     10.0602 -21.6751  11.9119   C.2       1 RES1   0.0000
    20 C20      9.5577 -20.5159  11.2924   C.2       1 RES1   0.0000
    21 C21      9.1513 -19.3562  12.1573   C.2       1 RES1   0.0000
    22 C22      9.1280 -19.4525  13.5811   C.2       1 RES1   0.0000
    23 N23      8.8022 -18.2155  14.0408   N.2       1 RES1   0.0000
    24 N24      8.6351 -17.3810  12.8960   N.2       1 RES1   0.0000
    25 C25      8.8703 -18.0836  11.7262   C.2       1 RES1   0.0000
    26 C26     11.4834 -19.1464   8.0426   C.2       1 RES1   0.0000
    27 O27     12.3808 -19.7500   8.6375   O.co2     1 RES1   0.0000
    28 O28     11.5311 -19.1022   6.7957   O.co2     1 RES1  -1.0000
    29 N29     12.0708 -16.2284   8.7459   N.2       1 RES1   0.0000
@<TRIPOS>BOND
     1     1     2    1
     2     2     3    1
     3     2     4    1
     4     4     5    1
     5     5     6    2
     6     6     7    1
     7     7     8    1
     8     7     9    2
     9     9    10    1
    10    10    11    2
    11    11    12    1
    12    12    13    1
    13    13    14    1
    14    14    15    1
    15    15    16    1
    16    16    17    2
    17    17    18    1
    18    18    19    1
    19    19    20    2
    20    20    21    1
    21    21    22    1
    22    22    23    2
    23    23    24    1
    24    24    25    1
    25    14    26    1
    26    26    27    2
    27    26    28    1
    28    12    29    2
    29    29     2    1
    30    11     5    1
    31    20    16    1
    32    25    21    2
@<TRIPOS>SUBSTRUCTURE
     1 RES1        1 GROUP             0 ****  ****    0  
@<TRIPOS>MOLECULE
ligand_32
    29    32     1     0     0
SMALL
USER_CHARGES
****
Generated from the CSD

@<TRIPOS>ATOM
     1 C1      13.3768 -14.9802  10.4168   C.3       1 RES1   0.0000
     2 C2      12.1643 -14.7339   9.5424   C.3       1 RES1   0.0000
     3 C3      11.0184 -14.1506  10.3998   C.3       1 RES1   0.0000
     4 C4      12.5342 -13.8252   8.3857   C.3       1 RES1   0.0000
     5 C5      11.4518 -13.7753   7.3378   C.2       1 RES1   0.0000
     6 C6      11.1995 -12.6335   6.5649   C.2       1 RES1   0.0000
     7 C7      10.2071 -12.7559   5.6176   C.2       1 RES1   0.0000
     8 Cl8      9.8250 -11.3088   4.6451   Cl        1 RES1   0.0000
     9 C9       9.4746 -13.9251   5.4077   C.2       1 RES1   0.0000
    10 C10      9.7026 -15.0677   6.1565   C.2       1 RES1   0.0000
    11 C11     10.7065 -14.9676   7.1255   C.2       1 RES1   0.0000
    12 C12     11.0668 -16.1350   7.9742   C.2       1 RES1   0.0000
    13 N13     10.6236 -17.3379   7.6181   N.2       1 RES1   0.0000
    14 C14     10.8095 -18.5455   8.4558   C.3       1 RES1   0.0000
    15 C15      9.4945 -19.2993   8.7503   C.3       1 RES1   0.0000
    16 C16      8.6923 -18.3346   9.6251   C.2       1 RES1   0.0000
    17 C17      7.6092 -17.5850   9.1401   C.2       1 RES1   0.0000
    18 S18      6.9223 -16.6849  10.4656   S.3       1 RES1   0.0000
    19 C19      7.9972 -17.1520  11.7396   C.2       1 RES1   0.0000
    20 C20      8.8859 -18.0364  11.1011   C.2       1 RES1   0.0000
    21 C21      9.9073 -18.7571  11.9350   C.2       1 RES1   0.0000
    22 C22      9.9009 -18.6838  13.3604   C.2       1 RES1   0.0000
    23 N23     10.8927 -19.5089  13.7882   N.2       1 RES1   0.0000
    24 N24     11.4879 -20.0770  12.6228   N.2       1 RES1   0.0000
    25 C25     10.8643 -19.6255  11.4720   C.2       1 RES1   0.0000
    26 C26     11.7633 -19.4217   7.7063   C.2       1 RES1   0.0000
    27 O27     12.7318 -18.9735   7.0861   O.co2     1 RES1   0.0000
    28 O28     11.5306 -20.6459   7.6282   O.co2     1 RES1  -1.0000
    29 N29     11.7074 -16.0621   9.0753   N.2       1 RES1   0.0000
@<TRIPOS>BOND
     1     1     2    1
     2     2     3    1
     3     2     4    1
     4     4     5    1
     5     5     6    2
     6     6     7    1
     7     7     8    1
     8     7     9    2
     9     9    10    1
    10    10    11    2
    11    11    12    1
    12    12    13    1
    13    13    14    1
    14    14    15    1
    15    15    16    1
    16    16    17    2
    17    17    18    1
    18    18    19    1
    19    19    20    2
    20    20    21    1
    21    21    22    1
    22    22    23    2
    23    23    24    1
    24    24    25    1
    25    14    26    1
    26    26    27    2
    27    26    28    1
    28    12    29    2
    29    29     2    1
    30    11     5    1
    31    20    16    1
    32    25    21    2
@<TRIPOS>SUBSTRUCTURE
     1 RES1        1 GROUP             0 ****  ****    0  
@<TRIPOS>MOLECULE
ligand_33
    29    32     1     0     0
SMALL
USER_CHARGES
****
Generated from the CSD

@<TRIPOS>ATOM
     1 C1      14.0423 -15.6029   7.5040   C.3       1 RES1   0.0000
     2 C2      13.1283 -15.1835   8.6355   C.3       1 RES1   0.0000
     3 C3      13.9070 -15.1797   9.9722   C.3       1 RES1   0.0000
     4 C4      12.5060 -13.8153   8.4000   C.3       1 RES1   0.0000
     5 C5      11.5378 -13.8185   7.2489   C.2       1 RES1   0.0000
     6 C6      11.3150 -12.6940   6.4425   C.2       1 RES1   0.0000
     7 C7      10.3669 -12.8376   5.4541   C.2       1 RES1   0.0000
     8 Cl8     10.0689 -11.4300   4.3978   Cl        1 RES1   0.0000
     9 C9       9.6482 -14.0131   5.2334   C.2       1 RES1   0.0000
    10 C10      9.8446 -15.1410   6.0121   C.2       1 RES1   0.0000
    11 C11     10.8028 -15.0217   7.0239   C.2       1 RES1   0.0000
    12 C12     11.0619 -16.1367   7.9721   C.2       1 RES1   0.0000
    13 N13     10.1980 -17.1484   7.9739   N.2       1 RES1   0.0000
    14 C14     10.4101 -18.3875   8.7577   C.3       1 RES1   0.0000
    15 C15      9.2196 -18.7493   9.6720   C.3       1 RES1   0.0000
    16 C16      9.2400 -17.6776  10.7630   C.2       1 RES1   0.0000
    17 C17      9.1044 -16.3075  10.4900   C.2       1 RES1   0.0000
    18 S18      9.0945 -15.4408  12.0025   S.3       1 RES1   0.0000
    19 C19      9.3166 -16.7548  13.1073   C.2       1 RES1   0.0000
    20 C20      9.3797 -17.8775  12.2615   C.2       1 RES1   0.0000
    21 C21      9.4451 -19.2441  12.8830   C.2       1 RES1   0.0000
    22 C22      8.9520 -19.4957  14.1986   C.2       1 RES1   0.0000
    23 N23      9.0886 -20.8319  14.4070   N.2       1 RES1   0.0000
    24 N24      9.6579 -21.3785  13.2187   N.2       1 RES1   0.0000
    25 C25      9.8621 -20.3962  12.2643   C.2       1 RES1   0.0000
    26 C26     10.6529 -19.4709   7.7543   C.2       1 RES1   0.0000
    27 O27     10.2799 -19.3868   6.5807   O.co2     1 RES1   0.0000
    28 O28     11.1763 -20.5405   8.1297   O.co2     1 RES1  -1.0000
    29 N29     12.0898 -16.2436   8.7168   N.2       1 RES1   0.0000
@<TRIPOS>BOND
     1     1     2    1
     2     2     3    1
     3     2     4    1
     4     4     5    1
     5     5     6    2
     6     6     7    1
     7     7     8    1
     8     7     9    2
     9     9    10    1
    10    10    11    2
    11    11    12    1
    12    12    13    1
    13    13    14    1
    14    14    15    1
    15    15    16    1
    16    16    17    2
    17    17    18    1
    18    18    19    1
    19    19    20    2
    20    20    21    1
    21    21    22    1
    22    22    23    2
    23    23    24    1
    24    24    25    1
    25    14    26    1
    26    26    27    2
    27    26    28    1
    28    12    29    2
    29    29     2    1
    30    11     5    1
    31    20    16    1
    32    25    21    2
@<TRIPOS>SUBSTRUCTURE
     1 RES1        1 GROUP             0 ****  ****    0  
@<TRIPOS>MOLECULE
ligand_34
    29    32     1     0     0
SMALL
USER_CHARGES
****
Generated from the CSD

@<TRIPOS>ATOM
     1 C1      13.3748 -14.9798  10.4185   C.3       1 RES1   0.0000
     2 C2      12.1629 -14.7336   9.5431   C.3       1 RES1   0.0000
     3 C3      11.0164 -14.1501  10.3994   C.3       1 RES1   0.0000
     4 C4      12.5339 -13.8252   8.3865   C.3       1 RES1   0.0000
     5 C5      11.4524 -13.7754   7.3377   C.2       1 RES1   0.0000
     6 C6      11.2007 -12.6338   6.5644   C.2       1 RES1   0.0000
     7 C7      10.2091 -12.7563   5.6163   C.2       1 RES1   0.0000
     8 Cl8      9.8279 -11.3094   4.6432   Cl        1 RES1   0.0000
     9 C9       9.4767 -13.9255   5.4061   C.2       1 RES1   0.0000
    10 C10      9.7040 -15.0680   6.1552   C.2       1 RES1   0.0000
    11 C11     10.7071 -14.9677   7.1251   C.2       1 RES1   0.0000
    12 C12     11.0666 -16.1349   7.9743   C.2       1 RES1   0.0000
    13 N13     10.6236 -17.3379   7.6181   N.2       1 RES1   0.0000
    14 C14     10.8095 -18.5455   8.4558   C.3       1 RES1   0.0000
    15 C15      9.4945 -19.2993   8.7503   C.3       1 RES1   0.0000
    16 C16      8.6775 -18.3204   9.5952   C.2       1 RES1   0.0000
    17 C17      8.9166 -18.1074  10.9617   C.2       1 RES1   0.0000
    18 S18      7.8334 -16.8631  11.5251   S.3       1 RES1   0.0000
    19 C19      6.9479 -16.5498  10.0710   C.2       1 RES1   0.0000
    20 C20      7.5354 -17.4285   9.1423   C.2       1 RES1   0.0000
    21 C21      7.1020 -17.3522   7.7055   C.2       1 RES1   0.0000
    22 C22      7.1236 -18.4963   6.8524   C.2       1 RES1   0.0000
    23 N23      6.5951 -18.0959   5.6657   N.2       1 RES1   0.0000
    24 N24      6.2549 -16.7181   5.8098   N.2       1 RES1   0.0000
    25 C25      6.5516 -16.2600   7.0823   C.2       1 RES1   0.0000
    26 C26     11.7633 -19.4217   7.7063   C.2       1 RES1   0.0000
    27 O27     11.9374 -19.3266   6.4880   O.co2     1 RES1   0.0000
    28 O28     12.3463 -20.3440   8.3133   O.co2     1 RES1  -1.0000
    29 N29     11.7064 -16.0619   9.0759   N.2       1 RES1   0.0000
@<TRIPOS>BOND
     1     1     2    1
     2     2     3    1
     3     2     4    1
     4     4     5    1
     5     5     6    2
     6     6     7    1
     7     7     8    1
     8     7     9    2
     9     9    10    1
    10    10    11    2
    11    11    12    1
    12    12    13    1
    13    13    14    1
    14    14    15    1
    15    15    16    1
    16    16    17    2
    17    17    18    1
    18    18    19    1
    19    19    20    2
    20    20    21    1
    21    21    22    1
    22    22    23    2
    23    23    24    1
    24    24    25    1
    25    14    26    1
    26    26    27    2
    27    26    28    1
    28    12    29    2
    29    29     2    1
    30    11     5    1
    31    20    16    1
    32    25    21    2
@<TRIPOS>SUBSTRUCTURE
     1 RES1        1 GROUP             0 ****  ****    0  
@<TRIPOS>MOLECULE
ligand_35
    29    32     1     0     0
SMALL
USER_CHARGES
****
Generated from the CSD

@<TRIPOS>ATOM
     1 C1      13.3748 -14.9799  10.4186   C.3       1 RES1   0.0000
     2 C2      12.1630 -14.7336   9.5430   C.3       1 RES1   0.0000
     3 C3      11.0165 -14.1499  10.3992   C.3       1 RES1   0.0000
     4 C4      12.5342 -13.8254   8.3864   C.3       1 RES1   0.0000
     5 C5      11.4528 -13.7755   7.3375   C.2       1 RES1   0.0000
     6 C6      11.2014 -12.6339   6.5640   C.2       1 RES1   0.0000
     7 C7      10.2099 -12.7564   5.6158   C.2       1 RES1   0.0000
     8 Cl8      9.8290 -11.3096   4.6425   Cl        1 RES1   0.0000
     9 C9       9.4774 -13.9256   5.4056   C.2       1 RES1   0.0000
    10 C10      9.7044 -15.0680   6.1549   C.2       1 RES1   0.0000
    11 C11     10.7074 -14.9678   7.1249   C.2       1 RES1   0.0000
    12 C12     11.0667 -16.1349   7.9743   C.2       1 RES1   0.0000
    13 N13     10.6236 -17.3379   7.6181   N.2       1 RES1   0.0000
    14 C14     10.8095 -18.5455   8.4558   C.3       1 RES1   0.0000
    15 C15      9.4945 -19.2993   8.7503   C.3       1 RES1   0.0000
    16 C16      8.6773 -18.3202   9.5948   C.2       1 RES1   0.0000
    17 C17      7.8773 -17.3121   9.0347   C.2       1 RES1   0.0000
    18 S18      7.0534 -16.4791  10.3255   S.3       1 RES1   0.0000
    19 C19      7.7053 -17.3170  11.6928   C.2       1 RES1   0.0000
    20 C20      8.5626 -18.2670  11.1077   C.2       1 RES1   0.0000
    21 C21      9.2258 -19.2815  11.9959   C.2       1 RES1   0.0000
    22 C22     10.4172 -19.9612  11.6012   C.2       1 RES1   0.0000
    23 N23     10.7849 -20.7304  12.6599   N.2       1 RES1   0.0000
    24 N24      9.8189 -20.5086  13.6859   N.2       1 RES1   0.0000
    25 C25      8.8607 -19.5945  13.2816   C.2       1 RES1   0.0000
    26 C26     11.7633 -19.4217   7.7063   C.2       1 RES1   0.0000
    27 O27     11.9374 -19.3266   6.4880   O.co2     1 RES1   0.0000
    28 O28     12.3463 -20.3440   8.3133   O.co2     1 RES1  -1.0000
    29 N29     11.7064 -16.0619   9.0759   N.2       1 RES1   0.0000
@<TRIPOS>BOND
     1     1     2    1
     2     2     3    1
     3     2     4    1
     4     4     5    1
     5     5     6    2
     6     6     7    1
     7     7     8    1
     8     7     9    2
     9     9    10    1
    10    10    11    2
    11    11    12    1
    12    12    13    1
    13    13    14    1
    14    14    15    1
    15    15    16    1
    16    16    17    2
    17    17    18    1
    18    18    19    1
    19    19    20    2
    20    20    21    1
    21    21    22    1
    22    22    23    2
    23    23    24    1
    24    24    25    1
    25    14    26    1
    26    26    27    2
    27    26    28    1
    28    12    29    2
    29    29     2    1
    30    11     5    1
    31    20    16    1
    32    25    21    2
@<TRIPOS>SUBSTRUCTURE
     1 RES1        1 GROUP             0 ****  ****    0  
@<TRIPOS>MOLECULE
ligand_36
    29    32     1     0     0
SMALL
USER_CHARGES
****
Generated from the CSD

@<TRIPOS>ATOM
     1 C1      14.0369 -15.5773   7.5469   C.3       1 RES1   0.0000
     2 C2      13.1083 -15.1656   8.6694   C.3       1 RES1   0.0000
     3 C3      13.8728 -15.1588  10.0142   C.3       1 RES1   0.0000
     4 C4      12.4797 -13.8011   8.4292   C.3       1 RES1   0.0000
     5 C5      11.5237 -13.8088   7.2680   C.2       1 RES1   0.0000
     6 C6      11.3022 -12.6846   6.4609   C.2       1 RES1   0.0000
     7 C7      10.3655 -12.8328   5.4622   C.2       1 RES1   0.0000
     8 Cl8     10.0696 -11.4255   4.4049   Cl        1 RES1   0.0000
     9 C9       9.6568 -14.0126   5.2323   C.2       1 RES1   0.0000
    10 C10      9.8524 -15.1404   6.0113   C.2       1 RES1   0.0000
    11 C11     10.7990 -15.0164   7.0334   C.2       1 RES1   0.0000
    12 C12     11.0553 -16.1311   7.9827   C.2       1 RES1   0.0000
    13 N13     10.1980 -17.1484   7.9739   N.2       1 RES1   0.0000
    14 C14     10.4101 -18.3875   8.7577   C.3       1 RES1   0.0000
    15 C15      9.2196 -18.7493   9.6720   C.3       1 RES1   0.0000
    16 C16      9.6769 -20.0090  10.4093   C.2       1 RES1   0.0000
    17 C17      9.4458 -21.3049   9.9223   C.2       1 RES1   0.0000
    18 S18     10.1950 -22.4450  11.0076   S.3       1 RES1   0.0000
    19 C19     10.8205 -21.3606  12.2032   C.2       1 RES1   0.0000
    20 C20     10.4416 -20.0954  11.7180   C.2       1 RES1   0.0000
    21 C21     10.9270 -18.8717  12.4426   C.2       1 RES1   0.0000
    22 C22     11.6350 -18.9617  13.6786   C.2       1 RES1   0.0000
    23 N23     11.9926 -17.6917  14.0055   N.2       1 RES1   0.0000
    24 N24     11.5037 -16.8453  12.9665   N.2       1 RES1   0.0000
    25 C25     10.8582 -17.5792  11.9857   C.2       1 RES1   0.0000
    26 C26     10.6529 -19.4709   7.7543   C.2       1 RES1   0.0000
    27 O27     11.4985 -20.3546   7.9206   O.co2     1 RES1   0.0000
    28 O28     10.0420 -19.4390   6.6659   O.co2     1 RES1  -1.0000
    29 N29     12.0760 -16.2325   8.7381   N.2       1 RES1   0.0000
@<TRIPOS>BOND
     1     1     2    1
     2     2     3    1
     3     2     4    1
     4     4     5    1
     5     5     6    2
     6     6     7    1
     7     7     8    1
     8     7     9    2
     9     9    10    1
    10    10    11    2
    11    11    12    1
    12    12    13    1
    13    13    14    1
    14    14    15    1
    15    15    16    1
    16    16    17    2
    17    17    18    1
    18    18    19    1
    19    19    20    2
    20    20    21    1
    21    21    22    1
    22    22    23    2
    23    23    24    1
    24    24    25    1
    25    14    26    1
    26    26    27    2
    27    26    28    1
    28    12    29    2
    29    29     2    1
    30    11     5    1
    31    20    16    1
    32    25    21    2
@<TRIPOS>SUBSTRUCTURE
     1 RES1        1 GROUP             0 ****  ****    0  
@<TRIPOS>MOLECULE
ligand_37
    29    32     1     0     0
SMALL
USER_CHARGES
****
Generated from the CSD

@<TRIPOS>ATOM
     1 C1      13.6640 -15.0697  10.1839   C.3       1 RES1   0.0000
     2 C2      12.3886 -14.7868   9.4165   C.3       1 RES1   0.0000
     3 C3      11.3349 -14.1801  10.3703   C.3       1 RES1   0.0000
     4 C4      12.6829 -13.8803   8.2366   C.3       1 RES1   0.0000
     5 C5      11.5175 -13.7958   7.2844   C.2       1 RES1   0.0000
     6 C6      11.2305 -12.6429   6.5406   C.2       1 RES1   0.0000
     7 C7      10.1587 -12.7337   5.6802   C.2       1 RES1   0.0000
     8 Cl8      9.7335 -11.2710   4.7500   Cl        1 RES1   0.0000
     9 C9       9.3809 -13.8824   5.5280   C.2       1 RES1   0.0000
    10 C10      9.6417 -15.0354   6.2497   C.2       1 RES1   0.0000
    11 C11     10.7261 -14.9673   7.1307   C.2       1 RES1   0.0000
    12 C12     11.1265 -16.1490   7.9407   C.2       1 RES1   0.0000
    13 N13     10.6236 -17.3379   7.6181   N.2       1 RES1   0.0000
    14 C14     10.8095 -18.5455   8.4558   C.3       1 RES1   0.0000
    15 C15      9.7857 -18.6609   9.6059   C.3       1 RES1   0.0000
    16 C16     10.1355 -19.9815  10.2938   C.2       1 RES1   0.0000
    17 C17      9.5984 -21.2155   9.8953   C.2       1 RES1   0.0000
    18 S18     10.3127 -22.4705  10.8720   S.3       1 RES1   0.0000
    19 C19     11.3182 -21.5146  11.9074   C.2       1 RES1   0.0000
    20 C20     11.0893 -20.2023  11.4541   C.2       1 RES1   0.0000
    21 C21     11.9015 -19.0847  12.0452   C.2       1 RES1   0.0000
    22 C22     12.9025 -19.3248  13.0339   C.2       1 RES1   0.0000
    23 N23     13.4901 -18.1239  13.2796   N.2       1 RES1   0.0000
    24 N24     12.8455 -17.1695  12.4378   N.2       1 RES1   0.0000
    25 C25     11.8716 -17.7685  11.6569   C.2       1 RES1   0.0000
    26 C26     10.6919 -19.7119   7.5257   C.2       1 RES1   0.0000
    27 O27     11.4277 -20.7001   7.6011   O.co2     1 RES1   0.0000
    28 O28      9.8781 -19.6555   6.5805   O.co2     1 RES1  -1.0000
    29 N29     11.8596 -16.0998   8.9838   N.2       1 RES1   0.0000
@<TRIPOS>BOND
     1     1     2    1
     2     2     3    1
     3     2     4    1
     4     4     5    1
     5     5     6    2
     6     6     7    1
     7     7     8    1
     8     7     9    2
     9     9    10    1
    10    10    11    2
    11    11    12    1
    12    12    13    1
    13    13    14    1
    14    14    15    1
    15    15    16    1
    16    16    17    2
    17    17    18    1
    18    18    19    1
    19    19    20    2
    20    20    21    1
    21    21    22    1
    22    22    23    2
    23    23    24    1
    24    24    25    1
    25    14    26    1
    26    26    27    2
    27    26    28    1
    28    12    29    2
    29    29     2    1
    30    11     5    1
    31    20    16    1
    32    25    21    2
@<TRIPOS>SUBSTRUCTURE
     1 RES1        1 GROUP             0 ****  ****    0  
@<TRIPOS>MOLECULE
ligand_38
    29    32     1     0     0
SMALL
USER_CHARGES
****
Generated from the CSD

@<TRIPOS>ATOM
     1 C1      14.0348 -15.5679   7.5628   C.3       1 RES1   0.0000
     2 C2      13.1008 -15.1590   8.6818   C.3       1 RES1   0.0000
     3 C3      13.8600 -15.1511  10.0296   C.3       1 RES1   0.0000
     4 C4      12.4699 -13.7959   8.4399   C.3       1 RES1   0.0000
     5 C5      11.5185 -13.8053   7.2749   C.2       1 RES1   0.0000
     6 C6      11.2974 -12.6812   6.4676   C.2       1 RES1   0.0000
     7 C7      10.3650 -12.8311   5.4652   C.2       1 RES1   0.0000
     8 Cl8     10.0699 -11.4239   4.4074   Cl        1 RES1   0.0000
     9 C9       9.6601 -14.0125   5.2319   C.2       1 RES1   0.0000
    10 C10      9.8552 -15.1402   6.0110   C.2       1 RES1   0.0000
    11 C11     10.7976 -15.0144   7.0369   C.2       1 RES1   0.0000
    12 C12     11.0528 -16.1291   7.9866   C.2       1 RES1   0.0000
    13 N13     10.1980 -17.1484   7.9739   N.2       1 RES1   0.0000
    14 C14     10.4101 -18.3875   8.7577   C.3       1 RES1   0.0000
    15 C15      9.1376 -19.2502   8.9023   C.3       1 RES1   0.0000
    16 C16      8.2202 -18.4242   9.8053   C.2       1 RES1   0.0000
    17 C17      7.1896 -17.6114   9.3080   C.2       1 RES1   0.0000
    18 S18      6.3341 -16.9154  10.6580   S.3       1 RES1   0.0000
    19 C19      7.2576 -17.5645  11.9704   C.2       1 RES1   0.0000
    20 C20      8.2314 -18.3459  11.3215   C.2       1 RES1   0.0000
    21 C21      9.1587 -19.1813  12.1582   C.2       1 RES1   0.0000
    22 C22     10.3201 -19.7988  11.6041   C.2       1 RES1   0.0000
    23 N23     10.9647 -20.3962  12.6411   N.2       1 RES1   0.0000
    24 N24     10.1937 -20.1336  13.8121   N.2       1 RES1   0.0000
    25 C25      9.0819 -19.3631  13.5166   C.2       1 RES1   0.0000
    26 C26     11.4834 -19.1464   8.0426   C.2       1 RES1   0.0000
    27 O27     11.7439 -18.9662   6.8496   O.co2     1 RES1   0.0000
    28 O28     12.0863 -20.0591   8.6447   O.co2     1 RES1  -1.0000
    29 N29     12.0708 -16.2284   8.7459   N.2       1 RES1   0.0000
@<TRIPOS>BOND
     1     1     2    1
     2     2     3    1
     3     2     4    1
     4     4     5    1
     5     5     6    2
     6     6     7    1
     7     7     8    1
     8     7     9    2
     9     9    10    1
    10    10    11    2
    11    11    12    1
    12    12    13    1
    13    13    14    1
    14    14    15    1
    15    15    16    1
    16    16    17    2
    17    17    18    1
    18    18    19    1
    19    19    20    2
    20    20    21    1
    21    21    22    1
    22    22    23    2
    23    23    24    1
    24    24    25    1
    25    14    26    1
    26    26    27    2
    27    26    28    1
    28    12    29    2
    29    29     2    1
    30    11     5    1
    31    20    16    1
    32    25    21    2
@<TRIPOS>SUBSTRUCTURE
     1 RES1        1 GROUP             0 ****  ****    0  
@<TRIPOS>MOLECULE
ligand_39
    29    32     1     0     0
SMALL
USER_CHARGES
****
Generated from the CSD

@<TRIPOS>ATOM
     1 C1      14.0344 -15.5659   7.5674   C.3       1 RES1   0.0000
     2 C2      13.0988 -15.1573   8.6851   C.3       1 RES1   0.0000
     3 C3      13.8563 -15.1487  10.0339   C.3       1 RES1   0.0000
     4 C4      12.4674 -13.7945   8.4423   C.3       1 RES1   0.0000
     5 C5      11.5175 -13.8046   7.2760   C.2       1 RES1   0.0000
     6 C6      11.2969 -12.6808   6.4682   C.2       1 RES1   0.0000
     7 C7      10.3658 -12.8314   5.4647   C.2       1 RES1   0.0000
     8 Cl8     10.0713 -11.4246   4.4063   Cl        1 RES1   0.0000
     9 C9       9.6618 -14.0132   5.2307   C.2       1 RES1   0.0000
    10 C10      9.8566 -15.1407   6.0103   C.2       1 RES1   0.0000
    11 C11     10.7976 -15.0142   7.0373   C.2       1 RES1   0.0000
    12 C12     11.0522 -16.1286   7.9876   C.2       1 RES1   0.0000
    13 N13     10.1980 -17.1484   7.9739   N.2       1 RES1   0.0000
    14 C14     10.4101 -18.3875   8.7577   C.3       1 RES1   0.0000
    15 C15      9.1376 -19.2502   8.9023   C.3       1 RES1   0.0000
    16 C16      8.1848 -18.3849   9.7286   C.2       1 RES1   0.0000
    17 C17      8.2880 -18.2525  11.1221   C.2       1 RES1   0.0000
    18 S18      7.0773 -17.1199  11.6610   S.3       1 RES1   0.0000
    19 C19      6.3036 -16.7623  10.1543   C.2       1 RES1   0.0000
    20 C20      7.0288 -17.5364   9.2299   C.2       1 RES1   0.0000
    21 C21      6.7190 -17.3879   7.7670   C.2       1 RES1   0.0000
    22 C22      6.0644 -18.4194   7.0290   C.2       1 RES1   0.0000
    23 N23      5.8680 -17.9259   5.7778   N.2       1 RES1   0.0000
    24 N24      6.3998 -16.6023   5.7684   N.2       1 RES1   0.0000
    25 C25      6.9116 -16.2600   7.0087   C.2       1 RES1   0.0000
    26 C26     11.4834 -19.1464   8.0426   C.2       1 RES1   0.0000
    27 O27     11.7439 -18.9662   6.8496   O.co2     1 RES1   0.0000
    28 O28     12.0863 -20.0591   8.6447   O.co2     1 RES1  -1.0000
    29 N29     12.0693 -16.2272   8.7481   N.2       1 RES1   0.0000
@<TRIPOS>BOND
     1     1     2    1
     2     2     3    1
     3     2     4    1
     4     4     5    1
     5     5     6    2
     6     6     7    1
     7     7     8    1
     8     7     9    2
     9     9    10    1
    10    10    11    2
    11    11    12    1
    12    12    13    1
    13    13    14    1
    14    14    15    1
    15    15    16    1
    16    16    17    2
    17    17    18    1
    18    18    19    1
    19    19    20    2
    20    20    21    1
    21    21    22    1
    22    22    23    2
    23    23    24    1
    24    24    25    1
    25    14    26    1
    26    26    27    2
    27    26    28    1
    28    12    29    2
    29    29     2    1
    30    11     5    1
    31    20    16    1
    32    25    21    2
@<TRIPOS>SUBSTRUCTURE
     1 RES1        1 GROUP             0 ****  ****    0  
@<TRIPOS>MOLECULE
ligand_40
    29    32     1     0     0
SMALL
USER_CHARGES
****
Generated from the CSD

@<TRIPOS>ATOM
     1 C1      14.0345 -15.5659   7.5678   C.3       1 RES1   0.0000
     2 C2      13.0986 -15.1571   8.6854   C.3       1 RES1   0.0000
     3 C3      13.8559 -15.1484  10.0342   C.3       1 RES1   0.0000
     4 C4      12.4673 -13.7945   8.4422   C.3       1 RES1   0.0000
     5 C5      11.5176 -13.8047   7.2759   C.2       1 RES1   0.0000
     6 C6      11.2970 -12.6809   6.4679   C.2       1 RES1   0.0000
     7 C7      10.3661 -12.8317   5.4643   C.2       1 RES1   0.0000
     8 Cl8     10.0717 -11.4250   4.4057   Cl        1 RES1   0.0000
     9 C9       9.6622 -14.0135   5.2302   C.2       1 RES1   0.0000
    10 C10      9.8569 -15.1409   6.0100   C.2       1 RES1   0.0000
    11 C11     10.7977 -15.0143   7.0372   C.2       1 RES1   0.0000
    12 C12     11.0522 -16.1286   7.9876   C.2       1 RES1   0.0000
    13 N13     10.1980 -17.1484   7.9739   N.2       1 RES1   0.0000
    14 C14     10.4101 -18.3875   8.7577   C.3       1 RES1   0.0000
    15 C15      9.1376 -19.2502   8.9023   C.3       1 RES1   0.0000
    16 C16      8.1877 -18.3880   9.7351   C.2       1 RES1   0.0000
    17 C17      7.4380 -17.3336   9.1907   C.2       1 RES1   0.0000
    18 S18      6.4273 -16.6683  10.4456   S.3       1 RES1   0.0000
    19 C19      6.9193 -17.6494  11.7842   C.2       1 RES1   0.0000
    20 C20      7.8741 -18.5123  11.2154   C.2       1 RES1   0.0000
    21 C21      8.4454 -19.6131  12.0639   C.2       1 RES1   0.0000
    22 C22      8.3148 -20.9871  11.7000   C.2       1 RES1   0.0000
    23 N23      9.0097 -21.6945  12.6298   N.2       1 RES1   0.0000
    24 N24      9.5574 -20.7467  13.5444   N.2       1 RES1   0.0000
    25 C25      9.2235 -19.4523  13.1832   C.2       1 RES1   0.0000
    26 C26     11.4834 -19.1464   8.0426   C.2       1 RES1   0.0000
    27 O27     11.7439 -18.9662   6.8496   O.co2     1 RES1   0.0000
    28 O28     12.0863 -20.0591   8.6447   O.co2     1 RES1  -1.0000
    29 N29     12.0691 -16.2271   8.7483   N.2       1 RES1   0.0000
@<TRIPOS>BOND
     1     1     2    1
     2     2     3    1
     3     2     4    1
     4     4     5    1
     5     5     6    2
     6     6     7    1
     7     7     8    1
     8     7     9    2
     9     9    10    1
    10    10    11    2
    11    11    12    1
    12    12    13    1
    13    13    14    1
    14    14    15    1
    15    15    16    1
    16    16    17    2
    17    17    18    1
    18    18    19    1
    19    19    20    2
    20    20    21    1
    21    21    22    1
    22    22    23    2
    23    23    24    1
    24    24    25    1
    25    14    26    1
    26    26    27    2
    27    26    28    1
    28    12    29    2
    29    29     2    1
    30    11     5    1
    31    20    16    1
    32    25    21    2
@<TRIPOS>SUBSTRUCTURE
     1 RES1        1 GROUP             0 ****  ****    0  
@<TRIPOS>MOLECULE
ligand_41
    29    32     1     0     0
SMALL
USER_CHARGES
****
Generated from the CSD

@<TRIPOS>ATOM
     1 C1      14.0278 -15.5901   7.4331   C.3       1 RES1   0.0000
     2 C2      13.1405 -15.1876   8.5918   C.3       1 RES1   0.0000
     3 C3      13.9510 -15.2005   9.9094   C.3       1 RES1   0.0000
     4 C4      12.5109 -13.8174   8.3897   C.3       1 RES1   0.0000
     5 C5      11.5154 -13.8067   7.2622   C.2       1 RES1   0.0000
     6 C6      11.2718 -12.6719   6.4767   C.2       1 RES1   0.0000
     7 C7      10.3005 -12.8037   5.5093   C.2       1 RES1   0.0000
     8 Cl8      9.9754 -11.3825   4.4795   Cl        1 RES1   0.0000
     9 C9       9.5784 -13.9774   5.2900   C.2       1 RES1   0.0000
    10 C10      9.7950 -15.1154   6.0484   C.2       1 RES1   0.0000
    11 C11     10.7769 -15.0080   7.0385   C.2       1 RES1   0.0000
    12 C12     11.0602 -16.1353   7.9652   C.2       1 RES1   0.0000
    13 N13     10.1980 -17.1484   7.9739   N.2       1 RES1   0.0000
    14 C14     10.5437 -18.4962   8.4826   C.3       1 RES1   0.0000
    15 C15      9.3131 -19.3952   8.7307   C.3       1 RES1   0.0000
    16 C16      8.7666 -19.6845   7.3317   C.2       1 RES1   0.0000
    17 C17      7.9474 -18.7856   6.6311   C.2       1 RES1   0.0000
    18 S18      7.6170 -19.4523   5.0546   S.3       1 RES1   0.0000
    19 C19      8.4560 -20.9612   5.1808   C.2       1 RES1   0.0000
    20 C20      9.0081 -20.9139   6.4741   C.2       1 RES1   0.0000
    21 C21      9.9284 -22.0209   6.9049   C.2       1 RES1   0.0000
    22 C22     10.6095 -22.8432   5.9577   C.2       1 RES1   0.0000
    23 N23     11.4103 -23.6713   6.6793   N.2       1 RES1   0.0000
    24 N24     11.2118 -23.3429   8.0532   N.2       1 RES1   0.0000
    25 C25     10.3060 -22.3051   8.1936   C.2       1 RES1   0.0000
    26 C26     11.4428 -19.1049   7.4529   C.2       1 RES1   0.0000
    27 O27     11.4453 -18.7417   6.2732   O.co2     1 RES1   0.0000
    28 O28     12.1602 -20.0762   7.7706   O.co2     1 RES1  -1.0000
    29 N29     12.1058 -16.2504   8.6835   N.2       1 RES1   0.0000
@<TRIPOS>BOND
     1     1     2    1
     2     2     3    1
     3     2     4    1
     4     4     5    1
     5     5     6    2
     6     6     7    1
     7     7     8    1
     8     7     9    2
     9     9    10    1
    10    10    11    2
    11    11    12    1
    12    12    13    1
    13    13    14    1
    14    14    15    1
    15    15    16    1
    16    16    17    2
    17    17    18    1
    18    18    19    1
    19    19    20    2
    20    20    21    1
    21    21    22    1
    22    22    23    2
    23    23    24    1
    24    24    25    1
    25    14    26    1
    26    26    27    2
    27    26    28    1
    28    12    29    2
    29    29     2    1
    30    11     5    1
    31    20    16    1
    32    25    21    2
@<TRIPOS>SUBSTRUCTURE
     1 RES1        1 GROUP             0 ****  ****    0  
@<TRIPOS>MOLECULE
ligand_42
    29    32     1     0     0
SMALL
USER_CHARGES
****
Generated from the CSD

@<TRIPOS>ATOM
     1 C1      14.0202 -15.5164   7.6345   C.3       1 RES1   0.0000
     2 C2      13.0717 -15.1439   8.7541   C.3       1 RES1   0.0000
     3 C3      13.8188 -15.1589  10.1086   C.3       1 RES1   0.0000
     4 C4      12.4277 -13.7826   8.5380   C.3       1 RES1   0.0000
     5 C5      11.4869 -13.7755   7.3644   C.2       1 RES1   0.0000
     6 C6      11.2603 -12.6355   6.5813   C.2       1 RES1   0.0000
     7 C7      10.3386 -12.7725   5.5672   C.2       1 RES1   0.0000
     8 Cl8     10.0371 -11.3445   4.5395   Cl        1 RES1   0.0000
     9 C9       9.6491 -13.9559   5.3002   C.2       1 RES1   0.0000
    10 C10      9.8501 -15.0991   6.0549   C.2       1 RES1   0.0000
    11 C11     10.7818 -14.9868   7.0919   C.2       1 RES1   0.0000
    12 C12     11.0411 -16.1202   8.0180   C.2       1 RES1   0.0000
    13 N13     10.1980 -17.1484   7.9739   N.2       1 RES1   0.0000
    14 C14     10.5437 -18.4962   8.4826   C.3       1 RES1   0.0000
    15 C15      9.3131 -19.3952   8.7307   C.3       1 RES1   0.0000
    16 C16      8.6227 -19.4773   7.3683   C.2       1 RES1   0.0000
    17 C17      9.0154 -20.3785   6.3665   C.2       1 RES1   0.0000
    18 S18      7.9272 -20.2112   5.0149   S.3       1 RES1   0.0000
    19 C19      6.9115 -18.9366   5.5984   C.2       1 RES1   0.0000
    20 C20      7.4380 -18.6661   6.8749   C.2       1 RES1   0.0000
    21 C21      6.7224 -17.6800   7.7544   C.2       1 RES1   0.0000
    22 C22      5.3658 -17.3063   7.5155   C.2       1 RES1   0.0000
    23 N23      5.0148 -16.4768   8.5336   N.2       1 RES1   0.0000
    24 N24      6.1563 -16.3578   9.3807   N.2       1 RES1   0.0000
    25 C25      7.2115 -17.1197   8.9082   C.2       1 RES1   0.0000
    26 C26     11.4428 -19.1049   7.4529   C.2       1 RES1   0.0000
    27 O27     11.4742 -18.7145   6.2823   O.co2     1 RES1   0.0000
    28 O28     12.1287 -20.1024   7.7586   O.co2     1 RES1  -1.0000
    29 N29     12.0533 -16.2259   8.7841   N.2       1 RES1   0.0000
@<TRIPOS>BOND
     1     1     2    1
     2     2     3    1
     3     2     4    1
     4     4     5    1
     5     5     6    2
     6     6     7    1
     7     7     8    1
     8     7     9    2
     9     9    10    1
    10    10    11    2
    11    11    12    1
    12    12    13    1
    13    13    14    1
    14    14    15    1
    15    15    16    1
    16    16    17    2
    17    17    18    1
    18    18    19    1
    19    19    20    2
    20    20    21    1
    21    21    22    1
    22    22    23    2
    23    23    24    1
    24    24    25    1
    25    14    26    1
    26    26    27    2
    27    26    28    1
    28    12    29    2
    29    29     2    1
    30    11     5    1
    31    20    16    1
    32    25    21    2
@<TRIPOS>SUBSTRUCTURE
     1 RES1        1 GROUP             0 ****  ****    0  
@<TRIPOS>MOLECULE
ligand_43
    29    32     1     0     0
SMALL
USER_CHARGES
****
Generated from the CSD

@<TRIPOS>ATOM
     1 C1      13.9807 -15.4262   7.6379   C.3       1 RES1   0.0000
     2 C2      13.0226 -15.0761   8.7565   C.3       1 RES1   0.0000
     3 C3      13.7684 -15.0731  10.1117   C.3       1 RES1   0.0000
     4 C4      12.3466 -13.7305   8.5395   C.3       1 RES1   0.0000
     5 C5      11.4070 -13.7460   7.3650   C.2       1 RES1   0.0000
     6 C6      11.1542 -12.6118   6.5814   C.2       1 RES1   0.0000
     7 C7      10.2370 -12.7708   5.5665   C.2       1 RES1   0.0000
     8 Cl8      9.9027 -11.3505   4.5383   Cl        1 RES1   0.0000
     9 C9       9.5761 -13.9702   5.2991   C.2       1 RES1   0.0000
    10 C10      9.8034 -15.1083   6.0542   C.2       1 RES1   0.0000
    11 C11     10.7311 -14.9737   7.0921   C.2       1 RES1   0.0000
    12 C12     11.0164 -16.1005   8.0186   C.2       1 RES1   0.0000
    13 N13     10.1980 -17.1484   7.9739   N.2       1 RES1   0.0000
    14 C14     10.2267 -18.2366   8.9788   C.3       1 RES1   0.0000
    15 C15      8.9344 -19.0812   9.0092   C.3       1 RES1   0.0000
    16 C16      8.8155 -19.6433   7.5916   C.2       1 RES1   0.0000
    17 C17      9.4960 -20.7953   7.1676   C.2       1 RES1   0.0000
    18 S18      9.0248 -21.1427   5.5256   S.3       1 RES1   0.0000
    19 C19      7.9584 -19.8120   5.2274   C.2       1 RES1   0.0000
    20 C20      7.9731 -19.1100   6.4467   C.2       1 RES1   0.0000
    21 C21      7.0486 -17.9371   6.6131   C.2       1 RES1   0.0000
    22 C22      5.9191 -17.7440   5.7621   C.2       1 RES1   0.0000
    23 N23      5.2655 -16.6520   6.2396   N.2       1 RES1   0.0000
    24 N24      5.9992 -16.1958   7.3747   N.2       1 RES1   0.0000
    25 C25      7.0963 -17.0045   7.6191   C.2       1 RES1   0.0000
    26 C26     11.4056 -19.0885   8.6272   C.2       1 RES1   0.0000
    27 O27     11.9095 -19.0952   7.5004   O.co2     1 RES1   0.0000
    28 O28     11.8504 -19.8900   9.4749   O.co2     1 RES1  -1.0000
    29 N29     12.0301 -16.1819   8.7857   N.2       1 RES1   0.0000
@<TRIPOS>BOND
     1     1     2    1
     2     2     3    1
     3     2     4    1
     4     4     5    1
     5     5     6    2
     6     6     7    1
     7     7     8    1
     8     7     9    2
     9     9    10    1
    10    10    11    2
    11    11    12    1
    12    12    13    1
    13    13    14    1
    14    14    15    1
    15    15    16    1
    16    16    17    2
    17    17    18    1
    18    18    19    1
    19    19    20    2
    20    20    21    1
    21    21    22    1
    22    22    23    2
    23    23    24    1
    24    24    25    1
    25    14    26    1
    26    26    27    2
    27    26    28    1
    28    12    29    2
    29    29     2    1
    30    11     5    1
    31    20    16    1
    32    25    21    2
@<TRIPOS>SUBSTRUCTURE
     1 RES1        1 GROUP             0 ****  ****    0  
@<TRIPOS>MOLECULE
ligand_44
    29    32     1     0     0
SMALL
USER_CHARGES
****
Generated from the CSD

@<TRIPOS>ATOM
     1 C1      13.5826 -15.0635  10.2720   C.3       1 RES1   0.0000
     2 C2      12.3503 -14.7764   9.4387   C.3       1 RES1   0.0000
     3 C3      11.2647 -14.1283  10.3273   C.3       1 RES1   0.0000
     4 C4      12.7168 -13.9038   8.2535   C.3       1 RES1   0.0000
     5 C5      11.5992 -13.8214   7.2454   C.2       1 RES1   0.0000
     6 C6      11.3693 -12.6816   6.4625   C.2       1 RES1   0.0000
     7 C7      10.3376 -12.7738   5.5546   C.2       1 RES1   0.0000
     8 Cl8      9.9843 -11.3265   4.5717   Cl        1 RES1   0.0000
     9 C9       9.5462 -13.9119   5.3923   C.2       1 RES1   0.0000
    10 C10      9.7508 -15.0516   6.1519   C.2       1 RES1   0.0000
    11 C11     10.7938 -14.9819   7.0815   C.2       1 RES1   0.0000
    12 C12     11.1332 -16.1508   7.9366   C.2       1 RES1   0.0000
    13 N13     10.6236 -17.3379   7.6181   N.2       1 RES1   0.0000
    14 C14     10.8095 -18.5455   8.4558   C.3       1 RES1   0.0000
    15 C15      9.9042 -19.7265   8.0435   C.3       1 RES1   0.0000
    16 C16     10.5962 -20.3246   6.8176   C.2       1 RES1   0.0000
    17 C17     10.9871 -19.5556   5.7105   C.2       1 RES1   0.0000
    18 S18     11.8106 -20.5947   4.5786   S.3       1 RES1   0.0000
    19 C19     11.6760 -22.1103   5.4040   C.2       1 RES1   0.0000
    20 C20     10.9899 -21.7724   6.5850   C.2       1 RES1   0.0000
    21 C21     10.7949 -22.8320   7.6325   C.2       1 RES1   0.0000
    22 C22     11.6472 -23.9740   7.7139   C.2       1 RES1   0.0000
    23 N23     11.2461 -24.6705   8.8101   N.2       1 RES1   0.0000
    24 N24     10.1602 -23.9456   9.3848   N.2       1 RES1   0.0000
    25 C25      9.8914 -22.7936   8.6651   C.2       1 RES1   0.0000
    26 C26     12.2532 -18.9169   8.3253   C.2       1 RES1   0.0000
    27 O27     12.9624 -18.5158   7.3981   O.co2     1 RES1   0.0000
    28 O28     12.7463 -19.7318   9.1326   O.co2     1 RES1  -1.0000
    29 N29     11.8173 -16.0897   9.0119   N.2       1 RES1   0.0000
@<TRIPOS>BOND
     1     1     2    1
     2     2     3    1
     3     2     4    1
     4     4     5    1
     5     5     6    2
     6     6     7    1
     7     7     8    1
     8     7     9    2
     9     9    10    1
    10    10    11    2
    11    11    12    1
    12    12    13    1
    13    13    14    1
    14    14    15    1
    15    15    16    1
    16    16    17    2
    17    17    18    1
    18    18    19    1
    19    19    20    2
    20    20    21    1
    21    21    22    1
    22    22    23    2
    23    23    24    1
    24    24    25    1
    25    14    26    1
    26    26    27    2
    27    26    28    1
    28    12    29    2
    29    29     2    1
    30    11     5    1
    31    20    16    1
    32    25    21    2
@<TRIPOS>SUBSTRUCTURE
     1 RES1        1 GROUP             0 ****  ****    0  
@<TRIPOS>MOLECULE
ligand_45
    29    32     1     0     0
SMALL
USER_CHARGES
****
Generated from the CSD

@<TRIPOS>ATOM
     1 C1      14.0261 -15.5600   7.5149   C.3       1 RES1   0.0000
     2 C2      13.1136 -15.1694   8.6580   C.3       1 RES1   0.0000
     3 C3      13.8984 -15.1829   9.9910   C.3       1 RES1   0.0000
     4 C4      12.4781 -13.8029   8.4501   C.3       1 RES1   0.0000
     5 C5      11.5046 -13.7940   7.3035   C.2       1 RES1   0.0000
     6 C6      11.2680 -12.6571   6.5187   C.2       1 RES1   0.0000
     7 C7      10.3167 -12.7913   5.5320   C.2       1 RES1   0.0000
     8 Cl8     10.0013 -11.3675   4.5028   Cl        1 RES1   0.0000
     9 C9       9.6075 -13.9691   5.2933   C.2       1 RES1   0.0000
    10 C10      9.8176 -15.1091   6.0504   C.2       1 RES1   0.0000
    11 C11     10.7793 -14.9994   7.0599   C.2       1 RES1   0.0000
    12 C12     11.0528 -16.1291   7.9866   C.2       1 RES1   0.0000
    13 N13     10.1980 -17.1484   7.9739   N.2       1 RES1   0.0000
    14 C14     10.5437 -18.4962   8.4826   C.3       1 RES1   0.0000
    15 C15      9.3131 -19.3952   8.7307   C.3       1 RES1   0.0000
    16 C16      9.8986 -20.6949   9.2851   C.2       1 RES1   0.0000
    17 C17     10.3112 -20.8384  10.6189   C.2       1 RES1   0.0000
    18 S18     10.8325 -22.4841  10.8623   S.3       1 RES1   0.0000
    19 C19     10.6157 -23.1111   9.2634   C.2       1 RES1   0.0000
    20 C20     10.1125 -22.0067   8.5514   C.2       1 RES1   0.0000
    21 C21      9.6775 -22.2062   7.1270   C.2       1 RES1   0.0000
    22 C22      9.4010 -23.5036   6.6004   C.2       1 RES1   0.0000
    23 N23      8.9582 -23.3120   5.3296   N.2       1 RES1   0.0000
    24 N24      8.9661 -21.9044   5.0981   N.2       1 RES1   0.0000
    25 C25      9.3945 -21.2153   6.2201   C.2       1 RES1   0.0000
    26 C26     11.4428 -19.1049   7.4529   C.2       1 RES1   0.0000
    27 O27     11.4291 -18.7576   6.2685   O.co2     1 RES1   0.0000
    28 O28     12.1779 -20.0607   7.7769   O.co2     1 RES1  -1.0000
    29 N29     12.0851 -16.2401   8.7246   N.2       1 RES1   0.0000
@<TRIPOS>BOND
     1     1     2    1
     2     2     3    1
     3     2     4    1
     4     4     5    1
     5     5     6    2
     6     6     7    1
     7     7     8    1
     8     7     9    2
     9     9    10    1
    10    10    11    2
    11    11    12    1
    12    12    13    1
    13    13    14    1
    14    14    15    1
    15    15    16    1
    16    16    17    2
    17    17    18    1
    18    18    19    1
    19    19    20    2
    20    20    21    1
    21    21    22    1
    22    22    23    2
    23    23    24    1
    24    24    25    1
    25    14    26    1
    26    26    27    2
    27    26    28    1
    28    12    29    2
    29    29     2    1
    30    11     5    1
    31    20    16    1
    32    25    21    2
@<TRIPOS>SUBSTRUCTURE
     1 RES1        1 GROUP             0 ****  ****    0  
@<TRIPOS>MOLECULE
ligand_46
    29    32     1     0     0
SMALL
USER_CHARGES
****
Generated from the CSD

@<TRIPOS>ATOM
     1 C1      13.1265 -14.9516  10.6203   C.3       1 RES1   0.0000
     2 C2      11.9907 -14.7155   9.6458   C.3       1 RES1   0.0000
     3 C3      10.7755 -14.1301  10.4000   C.3       1 RES1   0.0000
     4 C4      12.4536 -13.8137   8.5176   C.3       1 RES1   0.0000
     5 C5      11.4626 -13.7746   7.3824   C.2       1 RES1   0.0000
     6 C6      11.2727 -12.6390   6.5829   C.2       1 RES1   0.0000
     7 C7      10.3635 -12.7713   5.5568   C.2       1 RES1   0.0000
     8 Cl8     10.0602 -11.3323   4.5453   Cl        1 RES1   0.0000
     9 C9       9.6543 -13.9444   5.2948   C.2       1 RES1   0.0000
    10 C10      9.8220 -15.0810   6.0682   C.2       1 RES1   0.0000
    11 C11     10.7409 -14.9708   7.1171   C.2       1 RES1   0.0000
    12 C12     11.0322 -16.1310   8.0014   C.2       1 RES1   0.0000
    13 N13     10.6236 -17.3379   7.6181   N.2       1 RES1   0.0000
    14 C14     11.0750 -18.5872   8.2739   C.3       1 RES1   0.0000
    15 C15      9.9150 -19.4642   8.7931   C.3       1 RES1   0.0000
    16 C16      9.1919 -19.9251   7.5265   C.2       1 RES1   0.0000
    17 C17      8.2554 -19.1286   6.8494   C.2       1 RES1   0.0000
    18 S18      7.7342 -19.9814   5.4211   S.3       1 RES1   0.0000
    19 C19      8.6317 -21.4508   5.6001   C.2       1 RES1   0.0000
    20 C20      9.3538 -21.2425   6.7896   C.2       1 RES1   0.0000
    21 C21     10.3603 -22.2757   7.2108   C.2       1 RES1   0.0000
    22 C22     10.9346 -23.1899   6.2771   C.2       1 RES1   0.0000
    23 N23     11.8526 -23.9146   6.9698   N.2       1 RES1   0.0000
    24 N24     11.8304 -23.4330   8.3123   N.2       1 RES1   0.0000
    25 C25     10.9176 -22.4021   8.4589   C.2       1 RES1   0.0000
    26 C26     11.8745 -19.3243   7.2458   C.2       1 RES1   0.0000
    27 O27     11.7273 -19.1442   6.0336   O.co2     1 RES1   0.0000
    28 O28     12.6623 -20.2195   7.6159   O.co2     1 RES1  -1.0000
    29 N29     11.5782 -16.0484   9.1516   N.2       1 RES1   0.0000
@<TRIPOS>BOND
     1     1     2    1
     2     2     3    1
     3     2     4    1
     4     4     5    1
     5     5     6    2
     6     6     7    1
     7     7     8    1
     8     7     9    2
     9     9    10    1
    10    10    11    2
    11    11    12    1
    12    12    13    1
    13    13    14    1
    14    14    15    1
    15    15    16    1
    16    16    17    2
    17    17    18    1
    18    18    19    1
    19    19    20    2
    20    20    21    1
    21    21    22    1
    22    22    23    2
    23    23    24    1
    24    24    25    1
    25    14    26    1
    26    26    27    2
    27    26    28    1
    28    12    29    2
    29    29     2    1
    30    11     5    1
    31    20    16    1
    32    25    21    2
@<TRIPOS>SUBSTRUCTURE
     1 RES1        1 GROUP             0 ****  ****    0  
@<TRIPOS>MOLECULE
ligand_47
    29    32     1     0     0
SMALL
USER_CHARGES
****
Generated from the CSD

@<TRIPOS>ATOM
     1 C1      13.2295 -14.9584  10.5369   C.3       1 RES1   0.0000
     2 C2      12.0722 -14.7163   9.5895   C.3       1 RES1   0.0000
     3 C3      10.8834 -14.1107  10.3695   C.3       1 RES1   0.0000
     4 C4      12.5169 -13.8288   8.4428   C.3       1 RES1   0.0000
     5 C5      11.4980 -13.7867   7.3328   C.2       1 RES1   0.0000
     6 C6      11.3011 -12.6552   6.5292   C.2       1 RES1   0.0000
     7 C7      10.3647 -12.7846   5.5275   C.2       1 RES1   0.0000
     8 Cl8     10.0526 -11.3499   4.5125   Cl        1 RES1   0.0000
     9 C9       9.6354 -13.9512   5.2929   C.2       1 RES1   0.0000
    10 C10      9.8094 -15.0837   6.0709   C.2       1 RES1   0.0000
    11 C11     10.7558 -14.9763   7.0954   C.2       1 RES1   0.0000
    12 C12     11.0558 -16.1331   7.9812   C.2       1 RES1   0.0000
    13 N13     10.6236 -17.3379   7.6181   N.2       1 RES1   0.0000
    14 C14     11.0750 -18.5872   8.2739   C.3       1 RES1   0.0000
    15 C15      9.9150 -19.4642   8.7931   C.3       1 RES1   0.0000
    16 C16      9.1011 -19.7961   7.5414   C.2       1 RES1   0.0000
    17 C17      9.4090 -20.8714   6.6934   C.2       1 RES1   0.0000
    18 S18      8.1970 -20.9539   5.4430   S.3       1 RES1   0.0000
    19 C19      7.2254 -19.5866   5.8708   C.2       1 RES1   0.0000
    20 C20      7.8659 -19.0847   7.0187   C.2       1 RES1   0.0000
    21 C21      7.2242 -17.9470   7.7616   C.2       1 RES1   0.0000
    22 C22      5.8533 -17.6008   7.5671   C.2       1 RES1   0.0000
    23 N23      5.5859 -16.5982   8.4452   N.2       1 RES1   0.0000
    24 N24      6.7917 -16.3482   9.1652   N.2       1 RES1   0.0000
    25 C25      7.8048 -17.1982   8.7548   C.2       1 RES1   0.0000
    26 C26     11.8745 -19.3243   7.2458   C.2       1 RES1   0.0000
    27 O27     11.7528 -19.1184   6.0349   O.co2     1 RES1   0.0000
    28 O28     12.6342 -20.2449   7.6123   O.co2     1 RES1  -1.0000
    29 N29     11.6317 -16.0480   9.1166   N.2       1 RES1   0.0000
@<TRIPOS>BOND
     1     1     2    1
     2     2     3    1
     3     2     4    1
     4     4     5    1
     5     5     6    2
     6     6     7    1
     7     7     8    1
     8     7     9    2
     9     9    10    1
    10    10    11    2
    11    11    12    1
    12    12    13    1
    13    13    14    1
    14    14    15    1
    15    15    16    1
    16    16    17    2
    17    17    18    1
    18    18    19    1
    19    19    20    2
    20    20    21    1
    21    21    22    1
    22    22    23    2
    23    23    24    1
    24    24    25    1
    25    14    26    1
    26    26    27    2
    27    26    28    1
    28    12    29    2
    29    29     2    1
    30    11     5    1
    31    20    16    1
    32    25    21    2
@<TRIPOS>SUBSTRUCTURE
     1 RES1        1 GROUP             0 ****  ****    0  
@<TRIPOS>MOLECULE
ligand_48
    29    32     1     0     0
SMALL
USER_CHARGES
****
Generated from the CSD

@<TRIPOS>ATOM
     1 C1      13.0781 -14.9173  10.6327   C.3       1 RES1   0.0000
     2 C2      11.9777 -14.6869   9.6171   C.3       1 RES1   0.0000
     3 C3      10.7513 -14.0589  10.3170   C.3       1 RES1   0.0000
     4 C4      12.4925 -13.8248   8.4804   C.3       1 RES1   0.0000
     5 C5      11.5380 -13.7984   7.3141   C.2       1 RES1   0.0000
     6 C6      11.3947 -12.6817   6.4791   C.2       1 RES1   0.0000
     7 C7      10.5152 -12.8251   5.4288   C.2       1 RES1   0.0000
     8 Cl8     10.2710 -11.4088   4.3704   Cl        1 RES1   0.0000
     9 C9       9.7920 -13.9916   5.1760   C.2       1 RES1   0.0000
    10 C10      9.9138 -15.1096   5.9843   C.2       1 RES1   0.0000
    11 C11     10.8019 -14.9879   7.0582   C.2       1 RES1   0.0000
    12 C12     11.0433 -16.1288   7.9817   C.2       1 RES1   0.0000
    13 N13     10.6236 -17.3379   7.6181   N.2       1 RES1   0.0000
    14 C14     10.5134 -18.4712   8.5658   C.3       1 RES1   0.0000
    15 C15      9.1098 -19.1141   8.5965   C.3       1 RES1   0.0000
    16 C16      8.8602 -19.5489   7.1514   C.2       1 RES1   0.0000
    17 C17      9.3418 -20.7570   6.6236   C.2       1 RES1   0.0000
    18 S18      8.7699 -20.9108   4.9840   S.3       1 RES1   0.0000
    19 C19      7.9112 -19.4167   4.8201   C.2       1 RES1   0.0000
    20 C20      8.0729 -18.8140   6.0813   C.2       1 RES1   0.0000
    21 C21      7.3451 -17.5302   6.3641   C.2       1 RES1   0.0000
    22 C22      6.2321 -17.1082   5.5766   C.2       1 RES1   0.0000
    23 N23      5.7693 -15.9672   6.1527   N.2       1 RES1   0.0000
    24 N24      6.6003 -15.7097   7.2832   N.2       1 RES1   0.0000
    25 C25      7.5675 -16.6901   7.4267   C.2       1 RES1   0.0000
    26 C26     11.5413 -19.4690   8.1332   C.2       1 RES1   0.0000
    27 O27     12.0088 -19.4903   6.9910   O.co2     1 RES1   0.0000
    28 O28     11.8825 -20.3720   8.9252   O.co2     1 RES1  -1.0000
    29 N29     11.5551 -16.0249   9.1459   N.2       1 RES1   0.0000
@<TRIPOS>BOND
     1     1     2    1
     2     2     3    1
     3     2     4    1
     4     4     5    1
     5     5     6    2
     6     6     7    1
     7     7     8    1
     8     7     9    2
     9     9    10    1
    10    10    11    2
    11    11    12    1
    12    12    13    1
    13    13    14    1
    14    14    15    1
    15    15    16    1
    16    16    17    2
    17    17    18    1
    18    18    19    1
    19    19    20    2
    20    20    21    1
    21    21    22    1
    22    22    23    2
    23    23    24    1
    24    24    25    1
    25    14    26    1
    26    26    27    2
    27    26    28    1
    28    12    29    2
    29    29     2    1
    30    11     5    1
    31    20    16    1
    32    25    21    2
@<TRIPOS>SUBSTRUCTURE
     1 RES1        1 GROUP             0 ****  ****    0  
@<TRIPOS>MOLECULE
ligand_49
    29    32     1     0     0
SMALL
USER_CHARGES
****
Generated from the CSD

@<TRIPOS>ATOM
     1 C1      13.2986 -14.9594  10.4745   C.3       1 RES1   0.0000
     2 C2      12.1046 -14.7218   9.5726   C.3       1 RES1   0.0000
     3 C3      10.9361 -14.1444  10.4031   C.3       1 RES1   0.0000
     4 C4      12.4949 -13.8125   8.4232   C.3       1 RES1   0.0000
     5 C5      11.4361 -13.7706   7.3511   C.2       1 RES1   0.0000
     6 C6      11.1942 -12.6315   6.5710   C.2       1 RES1   0.0000
     7 C7      10.2242 -12.7613   5.6018   C.2       1 RES1   0.0000
     8 Cl8      9.8552 -11.3180   4.6187   Cl        1 RES1   0.0000
     9 C9       9.5038 -13.9353   5.3773   C.2       1 RES1   0.0000
    10 C10      9.7219 -15.0755   6.1326   C.2       1 RES1   0.0000
    11 C11     10.7030 -14.9678   7.1239   C.2       1 RES1   0.0000
    12 C12     11.0513 -16.1318   7.9823   C.2       1 RES1   0.0000
    13 N13     10.6236 -17.3379   7.6181   N.2       1 RES1   0.0000
    14 C14     10.8095 -18.5455   8.4558   C.3       1 RES1   0.0000
    15 C15      9.9042 -19.7265   8.0435   C.3       1 RES1   0.0000
    16 C16      8.4844 -19.2317   8.3238   C.2       1 RES1   0.0000
    17 C17      7.5728 -18.9107   7.3059   C.2       1 RES1   0.0000
    18 S18      6.0537 -18.4746   8.0416   S.3       1 RES1   0.0000
    19 C19      6.4748 -18.6154   9.7148   C.2       1 RES1   0.0000
    20 C20      7.8199 -19.0263   9.6734   C.2       1 RES1   0.0000
    21 C21      8.5051 -19.3780  10.9636   C.2       1 RES1   0.0000
    22 C22      9.0589 -20.6736  11.1914   C.2       1 RES1   0.0000
    23 N23      9.6668 -20.6192  12.4060   N.2       1 RES1   0.0000
    24 N24      9.4806 -19.2945  12.9013   N.2       1 RES1   0.0000
    25 C25      8.7757 -18.5171  11.9980   C.2       1 RES1   0.0000
    26 C26     12.2532 -18.9169   8.3253   C.2       1 RES1   0.0000
    27 O27     12.9489 -18.5586   7.3707   O.co2     1 RES1   0.0000
    28 O28     12.7602 -19.6895   9.1650   O.co2     1 RES1  -1.0000
    29 N29     11.6665 -16.0534   9.0974   N.2       1 RES1   0.0000
@<TRIPOS>BOND
     1     1     2    1
     2     2     3    1
     3     2     4    1
     4     4     5    1
     5     5     6    2
     6     6     7    1
     7     7     8    1
     8     7     9    2
     9     9    10    1
    10    10    11    2
    11    11    12    1
    12    12    13    1
    13    13    14    1
    14    14    15    1
    15    15    16    1
    16    16    17    2
    17    17    18    1
    18    18    19    1
    19    19    20    2
    20    20    21    1
    21    21    22    1
    22    22    23    2
    23    23    24    1
    24    24    25    1
    25    14    26    1
    26    26    27    2
    27    26    28    1
    28    12    29    2
    29    29     2    1
    30    11     5    1
    31    20    16    1
    32    25    21    2
@<TRIPOS>SUBSTRUCTURE
     1 RES1        1 GROUP             0 ****  ****    0  
@<TRIPOS>MOLECULE
ligand_50
    29    32     1     0     0
SMALL
USER_CHARGES
****
Generated from the CSD

@<TRIPOS>ATOM
     1 C1      13.3002 -14.9598  10.4733   C.3       1 RES1   0.0000
     2 C2      12.1058 -14.7221   9.5720   C.3       1 RES1   0.0000
     3 C3      10.9378 -14.1445  10.4029   C.3       1 RES1   0.0000
     4 C4      12.4958 -13.8128   8.4224   C.3       1 RES1   0.0000
     5 C5      11.4366 -13.7708   7.3508   C.2       1 RES1   0.0000
     6 C6      11.1946 -12.6316   6.5707   C.2       1 RES1   0.0000
     7 C7      10.2242 -12.7612   5.6019   C.2       1 RES1   0.0000
     8 Cl8      9.8551 -11.3178   4.6190   Cl        1 RES1   0.0000
     9 C9       9.5034 -13.9352   5.3777   C.2       1 RES1   0.0000
    10 C10      9.7217 -15.0753   6.1330   C.2       1 RES1   0.0000
    11 C11     10.7032 -14.9678   7.1239   C.2       1 RES1   0.0000
    12 C12     11.0517 -16.1318   7.9821   C.2       1 RES1   0.0000
    13 N13     10.6236 -17.3379   7.6181   N.2       1 RES1   0.0000
    14 C14     10.8095 -18.5455   8.4558   C.3       1 RES1   0.0000
    15 C15      9.9042 -19.7265   8.0435   C.3       1 RES1   0.0000
    16 C16      8.4845 -19.2327   8.3265   C.2       1 RES1   0.0000
    17 C17      7.6013 -18.8269   7.3140   C.2       1 RES1   0.0000
    18 S18      6.0710 -18.4228   8.0445   S.3       1 RES1   0.0000
    19 C19      6.4507 -18.6887   9.7124   C.2       1 RES1   0.0000
    20 C20      7.7911 -19.1147   9.6720   C.2       1 RES1   0.0000
    21 C21      8.4413 -19.5674  10.9488   C.2       1 RES1   0.0000
    22 C22      9.4241 -18.7743  11.6139   C.2       1 RES1   0.0000
    23 N23      9.7317 -19.4338  12.7620   N.2       1 RES1   0.0000
    24 N24      8.9328 -20.6154  12.7855   N.2       1 RES1   0.0000
    25 C25      8.1171 -20.6900  11.6692   C.2       1 RES1   0.0000
    26 C26     12.2532 -18.9169   8.3253   C.2       1 RES1   0.0000
    27 O27     12.9489 -18.5586   7.3707   O.co2     1 RES1   0.0000
    28 O28     12.7602 -19.6895   9.1650   O.co2     1 RES1  -1.0000
    29 N29     11.6674 -16.0536   9.0969   N.2       1 RES1   0.0000
@<TRIPOS>BOND
     1     1     2    1
     2     2     3    1
     3     2     4    1
     4     4     5    1
     5     5     6    2
     6     6     7    1
     7     7     8    1
     8     7     9    2
     9     9    10    1
    10    10    11    2
    11    11    12    1
    12    12    13    1
    13    13    14    1
    14    14    15    1
    15    15    16    1
    16    16    17    2
    17    17    18    1
    18    18    19    1
    19    19    20    2
    20    20    21    1
    21    21    22    1
    22    22    23    2
    23    23    24    1
    24    24    25    1
    25    14    26    1
    26    26    27    2
    27    26    28    1
    28    12    29    2
    29    29     2    1
    30    11     5    1
    31    20    16    1
    32    25    21    2
@<TRIPOS>SUBSTRUCTURE
     1 RES1        1 GROUP             0 ****  ****    0  
@<TRIPOS>MOLECULE
ligand_51
    29    32     1     0     0
SMALL
USER_CHARGES
****
Generated from the CSD

@<TRIPOS>ATOM
     1 C1      14.0369 -15.5773   7.5469   C.3       1 RES1   0.0000
     2 C2      13.1083 -15.1655   8.6694   C.3       1 RES1   0.0000
     3 C3      13.8727 -15.1587  10.0142   C.3       1 RES1   0.0000
     4 C4      12.4797 -13.8011   8.4293   C.3       1 RES1   0.0000
     5 C5      11.5237 -13.8088   7.2680   C.2       1 RES1   0.0000
     6 C6      11.3022 -12.6846   6.4609   C.2       1 RES1   0.0000
     7 C7      10.3655 -12.8328   5.4623   C.2       1 RES1   0.0000
     8 Cl8     10.0696 -11.4255   4.4049   Cl        1 RES1   0.0000
     9 C9       9.6568 -14.0126   5.2323   C.2       1 RES1   0.0000
    10 C10      9.8524 -15.1404   6.0113   C.2       1 RES1   0.0000
    11 C11     10.7990 -15.0164   7.0334   C.2       1 RES1   0.0000
    12 C12     11.0553 -16.1311   7.9828   C.2       1 RES1   0.0000
    13 N13     10.1980 -17.1484   7.9739   N.2       1 RES1   0.0000
    14 C14     10.4101 -18.3875   8.7577   C.3       1 RES1   0.0000
    15 C15      9.2196 -18.7493   9.6720   C.3       1 RES1   0.0000
    16 C16      9.2202 -17.6589  10.7446   C.2       1 RES1   0.0000
    17 C17      8.3836 -16.5333  10.6895   C.2       1 RES1   0.0000
    18 S18      8.6317 -15.5889  12.1336   S.3       1 RES1   0.0000
    19 C19      9.8654 -16.5284  12.9030   C.2       1 RES1   0.0000
    20 C20     10.0577 -17.5982  12.0095   C.2       1 RES1   0.0000
    21 C21     10.9859 -18.7108  12.4078   C.2       1 RES1   0.0000
    22 C22     11.4264 -19.6935  11.4712   C.2       1 RES1   0.0000
    23 N23     12.3085 -20.4851  12.1369   N.2       1 RES1   0.0000
    24 N24     12.3983 -19.9752  13.4661   N.2       1 RES1   0.0000
    25 C25     11.5918 -18.8616  13.6303   C.2       1 RES1   0.0000
    26 C26     10.6529 -19.4709   7.7543   C.2       1 RES1   0.0000
    27 O27     10.2799 -19.3868   6.5807   O.co2     1 RES1   0.0000
    28 O28     11.1763 -20.5405   8.1297   O.co2     1 RES1  -1.0000
    29 N29     12.0760 -16.2325   8.7381   N.2       1 RES1   0.0000
@<TRIPOS>BOND
     1     1     2    1
     2     2     3    1
     3     2     4    1
     4     4     5    1
     5     5     6    2
     6     6     7    1
     7     7     8    1
     8     7     9    2
     9     9    10    1
    10    10    11    2
    11    11    12    1
    12    12    13    1
    13    13    14    1
    14    14    15    1
    15    15    16    1
    16    16    17    2
    17    17    18    1
    18    18    19    1
    19    19    20    2
    20    20    21    1
    21    21    22    1
    22    22    23    2
    23    23    24    1
    24    24    25    1
    25    14    26    1
    26    26    27    2
    27    26    28    1
    28    12    29    2
    29    29     2    1
    30    11     5    1
    31    20    16    1
    32    25    21    2
@<TRIPOS>SUBSTRUCTURE
     1 RES1        1 GROUP             0 ****  ****    0  
@<TRIPOS>MOLECULE
ligand_52
    29    32     1     0     0
SMALL
USER_CHARGES
****
Generated from the CSD

@<TRIPOS>ATOM
     1 C1      14.0284 -15.8000   7.0266   C.3       1 RES1   0.0000
     2 C2      13.3005 -15.3695   8.2822   C.3       1 RES1   0.0000
     3 C3      14.2502 -15.4529   9.5004   C.3       1 RES1   0.0000
     4 C4      12.7335 -13.9623   8.1687   C.3       1 RES1   0.0000
     5 C5      11.6212 -13.8741   7.1600   C.2       1 RES1   0.0000
     6 C6      11.3585 -12.7128   6.4206   C.2       1 RES1   0.0000
     7 C7      10.2797 -12.7713   5.5666   C.2       1 RES1   0.0000
     8 Cl8      9.9258 -11.3149   4.5972   Cl        1 RES1   0.0000
     9 C9       9.4703 -13.8978   5.4153   C.2       1 RES1   0.0000
    10 C10      9.7030 -15.0602   6.1307   C.2       1 RES1   0.0000
    11 C11     10.7935 -15.0272   7.0058   C.2       1 RES1   0.0000
    12 C12     11.1116 -16.1858   7.8810   C.2       1 RES1   0.0000
    13 N13     10.1980 -17.1484   7.9739   N.2       1 RES1   0.0000
    14 C14     10.4101 -18.3875   8.7577   C.3       1 RES1   0.0000
    15 C15      9.2196 -18.7493   9.6720   C.3       1 RES1   0.0000
    16 C16      9.1223 -17.5770  10.6496   C.2       1 RES1   0.0000
    17 C17     10.1926 -16.7059  10.9059   C.2       1 RES1   0.0000
    18 S18      9.6464 -15.4672  12.0042   S.3       1 RES1   0.0000
    19 C19      8.0180 -15.9918  12.2684   C.2       1 RES1   0.0000
    20 C20      7.9173 -17.1421  11.4643   C.2       1 RES1   0.0000
    21 C21      6.5805 -17.8163  11.3367   C.2       1 RES1   0.0000
    22 C22      5.3782 -17.1924  11.7867   C.2       1 RES1   0.0000
    23 N23      4.3639 -18.0304  11.4450   N.2       1 RES1   0.0000
    24 N24      4.9570 -19.1499  10.7893   N.2       1 RES1   0.0000
    25 C25      6.3319 -19.0091  10.7045   C.2       1 RES1   0.0000
    26 C26     10.6529 -19.4709   7.7543   C.2       1 RES1   0.0000
    27 O27     10.7973 -19.2423   6.5499   O.co2     1 RES1   0.0000
    28 O28     10.6249 -20.6620   8.1275   O.co2     1 RES1  -1.0000
    29 N29     12.2221 -16.3735   8.4762   N.2       1 RES1   0.0000
@<TRIPOS>BOND
     1     1     2    1
     2     2     3    1
     3     2     4    1
     4     4     5    1
     5     5     6    2
     6     6     7    1
     7     7     8    1
     8     7     9    2
     9     9    10    1
    10    10    11    2
    11    11    12    1
    12    12    13    1
    13    13    14    1
    14    14    15    1
    15    15    16    1
    16    16    17    2
    17    17    18    1
    18    18    19    1
    19    19    20    2
    20    20    21    1
    21    21    22    1
    22    22    23    2
    23    23    24    1
    24    24    25    1
    25    14    26    1
    26    26    27    2
    27    26    28    1
    28    12    29    2
    29    29     2    1
    30    11     5    1
    31    20    16    1
    32    25    21    2
@<TRIPOS>SUBSTRUCTURE
     1 RES1        1 GROUP             0 ****  ****    0  
@<TRIPOS>MOLECULE
ligand_53
    29    32     1     0     0
SMALL
USER_CHARGES
****
Generated from the CSD

@<TRIPOS>ATOM
     1 C1      14.0369 -15.5772   7.5473   C.3       1 RES1   0.0000
     2 C2      13.1081 -15.1654   8.6696   C.3       1 RES1   0.0000
     3 C3      13.8724 -15.1585  10.0145   C.3       1 RES1   0.0000
     4 C4      12.4795 -13.8010   8.4294   C.3       1 RES1   0.0000
     5 C5      11.5237 -13.8088   7.2680   C.2       1 RES1   0.0000
     6 C6      11.3022 -12.6846   6.4608   C.2       1 RES1   0.0000
     7 C7      10.3657 -12.8329   5.4621   C.2       1 RES1   0.0000
     8 Cl8     10.0699 -11.4257   4.4046   Cl        1 RES1   0.0000
     9 C9       9.6570 -14.0128   5.2321   C.2       1 RES1   0.0000
    10 C10      9.8525 -15.1405   6.0112   C.2       1 RES1   0.0000
    11 C11     10.7990 -15.0164   7.0334   C.2       1 RES1   0.0000
    12 C12     11.0553 -16.1311   7.9828   C.2       1 RES1   0.0000
    13 N13     10.1980 -17.1484   7.9739   N.2       1 RES1   0.0000
    14 C14     10.4101 -18.3875   8.7577   C.3       1 RES1   0.0000
    15 C15      9.2196 -18.7493   9.6720   C.3       1 RES1   0.0000
    16 C16      9.1633 -17.6093  10.6901   C.2       1 RES1   0.0000
    17 C17     10.0248 -17.5295  11.7953   C.2       1 RES1   0.0000
    18 S18      9.6918 -16.0471  12.6500   S.3       1 RES1   0.0000
    19 C19      8.3861 -15.4320  11.6942   C.2       1 RES1   0.0000
    20 C20      8.2373 -16.4062  10.6899   C.2       1 RES1   0.0000
    21 C21      7.2596 -16.1501   9.5779   C.2       1 RES1   0.0000
    22 C22      6.0392 -16.8818   9.4668   C.2       1 RES1   0.0000
    23 N23      5.3674 -16.3437   8.4148   N.2       1 RES1   0.0000
    24 N24      6.1813 -15.2910   7.9007   N.2       1 RES1   0.0000
    25 C25      7.3482 -15.1573   8.6341   C.2       1 RES1   0.0000
    26 C26     10.6529 -19.4709   7.7543   C.2       1 RES1   0.0000
    27 O27     10.2799 -19.3868   6.5807   O.co2     1 RES1   0.0000
    28 O28     11.1763 -20.5405   8.1297   O.co2     1 RES1  -1.0000
    29 N29     12.0758 -16.2324   8.7383   N.2       1 RES1   0.0000
@<TRIPOS>BOND
     1     1     2    1
     2     2     3    1
     3     2     4    1
     4     4     5    1
     5     5     6    2
     6     6     7    1
     7     7     8    1
     8     7     9    2
     9     9    10    1
    10    10    11    2
    11    11    12    1
    12    12    13    1
    13    13    14    1
    14    14    15    1
    15    15    16    1
    16    16    17    2
    17    17    18    1
    18    18    19    1
    19    19    20    2
    20    20    21    1
    21    21    22    1
    22    22    23    2
    23    23    24    1
    24    24    25    1
    25    14    26    1
    26    26    27    2
    27    26    28    1
    28    12    29    2
    29    29     2    1
    30    11     5    1
    31    20    16    1
    32    25    21    2
@<TRIPOS>SUBSTRUCTURE
     1 RES1        1 GROUP             0 ****  ****    0  
@<TRIPOS>MOLECULE
ligand_54
    29    32     1     0     0
SMALL
USER_CHARGES
****
Generated from the CSD

@<TRIPOS>ATOM
     1 C1      14.0370 -15.5775   7.5467   C.3       1 RES1   0.0000
     2 C2      13.1084 -15.1657   8.6691   C.3       1 RES1   0.0000
     3 C3      13.8730 -15.1589  10.0139   C.3       1 RES1   0.0000
     4 C4      12.4799 -13.8012   8.4290   C.3       1 RES1   0.0000
     5 C5      11.5239 -13.8089   7.2678   C.2       1 RES1   0.0000
     6 C6      11.3023 -12.6847   6.4607   C.2       1 RES1   0.0000
     7 C7      10.3656 -12.8329   5.4621   C.2       1 RES1   0.0000
     8 Cl8     10.0697 -11.4256   4.4047   Cl        1 RES1   0.0000
     9 C9       9.6568 -14.0127   5.2322   C.2       1 RES1   0.0000
    10 C10      9.8524 -15.1404   6.0113   C.2       1 RES1   0.0000
    11 C11     10.7990 -15.0164   7.0333   C.2       1 RES1   0.0000
    12 C12     11.0553 -16.1311   7.9827   C.2       1 RES1   0.0000
    13 N13     10.1980 -17.1484   7.9739   N.2       1 RES1   0.0000
    14 C14     10.4101 -18.3875   8.7577   C.3       1 RES1   0.0000
    15 C15      9.2196 -18.7493   9.6720   C.3       1 RES1   0.0000
    16 C16      9.1684 -17.6135  10.6951   C.2       1 RES1   0.0000
    17 C17      8.6018 -16.3600  10.4165   C.2       1 RES1   0.0000
    18 S18      8.6677 -15.3897  11.8633   S.3       1 RES1   0.0000
    19 C19      9.4741 -16.4890  12.9300   C.2       1 RES1   0.0000
    20 C20      9.6692 -17.6287  12.1283   C.2       1 RES1   0.0000
    21 C21     10.2422 -18.8649  12.7619   C.2       1 RES1   0.0000
    22 C22      9.5329 -20.1035  12.7686   C.2       1 RES1   0.0000
    23 N23     10.3651 -21.0153  13.3378   N.2       1 RES1   0.0000
    24 N24     11.5695 -20.3253  13.6669   N.2       1 RES1   0.0000
    25 C25     11.5016 -18.9940  13.2924   C.2       1 RES1   0.0000
    26 C26     10.6529 -19.4709   7.7543   C.2       1 RES1   0.0000
    27 O27     10.2799 -19.3868   6.5807   O.co2     1 RES1   0.0000
    28 O28     11.1763 -20.5405   8.1297   O.co2     1 RES1  -1.0000
    29 N29     12.0760 -16.2325   8.7380   N.2       1 RES1   0.0000
@<TRIPOS>BOND
     1     1     2    1
     2     2     3    1
     3     2     4    1
     4     4     5    1
     5     5     6    2
     6     6     7    1
     7     7     8    1
     8     7     9    2
     9     9    10    1
    10    10    11    2
    11    11    12    1
    12    12    13    1
    13    13    14    1
    14    14    15    1
    15    15    16    1
    16    16    17    2
    17    17    18    1
    18    18    19    1
    19    19    20    2
    20    20    21    1
    21    21    22    1
    22    22    23    2
    23    23    24    1
    24    24    25    1
    25    14    26    1
    26    26    27    2
    27    26    28    1
    28    12    29    2
    29    29     2    1
    30    11     5    1
    31    20    16    1
    32    25    21    2
@<TRIPOS>SUBSTRUCTURE
     1 RES1        1 GROUP             0 ****  ****    0  
@<TRIPOS>MOLECULE
ligand_55
    29    32     1     0     0
SMALL
USER_CHARGES
****
Generated from the CSD

@<TRIPOS>ATOM
     1 C1      12.9951 -14.8839  10.6719   C.3       1 RES1   0.0000
     2 C2      11.8665 -14.6818   9.6815   C.3       1 RES1   0.0000
     3 C3      10.6201 -14.1443  10.4205   C.3       1 RES1   0.0000
     4 C4      12.3142 -13.7571   8.5657   C.3       1 RES1   0.0000
     5 C5      11.3396 -13.7458   7.4158   C.2       1 RES1   0.0000
     6 C6      11.1218 -12.6126   6.6201   C.2       1 RES1   0.0000
     7 C7      10.2333 -12.7704   5.5795   C.2       1 RES1   0.0000
     8 Cl8      9.8946 -11.3367   4.5718   Cl        1 RES1   0.0000
     9 C9       9.5700 -13.9661   5.2999   C.2       1 RES1   0.0000
    10 C10      9.7661 -15.1009   6.0692   C.2       1 RES1   0.0000
    11 C11     10.6647 -14.9650   7.1326   C.2       1 RES1   0.0000
    12 C12     10.9835 -16.1198   8.0145   C.2       1 RES1   0.0000
    13 N13     10.6236 -17.3379   7.6181   N.2       1 RES1   0.0000
    14 C14     10.8095 -18.5455   8.4558   C.3       1 RES1   0.0000
    15 C15      9.9042 -19.7265   8.0435   C.3       1 RES1   0.0000
    16 C16      8.5000 -19.2941   8.4684   C.2       1 RES1   0.0000
    17 C17      7.8845 -18.1255   7.9934   C.2       1 RES1   0.0000
    18 S18      6.2711 -18.0449   8.6486   S.3       1 RES1   0.0000
    19 C19      6.2689 -19.4727   9.6274   C.2       1 RES1   0.0000
    20 C20      7.5501 -20.0123   9.4102   C.2       1 RES1   0.0000
    21 C21      7.8791 -21.3498  10.0108   C.2       1 RES1   0.0000
    22 C22      6.8631 -22.2983  10.3351   C.2       1 RES1   0.0000
    23 N23      7.5081 -23.4123  10.7719   N.2       1 RES1   0.0000
    24 N24      8.9053 -23.1326  10.7053   N.2       1 RES1   0.0000
    25 C25      9.1376 -21.8587  10.2148   C.2       1 RES1   0.0000
    26 C26     12.2532 -18.9169   8.3253   C.2       1 RES1   0.0000
    27 O27     13.1556 -18.0757   8.2831   O.co2     1 RES1   0.0000
    28 O28     12.5600 -20.1167   8.1663   O.co2     1 RES1  -1.0000
    29 N29     11.5088 -16.0252   9.1734   N.2       1 RES1   0.0000
@<TRIPOS>BOND
     1     1     2    1
     2     2     3    1
     3     2     4    1
     4     4     5    1
     5     5     6    2
     6     6     7    1
     7     7     8    1
     8     7     9    2
     9     9    10    1
    10    10    11    2
    11    11    12    1
    12    12    13    1
    13    13    14    1
    14    14    15    1
    15    15    16    1
    16    16    17    2
    17    17    18    1
    18    18    19    1
    19    19    20    2
    20    20    21    1
    21    21    22    1
    22    22    23    2
    23    23    24    1
    24    24    25    1
    25    14    26    1
    26    26    27    2
    27    26    28    1
    28    12    29    2
    29    29     2    1
    30    11     5    1
    31    20    16    1
    32    25    21    2
@<TRIPOS>SUBSTRUCTURE
     1 RES1        1 GROUP             0 ****  ****    0  
@<TRIPOS>MOLECULE
ligand_56
    29    32     1     0     0
SMALL
USER_CHARGES
****
Generated from the CSD

@<TRIPOS>ATOM
     1 C1      13.3546 -14.9783  10.4369   C.3       1 RES1   0.0000
     2 C2      12.1526 -14.7313   9.5482   C.3       1 RES1   0.0000
     3 C3      10.9996 -14.1401  10.3903   C.3       1 RES1   0.0000
     4 C4      12.5387 -13.8290   8.3917   C.3       1 RES1   0.0000
     5 C5      11.4682 -13.7796   7.3317   C.2       1 RES1   0.0000
     6 C6      11.2287 -12.6403   6.5512   C.2       1 RES1   0.0000
     7 C7      10.2464 -12.7631   5.5935   C.2       1 RES1   0.0000
     8 Cl8      9.8805 -11.3188   4.6106   Cl        1 RES1   0.0000
     9 C9       9.5119 -13.9305   5.3805   C.2       1 RES1   0.0000
    10 C10      9.7273 -15.0707   6.1366   C.2       1 RES1   0.0000
    11 C11     10.7208 -14.9701   7.1163   C.2       1 RES1   0.0000
    12 C12     11.0674 -16.1351   7.9739   C.2       1 RES1   0.0000
    13 N13     10.6236 -17.3379   7.6181   N.2       1 RES1   0.0000
    14 C14     10.8095 -18.5455   8.4558   C.3       1 RES1   0.0000
    15 C15      9.9042 -19.7265   8.0435   C.3       1 RES1   0.0000
    16 C16     10.4443 -20.1601   6.6797   C.2       1 RES1   0.0000
    17 C17     10.1040 -19.5114   5.4825   C.2       1 RES1   0.0000
    18 S18     10.9919 -20.2546   4.1793   S.3       1 RES1   0.0000
    19 C19     11.8320 -21.4921   5.0509   C.2       1 RES1   0.0000
    20 C20     11.4106 -21.2916   6.3784   C.2       1 RES1   0.0000
    21 C21     12.0389 -22.1172   7.4654   C.2       1 RES1   0.0000
    22 C22     11.3322 -22.4497   8.6601   C.2       1 RES1   0.0000
    23 N23     12.1541 -23.2634   9.3743   N.2       1 RES1   0.0000
    24 N24     13.3469 -23.4202   8.6077   N.2       1 RES1   0.0000
    25 C25     13.2689 -22.7242   7.4132   C.2       1 RES1   0.0000
    26 C26     12.2532 -18.9169   8.3253   C.2       1 RES1   0.0000
    27 O27     12.9489 -18.5586   7.3707   O.co2     1 RES1   0.0000
    28 O28     12.7602 -19.6894   9.1651   O.co2     1 RES1  -1.0000
    29 N29     11.6960 -16.0598   9.0817   N.2       1 RES1   0.0000
@<TRIPOS>BOND
     1     1     2    1
     2     2     3    1
     3     2     4    1
     4     4     5    1
     5     5     6    2
     6     6     7    1
     7     7     8    1
     8     7     9    2
     9     9    10    1
    10    10    11    2
    11    11    12    1
    12    12    13    1
    13    13    14    1
    14    14    15    1
    15    15    16    1
    16    16    17    2
    17    17    18    1
    18    18    19    1
    19    19    20    2
    20    20    21    1
    21    21    22    1
    22    22    23    2
    23    23    24    1
    24    24    25    1
    25    14    26    1
    26    26    27    2
    27    26    28    1
    28    12    29    2
    29    29     2    1
    30    11     5    1
    31    20    16    1
    32    25    21    2
@<TRIPOS>SUBSTRUCTURE
     1 RES1        1 GROUP             0 ****  ****    0  
@<TRIPOS>MOLECULE
ligand_57
    29    32     1     0     0
SMALL
USER_CHARGES
****
Generated from the CSD

@<TRIPOS>ATOM
     1 C1      13.2208 -14.9370  10.5271   C.3       1 RES1   0.0000
     2 C2      12.0414 -14.7100   9.6034   C.3       1 RES1   0.0000
     3 C3      10.8519 -14.1457  10.4127   C.3       1 RES1   0.0000
     4 C4      12.4439 -13.7951   8.4627   C.3       1 RES1   0.0000
     5 C5      11.4050 -13.7623   7.3711   C.2       1 RES1   0.0000
     6 C6      11.1663 -12.6244   6.5881   C.2       1 RES1   0.0000
     7 C7      10.2159 -12.7625   5.6007   C.2       1 RES1   0.0000
     8 Cl8      9.8509 -11.3215   4.6128   Cl        1 RES1   0.0000
     9 C9       9.5117 -13.9434   5.3612   C.2       1 RES1   0.0000
    10 C10      9.7271 -15.0824   6.1190   C.2       1 RES1   0.0000
    11 C11     10.6884 -14.9664   7.1286   C.2       1 RES1   0.0000
    12 C12     11.0323 -16.1281   7.9918   C.2       1 RES1   0.0000
    13 N13     10.6236 -17.3379   7.6181   N.2       1 RES1   0.0000
    14 C14     10.8095 -18.5455   8.4558   C.3       1 RES1   0.0000
    15 C15      9.9042 -19.7265   8.0435   C.3       1 RES1   0.0000
    16 C16     10.2341 -19.9601   6.5683   C.2       1 RES1   0.0000
    17 C17     11.3754 -20.6573   6.1424   C.2       1 RES1   0.0000
    18 S18     11.3342 -20.7753   4.4036   S.3       1 RES1   0.0000
    19 C19      9.8801 -19.8958   4.0737   C.2       1 RES1   0.0000
    20 C20      9.4293 -19.5294   5.3552   C.2       1 RES1   0.0000
    21 C21      8.0975 -18.8449   5.4813   C.2       1 RES1   0.0000
    22 C22      7.7653 -18.0515   6.6203   C.2       1 RES1   0.0000
    23 N23      6.5390 -17.5212   6.3699   N.2       1 RES1   0.0000
    24 N24      6.1408 -17.9925   5.0838   N.2       1 RES1   0.0000
    25 C25      7.1161 -18.7994   4.5226   C.2       1 RES1   0.0000
    26 C26     12.2532 -18.9169   8.3253   C.2       1 RES1   0.0000
    27 O27     12.9561 -18.5357   7.3849   O.co2     1 RES1   0.0000
    28 O28     12.7528 -19.7121   9.1481   O.co2     1 RES1  -1.0000
    29 N29     11.6257 -16.0453   9.1183   N.2       1 RES1   0.0000
@<TRIPOS>BOND
     1     1     2    1
     2     2     3    1
     3     2     4    1
     4     4     5    1
     5     5     6    2
     6     6     7    1
     7     7     8    1
     8     7     9    2
     9     9    10    1
    10    10    11    2
    11    11    12    1
    12    12    13    1
    13    13    14    1
    14    14    15    1
    15    15    16    1
    16    16    17    2
    17    17    18    1
    18    18    19    1
    19    19    20    2
    20    20    21    1
    21    21    22    1
    22    22    23    2
    23    23    24    1
    24    24    25    1
    25    14    26    1
    26    26    27    2
    27    26    28    1
    28    12    29    2
    29    29     2    1
    30    11     5    1
    31    20    16    1
    32    25    21    2
@<TRIPOS>SUBSTRUCTURE
     1 RES1        1 GROUP             0 ****  ****    0  
@<TRIPOS>MOLECULE
ligand_58
    29    32     1     0     0
SMALL
USER_CHARGES
****
Generated from the CSD

@<TRIPOS>ATOM
     1 C1      13.3002 -14.9598  10.4733   C.3       1 RES1   0.0000
     2 C2      12.1058 -14.7221   9.5720   C.3       1 RES1   0.0000
     3 C3      10.9378 -14.1445  10.4030   C.3       1 RES1   0.0000
     4 C4      12.4958 -13.8128   8.4224   C.3       1 RES1   0.0000
     5 C5      11.4366 -13.7708   7.3508   C.2       1 RES1   0.0000
     6 C6      11.1945 -12.6316   6.5708   C.2       1 RES1   0.0000
     7 C7      10.2241 -12.7612   5.6019   C.2       1 RES1   0.0000
     8 Cl8      9.8549 -11.3178   4.6191   Cl        1 RES1   0.0000
     9 C9       9.5034 -13.9352   5.3777   C.2       1 RES1   0.0000
    10 C10      9.7216 -15.0753   6.1330   C.2       1 RES1   0.0000
    11 C11     10.7032 -14.9678   7.1239   C.2       1 RES1   0.0000
    12 C12     11.0517 -16.1318   7.9821   C.2       1 RES1   0.0000
    13 N13     10.6236 -17.3379   7.6181   N.2       1 RES1   0.0000
    14 C14     10.8095 -18.5455   8.4558   C.3       1 RES1   0.0000
    15 C15      9.9042 -19.7265   8.0435   C.3       1 RES1   0.0000
    16 C16     10.2538 -20.8367   9.0358   C.2       1 RES1   0.0000
    17 C17      9.8370 -20.8218  10.3760   C.2       1 RES1   0.0000
    18 S18     10.3677 -22.2980  11.1364   S.3       1 RES1   0.0000
    19 C19     11.2132 -23.0328   9.8166   C.2       1 RES1   0.0000
    20 C20     11.0507 -22.1021   8.7739   C.2       1 RES1   0.0000
    21 C21     11.5547 -22.4603   7.4043   C.2       1 RES1   0.0000
    22 C22     11.8614 -21.4619   6.4316   C.2       1 RES1   0.0000
    23 N23     12.3642 -22.1217   5.3547   N.2       1 RES1   0.0000
    24 N24     12.3619 -23.5097   5.6837   N.2       1 RES1   0.0000
    25 C25     11.8771 -23.7197   6.9636   C.2       1 RES1   0.0000
    26 C26     12.2532 -18.9169   8.3253   C.2       1 RES1   0.0000
    27 O27     12.9444 -18.5732   7.3621   O.co2     1 RES1   0.0000
    28 O28     12.7648 -19.6749   9.1754   O.co2     1 RES1  -1.0000
    29 N29     11.6674 -16.0536   9.0969   N.2       1 RES1   0.0000
@<TRIPOS>BOND
     1     1     2    1
     2     2     3    1
     3     2     4    1
     4     4     5    1
     5     5     6    2
     6     6     7    1
     7     7     8    1
     8     7     9    2
     9     9    10    1
    10    10    11    2
    11    11    12    1
    12    12    13    1
    13    13    14    1
    14    14    15    1
    15    15    16    1
    16    16    17    2
    17    17    18    1
    18    18    19    1
    19    19    20    2
    20    20    21    1
    21    21    22    1
    22    22    23    2
    23    23    24    1
    24    24    25    1
    25    14    26    1
    26    26    27    2
    27    26    28    1
    28    12    29    2
    29    29     2    1
    30    11     5    1
    31    20    16    1
    32    25    21    2
@<TRIPOS>SUBSTRUCTURE
     1 RES1        1 GROUP             0 ****  ****    0  
@<TRIPOS>MOLECULE
ligand_59
    29    32     1     0     0
SMALL
USER_CHARGES
****
Generated from the CSD

@<TRIPOS>ATOM
     1 C1      14.0304 -15.5587   7.5571   C.3       1 RES1   0.0000
     2 C2      13.1012 -15.1603   8.6839   C.3       1 RES1   0.0000
     3 C3      13.8669 -15.1621  10.0280   C.3       1 RES1   0.0000
     4 C4      12.4671 -13.7963   8.4561   C.3       1 RES1   0.0000
     5 C5      11.5101 -13.7977   7.2957   C.2       1 RES1   0.0000
     6 C6      11.2834 -12.6674   6.4986   C.2       1 RES1   0.0000
     7 C7      10.3464 -12.8106   5.4995   C.2       1 RES1   0.0000
     8 Cl8     10.0441 -11.3954   4.4546   Cl        1 RES1   0.0000
     9 C9       9.6421 -13.9912   5.2600   C.2       1 RES1   0.0000
    10 C10      9.8427 -15.1249   6.0291   C.2       1 RES1   0.0000
    11 C11     10.7898 -15.0060   7.0513   C.2       1 RES1   0.0000
    12 C12     11.0513 -16.1279   7.9908   C.2       1 RES1   0.0000
    13 N13     10.1980 -17.1484   7.9739   N.2       1 RES1   0.0000
    14 C14     10.5437 -18.4962   8.4826   C.3       1 RES1   0.0000
    15 C15      9.5533 -19.0276   9.5413   C.3       1 RES1   0.0000
    16 C16     10.1251 -20.3871   9.9468   C.2       1 RES1   0.0000
    17 C17     11.2009 -20.5280  10.8371   C.2       1 RES1   0.0000
    18 S18     11.4842 -22.2284  11.0971   S.3       1 RES1   0.0000
    19 C19     10.2838 -22.9006  10.0465   C.2       1 RES1   0.0000
    20 C20      9.6544 -21.7626   9.5093   C.2       1 RES1   0.0000
    21 C21      8.4513 -21.9534   8.6294   C.2       1 RES1   0.0000
    22 C22      7.7104 -23.1733   8.6237   C.2       1 RES1   0.0000
    23 N23      6.6549 -22.9734   7.7908   N.2       1 RES1   0.0000
    24 N24      6.7619 -21.6372   7.3031   N.2       1 RES1   0.0000
    25 C25      7.8666 -20.9964   7.8380   C.2       1 RES1   0.0000
    26 C26     10.5670 -19.3929   7.2849   C.2       1 RES1   0.0000
    27 O27      9.9304 -19.1466   6.2565   O.co2     1 RES1   0.0000
    28 O28     11.1828 -20.4772   7.3496   O.co2     1 RES1  -1.0000
    29 N29     12.0731 -16.2318   8.7443   N.2       1 RES1   0.0000
@<TRIPOS>BOND
     1     1     2    1
     2     2     3    1
     3     2     4    1
     4     4     5    1
     5     5     6    2
     6     6     7    1
     7     7     8    1
     8     7     9    2
     9     9    10    1
    10    10    11    2
    11    11    12    1
    12    12    13    1
    13    13    14    1
    14    14    15    1
    15    15    16    1
    16    16    17    2
    17    17    18    1
    18    18    19    1
    19    19    20    2
    20    20    21    1
    21    21    22    1
    22    22    23    2
    23    23    24    1
    24    24    25    1
    25    14    26    1
    26    26    27    2
    27    26    28    1
    28    12    29    2
    29    29     2    1
    30    11     5    1
    31    20    16    1
    32    25    21    2
@<TRIPOS>SUBSTRUCTURE
     1 RES1        1 GROUP             0 ****  ****    0  
@<TRIPOS>MOLECULE
ligand_60
    29    32     1     0     0
SMALL
USER_CHARGES
****
Generated from the CSD

@<TRIPOS>ATOM
     1 C1      14.0041 -15.4538   7.8001   C.3       1 RES1   0.0000
     2 C2      12.9887 -15.0698   8.8553   C.3       1 RES1   0.0000
     3 C3      13.6597 -15.0347  10.2486   C.3       1 RES1   0.0000
     4 C4      12.3339 -13.7272   8.5668   C.3       1 RES1   0.0000
     5 C5      11.4596 -13.7690   7.3436   C.2       1 RES1   0.0000
     6 C6      11.2569 -12.6547   6.5181   C.2       1 RES1   0.0000
     7 C7      10.3953 -12.8359   5.4591   C.2       1 RES1   0.0000
     8 Cl8     10.1262 -11.4416   4.3776   Cl        1 RES1   0.0000
     9 C9       9.7424 -14.0388   5.1873   C.2       1 RES1   0.0000
    10 C10      9.9212 -15.1576   5.9831   C.2       1 RES1   0.0000
    11 C11     10.7919 -15.0002   7.0662   C.2       1 RES1   0.0000
    12 C12     11.0193 -16.1036   8.0359   C.2       1 RES1   0.0000
    13 N13     10.1980 -17.1484   7.9739   N.2       1 RES1   0.0000
    14 C14     10.4101 -18.3875   8.7577   C.3       1 RES1   0.0000
    15 C15      9.1376 -19.2502   8.9023   C.3       1 RES1   0.0000
    16 C16      8.1707 -18.3696   9.6956   C.2       1 RES1   0.0000
    17 C17      8.5701 -17.5981  10.7980   C.2       1 RES1   0.0000
    18 S18      7.1965 -16.6831  11.3590   S.3       1 RES1   0.0000
    19 C19      5.9838 -17.2522  10.2625   C.2       1 RES1   0.0000
    20 C20      6.6886 -18.1554   9.4457   C.2       1 RES1   0.0000
    21 C21      5.9789 -18.7690   8.2719   C.2       1 RES1   0.0000
    22 C22      4.8107 -18.1755   7.7060   C.2       1 RES1   0.0000
    23 N23      4.4850 -18.9324   6.6250   N.2       1 RES1   0.0000
    24 N24      5.4573 -19.9730   6.5422   N.2       1 RES1   0.0000
    25 C25      6.3967 -19.8614   7.5534   C.2       1 RES1   0.0000
    26 C26     11.4834 -19.1464   8.0426   C.2       1 RES1   0.0000
    27 O27     12.4601 -18.5933   7.5290   O.co2     1 RES1   0.0000
    28 O28     11.3517 -20.3773   7.8797   O.co2     1 RES1  -1.0000
    29 N29     11.9892 -16.1697   8.8590   N.2       1 RES1   0.0000
@<TRIPOS>BOND
     1     1     2    1
     2     2     3    1
     3     2     4    1
     4     4     5    1
     5     5     6    2
     6     6     7    1
     7     7     8    1
     8     7     9    2
     9     9    10    1
    10    10    11    2
    11    11    12    1
    12    12    13    1
    13    13    14    1
    14    14    15    1
    15    15    16    1
    16    16    17    2
    17    17    18    1
    18    18    19    1
    19    19    20    2
    20    20    21    1
    21    21    22    1
    22    22    23    2
    23    23    24    1
    24    24    25    1
    25    14    26    1
    26    26    27    2
    27    26    28    1
    28    12    29    2
    29    29     2    1
    30    11     5    1
    31    20    16    1
    32    25    21    2
@<TRIPOS>SUBSTRUCTURE
     1 RES1        1 GROUP             0 ****  ****    0  
@<TRIPOS>MOLECULE
ligand_61
    29    32     1     0     0
SMALL
USER_CHARGES
****
Generated from the CSD

@<TRIPOS>ATOM
     1 C1      13.7065 -15.1978  10.2425   C.3       1 RES1   0.0000
     2 C2      12.4646 -14.8604   9.4429   C.3       1 RES1   0.0000
     3 C3      11.4186 -14.1976  10.3674   C.3       1 RES1   0.0000
     4 C4      12.8296 -13.9774   8.2650   C.3       1 RES1   0.0000
     5 C5      11.6925 -13.8446   7.2844   C.2       1 RES1   0.0000
     6 C6      11.4784 -12.6848   6.5270   C.2       1 RES1   0.0000
     7 C7      10.4242 -12.7309   5.6416   C.2       1 RES1   0.0000
     8 Cl8     10.0913 -11.2565   4.6925   Cl        1 RES1   0.0000
     9 C9       9.5966 -13.8426   5.4777   C.2       1 RES1   0.0000
    10 C10      9.7850 -15.0014   6.2125   C.2       1 RES1   0.0000
    11 C11     10.8502 -14.9784   7.1189   C.2       1 RES1   0.0000
    12 C12     11.1746 -16.1719   7.9455   C.2       1 RES1   0.0000
    13 N13     10.6236 -17.3379   7.6181   N.2       1 RES1   0.0000
    14 C14     10.5134 -18.4712   8.5658   C.3       1 RES1   0.0000
    15 C15      9.2454 -18.4175   9.4454   C.3       1 RES1   0.0000
    16 C16      8.0884 -18.4882   8.4475   C.2       1 RES1   0.0000
    17 C17      7.6579 -19.6887   7.8616   C.2       1 RES1   0.0000
    18 S18      6.2724 -19.3490   6.8595   S.3       1 RES1   0.0000
    19 C19      6.1617 -17.6338   7.0652   C.2       1 RES1   0.0000
    20 C20      7.2210 -17.3475   7.9460   C.2       1 RES1   0.0000
    21 C21      7.3675 -15.9444   8.4636   C.2       1 RES1   0.0000
    22 C22      6.3200 -14.9834   8.3364   C.2       1 RES1   0.0000
    23 N23      6.7502 -13.8647   8.9777   N.2       1 RES1   0.0000
    24 N24      8.0490 -14.1569   9.4900   N.2       1 RES1   0.0000
    25 C25      8.4257 -15.4546   9.1878   C.2       1 RES1   0.0000
    26 C26     10.5209 -19.7100   7.7263   C.2       1 RES1   0.0000
    27 O27     10.2427 -19.7007   6.5238   O.co2     1 RES1   0.0000
    28 O28     10.7320 -20.8128   8.2725   O.co2     1 RES1  -1.0000
    29 N29     11.8842 -16.1499   9.0056   N.2       1 RES1   0.0000
@<TRIPOS>BOND
     1     1     2    1
     2     2     3    1
     3     2     4    1
     4     4     5    1
     5     5     6    2
     6     6     7    1
     7     7     8    1
     8     7     9    2
     9     9    10    1
    10    10    11    2
    11    11    12    1
    12    12    13    1
    13    13    14    1
    14    14    15    1
    15    15    16    1
    16    16    17    2
    17    17    18    1
    18    18    19    1
    19    19    20    2
    20    20    21    1
    21    21    22    1
    22    22    23    2
    23    23    24    1
    24    24    25    1
    25    14    26    1
    26    26    27    2
    27    26    28    1
    28    12    29    2
    29    29     2    1
    30    11     5    1
    31    20    16    1
    32    25    21    2
@<TRIPOS>SUBSTRUCTURE
     1 RES1        1 GROUP             0 ****  ****    0  
@<TRIPOS>MOLECULE
ligand_62
    29    32     1     0     0
SMALL
USER_CHARGES
****
Generated from the CSD

@<TRIPOS>ATOM
     1 C1      13.3766 -14.9803  10.4172   C.3       1 RES1   0.0000
     2 C2      12.1644 -14.7339   9.5424   C.3       1 RES1   0.0000
     3 C3      11.0184 -14.1502  10.3992   C.3       1 RES1   0.0000
     4 C4      12.5349 -13.8256   8.3856   C.3       1 RES1   0.0000
     5 C5      11.4528 -13.7756   7.3374   C.2       1 RES1   0.0000
     6 C6      11.2010 -12.6339   6.5642   C.2       1 RES1   0.0000
     7 C7      10.2089 -12.7562   5.6165   C.2       1 RES1   0.0000
     8 Cl8      9.8275 -11.3092   4.6437   Cl        1 RES1   0.0000
     9 C9       9.4762 -13.9253   5.4067   C.2       1 RES1   0.0000
    10 C10      9.7037 -15.0678   6.1557   C.2       1 RES1   0.0000
    11 C11     10.7072 -14.9677   7.1251   C.2       1 RES1   0.0000
    12 C12     11.0670 -16.1350   7.9741   C.2       1 RES1   0.0000
    13 N13     10.6236 -17.3379   7.6181   N.2       1 RES1   0.0000
    14 C14     10.8095 -18.5455   8.4558   C.3       1 RES1   0.0000
    15 C15      9.4945 -19.2993   8.7503   C.3       1 RES1   0.0000
    16 C16      8.6773 -18.3203   9.5949   C.2       1 RES1   0.0000
    17 C17      7.5346 -17.6642   9.1113   C.2       1 RES1   0.0000
    18 S18      6.8551 -16.7124  10.4041   S.3       1 RES1   0.0000
    19 C19      8.0072 -17.0331  11.6557   C.2       1 RES1   0.0000
    20 C20      8.9161 -17.9113  11.0373   C.2       1 RES1   0.0000
    21 C21     10.0105 -18.5179  11.8695   C.2       1 RES1   0.0000
    22 C22     10.1436 -19.9308  12.0215   C.2       1 RES1   0.0000
    23 N23     11.2702 -20.1299  12.7555   N.2       1 RES1   0.0000
    24 N24     11.8114 -18.8407  13.0383   N.2       1 RES1   0.0000
    25 C25     11.0403 -17.8395  12.4724   C.2       1 RES1   0.0000
    26 C26     11.7633 -19.4217   7.7063   C.2       1 RES1   0.0000
    27 O27     11.9374 -19.3266   6.4880   O.co2     1 RES1   0.0000
    28 O28     12.3463 -20.3440   8.3133   O.co2     1 RES1  -1.0000
    29 N29     11.7073 -16.0621   9.0753   N.2       1 RES1   0.0000
@<TRIPOS>BOND
     1     1     2    1
     2     2     3    1
     3     2     4    1
     4     4     5    1
     5     5     6    2
     6     6     7    1
     7     7     8    1
     8     7     9    2
     9     9    10    1
    10    10    11    2
    11    11    12    1
    12    12    13    1
    13    13    14    1
    14    14    15    1
    15    15    16    1
    16    16    17    2
    17    17    18    1
    18    18    19    1
    19    19    20    2
    20    20    21    1
    21    21    22    1
    22    22    23    2
    23    23    24    1
    24    24    25    1
    25    14    26    1
    26    26    27    2
    27    26    28    1
    28    12    29    2
    29    29     2    1
    30    11     5    1
    31    20    16    1
    32    25    21    2
@<TRIPOS>SUBSTRUCTURE
     1 RES1        1 GROUP             0 ****  ****    0  
@<TRIPOS>MOLECULE
ligand_63
    29    32     1     0     0
SMALL
USER_CHARGES
****
Generated from the CSD

@<TRIPOS>ATOM
     1 C1      13.3761 -14.9802  10.4175   C.3       1 RES1   0.0000
     2 C2      12.1640 -14.7338   9.5425   C.3       1 RES1   0.0000
     3 C3      11.0179 -14.1501  10.3992   C.3       1 RES1   0.0000
     4 C4      12.5347 -13.8255   8.3858   C.3       1 RES1   0.0000
     5 C5      11.4528 -13.7755   7.3374   C.2       1 RES1   0.0000
     6 C6      11.2011 -12.6339   6.5642   C.2       1 RES1   0.0000
     7 C7      10.2091 -12.7562   5.6164   C.2       1 RES1   0.0000
     8 Cl8      9.8278 -11.3093   4.6434   Cl        1 RES1   0.0000
     9 C9       9.4764 -13.9254   5.4065   C.2       1 RES1   0.0000
    10 C10      9.7038 -15.0678   6.1555   C.2       1 RES1   0.0000
    11 C11     10.7073 -14.9677   7.1250   C.2       1 RES1   0.0000
    12 C12     11.0669 -16.1350   7.9741   C.2       1 RES1   0.0000
    13 N13     10.6236 -17.3379   7.6181   N.2       1 RES1   0.0000
    14 C14     10.8095 -18.5455   8.4558   C.3       1 RES1   0.0000
    15 C15      9.4945 -19.2993   8.7503   C.3       1 RES1   0.0000
    16 C16      8.6785 -18.3214   9.5974   C.2       1 RES1   0.0000
    17 C17      7.5886 -17.5971   9.0900   C.2       1 RES1   0.0000
    18 S18      6.8873 -16.6709  10.3897   S.3       1 RES1   0.0000
    19 C19      7.9633 -17.0925  11.6785   C.2       1 RES1   0.0000
    20 C20      8.8640 -17.9830  11.0658   C.2       1 RES1   0.0000
    21 C21      9.8908 -18.6701  11.9210   C.2       1 RES1   0.0000
    22 C22     11.2712 -18.3104  11.8729   C.2       1 RES1   0.0000
    23 N23     11.8930 -19.0603  12.8209   N.2       1 RES1   0.0000
    24 N24     10.8873 -19.8630  13.4368   N.2       1 RES1   0.0000
    25 C25      9.6403 -19.6077  12.8918   C.2       1 RES1   0.0000
    26 C26     11.7633 -19.4217   7.7063   C.2       1 RES1   0.0000
    27 O27     11.9374 -19.3266   6.4880   O.co2     1 RES1   0.0000
    28 O28     12.3463 -20.3440   8.3133   O.co2     1 RES1  -1.0000
    29 N29     11.7071 -16.0620   9.0755   N.2       1 RES1   0.0000
@<TRIPOS>BOND
     1     1     2    1
     2     2     3    1
     3     2     4    1
     4     4     5    1
     5     5     6    2
     6     6     7    1
     7     7     8    1
     8     7     9    2
     9     9    10    1
    10    10    11    2
    11    11    12    1
    12    12    13    1
    13    13    14    1
    14    14    15    1
    15    15    16    1
    16    16    17    2
    17    17    18    1
    18    18    19    1
    19    19    20    2
    20    20    21    1
    21    21    22    1
    22    22    23    2
    23    23    24    1
    24    24    25    1
    25    14    26    1
    26    26    27    2
    27    26    28    1
    28    12    29    2
    29    29     2    1
    30    11     5    1
    31    20    16    1
    32    25    21    2
@<TRIPOS>SUBSTRUCTURE
     1 RES1        1 GROUP             0 ****  ****    0  
@<TRIPOS>MOLECULE
ligand_64
    29    32     1     0     0
SMALL
USER_CHARGES
****
Generated from the CSD

@<TRIPOS>ATOM
     1 C1      14.0024 -15.4883   7.5760   C.3       1 RES1   0.0000
     2 C2      13.0674 -15.1206   8.7084   C.3       1 RES1   0.0000
     3 C3      13.8340 -15.1270  10.0520   C.3       1 RES1   0.0000
     4 C4      12.4100 -13.7647   8.4989   C.3       1 RES1   0.0000
     5 C5      11.4523 -13.7672   7.3390   C.2       1 RES1   0.0000
     6 C6      11.2058 -12.6306   6.5569   C.2       1 RES1   0.0000
     7 C7      10.2706 -12.7767   5.5566   C.2       1 RES1   0.0000
     8 Cl8      9.9434 -11.3532   4.5305   Cl        1 RES1   0.0000
     9 C9       9.5863 -13.9658   5.3020   C.2       1 RES1   0.0000
    10 C10      9.8068 -15.1059   6.0560   C.2       1 RES1   0.0000
    11 C11     10.7525 -14.9843   7.0792   C.2       1 RES1   0.0000
    12 C12     11.0338 -16.1138   8.0037   C.2       1 RES1   0.0000
    13 N13     10.1980 -17.1484   7.9739   N.2       1 RES1   0.0000
    14 C14     10.2267 -18.2366   8.9788   C.3       1 RES1   0.0000
    15 C15      8.9344 -19.0812   9.0092   C.3       1 RES1   0.0000
    16 C16      7.8397 -18.0855   9.3961   C.2       1 RES1   0.0000
    17 C17      8.1135 -16.8377   9.9775   C.2       1 RES1   0.0000
    18 S18      6.6090 -15.9810  10.1818   S.3       1 RES1   0.0000
    19 C19      5.4993 -17.1701   9.5892   C.2       1 RES1   0.0000
    20 C20      6.3396 -18.2354   9.2166   C.2       1 RES1   0.0000
    21 C21      5.7317 -19.4251   8.5287   C.2       1 RES1   0.0000
    22 C22      4.3877 -19.4099   8.0487   C.2       1 RES1   0.0000
    23 N23      4.1965 -20.5973   7.4153   N.2       1 RES1   0.0000
    24 N24      5.4233 -21.3187   7.5126   N.2       1 RES1   0.0000
    25 C25      6.3835 -20.5839   8.1874   C.2       1 RES1   0.0000
    26 C26     11.4056 -19.0885   8.6272   C.2       1 RES1   0.0000
    27 O27     11.9007 -19.1058   7.4966   O.co2     1 RES1   0.0000
    28 O28     11.8596 -19.8794   9.4800   O.co2     1 RES1  -1.0000
    29 N29     12.0578 -16.2101   8.7553   N.2       1 RES1   0.0000
@<TRIPOS>BOND
     1     1     2    1
     2     2     3    1
     3     2     4    1
     4     4     5    1
     5     5     6    2
     6     6     7    1
     7     7     8    1
     8     7     9    2
     9     9    10    1
    10    10    11    2
    11    11    12    1
    12    12    13    1
    13    13    14    1
    14    14    15    1
    15    15    16    1
    16    16    17    2
    17    17    18    1
    18    18    19    1
    19    19    20    2
    20    20    21    1
    21    21    22    1
    22    22    23    2
    23    23    24    1
    24    24    25    1
    25    14    26    1
    26    26    27    2
    27    26    28    1
    28    12    29    2
    29    29     2    1
    30    11     5    1
    31    20    16    1
    32    25    21    2
@<TRIPOS>SUBSTRUCTURE
     1 RES1        1 GROUP             0 ****  ****    0  
@<TRIPOS>MOLECULE
ligand_65
    29    32     1     0     0
SMALL
USER_CHARGES
****
Generated from the CSD

@<TRIPOS>ATOM
     1 C1      14.0262 -15.5609   7.5129   C.3       1 RES1   0.0000
     2 C2      13.1143 -15.1699   8.6562   C.3       1 RES1   0.0000
     3 C3      13.8997 -15.1832   9.9889   C.3       1 RES1   0.0000
     4 C4      12.4790 -13.8032   8.4484   C.3       1 RES1   0.0000
     5 C5      11.5050 -13.7944   7.3022   C.2       1 RES1   0.0000
     6 C6      11.2683 -12.6577   6.5172   C.2       1 RES1   0.0000
     7 C7      10.3165 -12.7919   5.5310   C.2       1 RES1   0.0000
     8 Cl8     10.0009 -11.3683   4.5015   Cl        1 RES1   0.0000
     9 C9       9.6069 -13.9696   5.2928   C.2       1 RES1   0.0000
    10 C10      9.8172 -15.1094   6.0501   C.2       1 RES1   0.0000
    11 C11     10.7794 -14.9998   7.0592   C.2       1 RES1   0.0000
    12 C12     11.0530 -16.1292   7.9860   C.2       1 RES1   0.0000
    13 N13     10.1980 -17.1484   7.9739   N.2       1 RES1   0.0000
    14 C14     10.5437 -18.4962   8.4826   C.3       1 RES1   0.0000
    15 C15      9.3131 -19.3952   8.7307   C.3       1 RES1   0.0000
    16 C16      8.6639 -18.8112   9.9864   C.2       1 RES1   0.0000
    17 C17      9.0379 -17.5744  10.5345   C.2       1 RES1   0.0000
    18 S18      8.0054 -17.2391  11.8985   S.3       1 RES1   0.0000
    19 C19      7.0442 -18.6788  11.9131   C.2       1 RES1   0.0000
    20 C20      7.5432 -19.4085  10.8184   C.2       1 RES1   0.0000
    21 C21      6.8557 -20.6878  10.4327   C.2       1 RES1   0.0000
    22 C22      5.6726 -21.1343  11.0946   C.2       1 RES1   0.0000
    23 N23      5.2771 -22.2622  10.4472   N.2       1 RES1   0.0000
    24 N24      6.2182 -22.4875   9.3992   N.2       1 RES1   0.0000
    25 C25      7.1884 -21.4998   9.3772   C.2       1 RES1   0.0000
    26 C26     11.4428 -19.1049   7.4529   C.2       1 RES1   0.0000
    27 O27     11.4637 -18.7242   6.2789   O.co2     1 RES1   0.0000
    28 O28     12.1401 -20.0931   7.7630   O.co2     1 RES1  -1.0000
    29 N29     12.0856 -16.2404   8.7236   N.2       1 RES1   0.0000
@<TRIPOS>BOND
     1     1     2    1
     2     2     3    1
     3     2     4    1
     4     4     5    1
     5     5     6    2
     6     6     7    1
     7     7     8    1
     8     7     9    2
     9     9    10    1
    10    10    11    2
    11    11    12    1
    12    12    13    1
    13    13    14    1
    14    14    15    1
    15    15    16    1
    16    16    17    2
    17    17    18    1
    18    18    19    1
    19    19    20    2
    20    20    21    1
    21    21    22    1
    22    22    23    2
    23    23    24    1
    24    24    25    1
    25    14    26    1
    26    26    27    2
    27    26    28    1
    28    12    29    2
    29    29     2    1
    30    11     5    1
    31    20    16    1
    32    25    21    2
@<TRIPOS>SUBSTRUCTURE
     1 RES1        1 GROUP             0 ****  ****    0  
@<TRIPOS>MOLECULE
ligand_66
    29    32     1     0     0
SMALL
USER_CHARGES
****
Generated from the CSD

@<TRIPOS>ATOM
     1 C1      14.0247 -15.8194   6.9849   C.3       1 RES1   0.0000
     2 C2      13.3136 -15.3871   8.2495   C.3       1 RES1   0.0000
     3 C3      14.2768 -15.4780   9.4566   C.3       1 RES1   0.0000
     4 C4      12.7531 -13.9766   8.1450   C.3       1 RES1   0.0000
     5 C5      11.6298 -13.8806   7.1493   C.2       1 RES1   0.0000
     6 C6      11.3651 -12.7165   6.4149   C.2       1 RES1   0.0000
     7 C7      10.2762 -12.7675   5.5733   C.2       1 RES1   0.0000
     8 Cl8      9.9193 -11.3075   4.6105   Cl        1 RES1   0.0000
     9 C9       9.4589 -13.8893   5.4294   C.2       1 RES1   0.0000
    10 C10      9.6934 -15.0542   6.1400   C.2       1 RES1   0.0000
    11 C11     10.7940 -15.0288   7.0026   C.2       1 RES1   0.0000
    12 C12     11.1158 -16.1907   7.8722   C.2       1 RES1   0.0000
    13 N13     10.1980 -17.1484   7.9739   N.2       1 RES1   0.0000
    14 C14     10.4101 -18.3875   8.7577   C.3       1 RES1   0.0000
    15 C15     10.7453 -18.1275  10.2423   C.3       1 RES1   0.0000
    16 C16      9.4964 -17.4417  10.7985   C.2       1 RES1   0.0000
    17 C17      9.2307 -16.0755  10.6169   C.2       1 RES1   0.0000
    18 S18      7.6794 -15.7150  11.3257   S.3       1 RES1   0.0000
    19 C19      7.2660 -17.2717  11.9602   C.2       1 RES1   0.0000
    20 C20      8.3616 -18.0715  11.5863   C.2       1 RES1   0.0000
    21 C21      8.3024 -19.5476  11.8617   C.2       1 RES1   0.0000
    22 C22      7.0625 -20.2256  12.0615   C.2       1 RES1   0.0000
    23 N23      7.3671 -21.5432  12.1984   N.2       1 RES1   0.0000
    24 N24      8.7842 -21.6535  12.0771   N.2       1 RES1   0.0000
    25 C25      9.3644 -20.4172  11.8490   C.2       1 RES1   0.0000
    26 C26      9.1429 -19.1737   8.6327   C.2       1 RES1   0.0000
    27 O27      8.0591 -18.6501   8.3593   O.co2     1 RES1   0.0000
    28 O28      9.1563 -20.3938   8.8974   O.co2     1 RES1  -1.0000
    29 N29     12.2320 -16.3855   8.4542   N.2       1 RES1   0.0000
@<TRIPOS>BOND
     1     1     2    1
     2     2     3    1
     3     2     4    1
     4     4     5    1
     5     5     6    2
     6     6     7    1
     7     7     8    1
     8     7     9    2
     9     9    10    1
    10    10    11    2
    11    11    12    1
    12    12    13    1
    13    13    14    1
    14    14    15    1
    15    15    16    1
    16    16    17    2
    17    17    18    1
    18    18    19    1
    19    19    20    2
    20    20    21    1
    21    21    22    1
    22    22    23    2
    23    23    24    1
    24    24    25    1
    25    14    26    1
    26    26    27    2
    27    26    28    1
    28    12    29    2
    29    29     2    1
    30    11     5    1
    31    20    16    1
    32    25    21    2
@<TRIPOS>SUBSTRUCTURE
     1 RES1        1 GROUP             0 ****  ****    0  
@<TRIPOS>MOLECULE
ligand_67
    29    32     1     0     0
SMALL
USER_CHARGES
****
Generated from the CSD

@<TRIPOS>ATOM
     1 C1      14.0273 -15.8034   7.0173   C.3       1 RES1   0.0000
     2 C2      13.3032 -15.3731   8.2752   C.3       1 RES1   0.0000
     3 C3      14.2562 -15.4587   9.4908   C.3       1 RES1   0.0000
     4 C4      12.7375 -13.9652   8.1645   C.3       1 RES1   0.0000
     5 C5      11.6226 -13.8750   7.1589   C.2       1 RES1   0.0000
     6 C6      11.3592 -12.7128   6.4212   C.2       1 RES1   0.0000
     7 C7      10.2780 -12.7693   5.5701   C.2       1 RES1   0.0000
     8 Cl8      9.9230 -11.3117   4.6029   Cl        1 RES1   0.0000
     9 C9       9.4669 -13.8949   5.4200   C.2       1 RES1   0.0000
    10 C10      9.7003 -15.0581   6.1338   C.2       1 RES1   0.0000
    11 C11     10.7932 -15.0270   7.0060   C.2       1 RES1   0.0000
    12 C12     11.1124 -16.1867   7.8793   C.2       1 RES1   0.0000
    13 N13     10.1980 -17.1484   7.9739   N.2       1 RES1   0.0000
    14 C14     10.4101 -18.3875   8.7577   C.3       1 RES1   0.0000
    15 C15     10.7453 -18.1275  10.2423   C.3       1 RES1   0.0000
    16 C16     10.9327 -19.5234  10.8388   C.2       1 RES1   0.0000
    17 C17     12.1085 -20.2722  10.6749   C.2       1 RES1   0.0000
    18 S18     11.9487 -21.7564  11.5751   S.3       1 RES1   0.0000
    19 C19     10.3428 -21.5660  12.1926   C.2       1 RES1   0.0000
    20 C20      9.9527 -20.3111  11.6898   C.2       1 RES1   0.0000
    21 C21      8.6340 -19.7386  12.1274   C.2       1 RES1   0.0000
    22 C22      7.9559 -20.2162  13.2889   C.2       1 RES1   0.0000
    23 N23      6.8553 -19.4321  13.4362   N.2       1 RES1   0.0000
    24 N24      6.8772 -18.4862  12.3687   N.2       1 RES1   0.0000
    25 C25      7.9915 -18.6633  11.5661   C.2       1 RES1   0.0000
    26 C26      9.1429 -19.1737   8.6327   C.2       1 RES1   0.0000
    27 O27      8.0534 -18.6461   8.3914   O.co2     1 RES1   0.0000
    28 O28      9.1637 -20.4004   8.8643   O.co2     1 RES1  -1.0000
    29 N29     12.2243 -16.3761   8.4714   N.2       1 RES1   0.0000
@<TRIPOS>BOND
     1     1     2    1
     2     2     3    1
     3     2     4    1
     4     4     5    1
     5     5     6    2
     6     6     7    1
     7     7     8    1
     8     7     9    2
     9     9    10    1
    10    10    11    2
    11    11    12    1
    12    12    13    1
    13    13    14    1
    14    14    15    1
    15    15    16    1
    16    16    17    2
    17    17    18    1
    18    18    19    1
    19    19    20    2
    20    20    21    1
    21    21    22    1
    22    22    23    2
    23    23    24    1
    24    24    25    1
    25    14    26    1
    26    26    27    2
    27    26    28    1
    28    12    29    2
    29    29     2    1
    30    11     5    1
    31    20    16    1
    32    25    21    2
@<TRIPOS>SUBSTRUCTURE
     1 RES1        1 GROUP             0 ****  ****    0  
@<TRIPOS>MOLECULE
ligand_68
    29    32     1     0     0
SMALL
USER_CHARGES
****
Generated from the CSD

@<TRIPOS>ATOM
     1 C1      13.4187 -14.9945  10.3872   C.3       1 RES1   0.0000
     2 C2      12.1996 -14.7414   9.5238   C.3       1 RES1   0.0000
     3 C3      11.0658 -14.1491  10.3909   C.3       1 RES1   0.0000
     4 C4      12.5648 -13.8370   8.3622   C.3       1 RES1   0.0000
     5 C5      11.4731 -13.7814   7.3244   C.2       1 RES1   0.0000
     6 C6      11.2211 -12.6391   6.5521   C.2       1 RES1   0.0000
     7 C7      10.2192 -12.7562   5.6143   C.2       1 RES1   0.0000
     8 Cl8      9.8377 -11.3081   4.6431   Cl        1 RES1   0.0000
     9 C9       9.4769 -13.9209   5.4131   C.2       1 RES1   0.0000
    10 C10      9.7042 -15.0638   6.1615   C.2       1 RES1   0.0000
    11 C11     10.7178 -14.9690   7.1210   C.2       1 RES1   0.0000
    12 C12     11.0782 -16.1374   7.9681   C.2       1 RES1   0.0000
    13 N13     10.6236 -17.3379   7.6181   N.2       1 RES1   0.0000
    14 C14     10.8095 -18.5455   8.4558   C.3       1 RES1   0.0000
    15 C15      9.4945 -19.2993   8.7503   C.3       1 RES1   0.0000
    16 C16      8.7303 -18.3727   9.6974   C.2       1 RES1   0.0000
    17 C17      8.3490 -17.0683   9.3465   C.2       1 RES1   0.0000
    18 S18      7.4312 -16.3876  10.6631   S.3       1 RES1   0.0000
    19 C19      7.5047 -17.6966  11.7935   C.2       1 RES1   0.0000
    20 C20      8.2466 -18.6737  11.1046   C.2       1 RES1   0.0000
    21 C21      8.4138 -20.0275  11.7350   C.2       1 RES1   0.0000
    22 C22      7.4856 -20.5286  12.6965   C.2       1 RES1   0.0000
    23 N23      7.8867 -21.7940  12.9890   N.2       1 RES1   0.0000
    24 N24      9.0486 -22.0504  12.2022   N.2       1 RES1   0.0000
    25 C25      9.3660 -20.9609  11.4088   C.2       1 RES1   0.0000
    26 C26     11.7633 -19.4217   7.7063   C.2       1 RES1   0.0000
    27 O27     12.7318 -18.9735   7.0861   O.co2     1 RES1   0.0000
    28 O28     11.5306 -20.6459   7.6282   O.co2     1 RES1  -1.0000
    29 N29     11.7296 -16.0672   9.0630   N.2       1 RES1   0.0000
@<TRIPOS>BOND
     1     1     2    1
     2     2     3    1
     3     2     4    1
     4     4     5    1
     5     5     6    2
     6     6     7    1
     7     7     8    1
     8     7     9    2
     9     9    10    1
    10    10    11    2
    11    11    12    1
    12    12    13    1
    13    13    14    1
    14    14    15    1
    15    15    16    1
    16    16    17    2
    17    17    18    1
    18    18    19    1
    19    19    20    2
    20    20    21    1
    21    21    22    1
    22    22    23    2
    23    23    24    1
    24    24    25    1
    25    14    26    1
    26    26    27    2
    27    26    28    1
    28    12    29    2
    29    29     2    1
    30    11     5    1
    31    20    16    1
    32    25    21    2
@<TRIPOS>SUBSTRUCTURE
     1 RES1        1 GROUP             0 ****  ****    0  
@<TRIPOS>MOLECULE
ligand_69
    29    32     1     0     0
SMALL
USER_CHARGES
****
Generated from the CSD

@<TRIPOS>ATOM
     1 C1      13.1680 -14.9079  10.5495   C.3       1 RES1   0.0000
     2 C2      12.0085 -14.6893   9.5991   C.3       1 RES1   0.0000
     3 C3      10.8044 -14.1115  10.3767   C.3       1 RES1   0.0000
     4 C4      12.4371 -13.7899   8.4555   C.3       1 RES1   0.0000
     5 C5      11.4208 -13.7679   7.3425   C.2       1 RES1   0.0000
     6 C6      11.2017 -12.6393   6.5406   C.2       1 RES1   0.0000
     7 C7      10.2713 -12.7870   5.5357   C.2       1 RES1   0.0000
     8 Cl8      9.9310 -11.3575   4.5227   Cl        1 RES1   0.0000
     9 C9       9.5685 -13.9689   5.2966   C.2       1 RES1   0.0000
    10 C10      9.7648 -15.0989   6.0729   C.2       1 RES1   0.0000
    11 C11     10.7056 -14.9729   7.1005   C.2       1 RES1   0.0000
    12 C12     11.0283 -16.1246   7.9849   C.2       1 RES1   0.0000
    13 N13     10.6236 -17.3379   7.6181   N.2       1 RES1   0.0000
    14 C14     10.5134 -18.4712   8.5658   C.3       1 RES1   0.0000
    15 C15      9.6363 -19.6291   8.0419   C.3       1 RES1   0.0000
    16 C16      9.6238 -20.6432   9.1868   C.2       1 RES1   0.0000
    17 C17     10.5709 -21.6722   9.3056   C.2       1 RES1   0.0000
    18 S18     10.2566 -22.5450  10.7816   S.3       1 RES1   0.0000
    19 C19      8.8544 -21.6989  11.3424   C.2       1 RES1   0.0000
    20 C20      8.6579 -20.7150  10.3560   C.2       1 RES1   0.0000
    21 C21      7.5824 -19.6873  10.5686   C.2       1 RES1   0.0000
    22 C22      6.6720 -19.7681  11.6649   C.2       1 RES1   0.0000
    23 N23      5.9012 -18.6502  11.6025   N.2       1 RES1   0.0000
    24 N24      6.3516 -17.9013  10.4751   N.2       1 RES1   0.0000
    25 C25      7.4082 -18.5350   9.8433   C.2       1 RES1   0.0000
    26 C26     11.9136 -18.9390   8.8104   C.2       1 RES1   0.0000
    27 O27     12.3143 -19.2854   9.9253   O.co2     1 RES1   0.0000
    28 O28     12.7395 -18.8996   7.8748   O.co2     1 RES1  -1.0000
    29 N29     11.5988 -16.0293   9.1222   N.2       1 RES1   0.0000
@<TRIPOS>BOND
     1     1     2    1
     2     2     3    1
     3     2     4    1
     4     4     5    1
     5     5     6    2
     6     6     7    1
     7     7     8    1
     8     7     9    2
     9     9    10    1
    10    10    11    2
    11    11    12    1
    12    12    13    1
    13    13    14    1
    14    14    15    1
    15    15    16    1
    16    16    17    2
    17    17    18    1
    18    18    19    1
    19    19    20    2
    20    20    21    1
    21    21    22    1
    22    22    23    2
    23    23    24    1
    24    24    25    1
    25    14    26    1
    26    26    27    2
    27    26    28    1
    28    12    29    2
    29    29     2    1
    30    11     5    1
    31    20    16    1
    32    25    21    2
@<TRIPOS>SUBSTRUCTURE
     1 RES1        1 GROUP             0 ****  ****    0  
@<TRIPOS>MOLECULE
ligand_70
    29    32     1     0     0
SMALL
USER_CHARGES
****
Generated from the CSD

@<TRIPOS>ATOM
     1 C1      14.0219 -15.5261   7.6074   C.3       1 RES1   0.0000
     2 C2      13.0815 -15.1496   8.7324   C.3       1 RES1   0.0000
     3 C3      13.8372 -15.1642  10.0821   C.3       1 RES1   0.0000
     4 C4      12.4393 -13.7871   8.5183   C.3       1 RES1   0.0000
     5 C5      11.4910 -13.7796   7.3508   C.2       1 RES1   0.0000
     6 C6      11.2621 -12.6403   6.5673   C.2       1 RES1   0.0000
     7 C7      10.3336 -12.7766   5.5594   C.2       1 RES1   0.0000
     8 Cl8     10.0289 -11.3495   4.5315   Cl        1 RES1   0.0000
     9 C9       9.6396 -13.9587   5.2987   C.2       1 RES1   0.0000
    10 C10      9.8426 -15.1013   6.0539   C.2       1 RES1   0.0000
    11 C11     10.7812 -14.9896   7.0848   C.2       1 RES1   0.0000
    12 C12     11.0438 -16.1222   8.0110   C.2       1 RES1   0.0000
    13 N13     10.1980 -17.1484   7.9739   N.2       1 RES1   0.0000
    14 C14     10.5437 -18.4962   8.4826   C.3       1 RES1   0.0000
    15 C15      9.3131 -19.3952   8.7307   C.3       1 RES1   0.0000
    16 C16      9.8851 -20.6436   9.4041   C.2       1 RES1   0.0000
    17 C17      9.9977 -21.8803   8.7498   C.2       1 RES1   0.0000
    18 S18     10.7718 -23.0087   9.8299   S.3       1 RES1   0.0000
    19 C19     10.9674 -22.0062  11.2276   C.2       1 RES1   0.0000
    20 C20     10.4290 -20.7732  10.8156   C.2       1 RES1   0.0000
    21 C21     10.5381 -19.5948  11.7416   C.2       1 RES1   0.0000
    22 C22     11.3503 -19.6335  12.9146   C.2       1 RES1   0.0000
    23 N23     11.2857 -18.3915  13.4632   N.2       1 RES1   0.0000
    24 N24     10.4409 -17.6113  12.6191   N.2       1 RES1   0.0000
    25 C25      9.9913 -18.3521  11.5391   C.2       1 RES1   0.0000
    26 C26     11.4428 -19.1049   7.4529   C.2       1 RES1   0.0000
    27 O27     12.0401 -20.1694   7.6366   O.co2     1 RES1   0.0000
    28 O28     11.6711 -18.4771   6.3981   O.co2     1 RES1  -1.0000
    29 N29     12.0607 -16.2291   8.7707   N.2       1 RES1   0.0000
@<TRIPOS>BOND
     1     1     2    1
     2     2     3    1
     3     2     4    1
     4     4     5    1
     5     5     6    2
     6     6     7    1
     7     7     8    1
     8     7     9    2
     9     9    10    1
    10    10    11    2
    11    11    12    1
    12    12    13    1
    13    13    14    1
    14    14    15    1
    15    15    16    1
    16    16    17    2
    17    17    18    1
    18    18    19    1
    19    19    20    2
    20    20    21    1
    21    21    22    1
    22    22    23    2
    23    23    24    1
    24    24    25    1
    25    14    26    1
    26    26    27    2
    27    26    28    1
    28    12    29    2
    29    29     2    1
    30    11     5    1
    31    20    16    1
    32    25    21    2
@<TRIPOS>SUBSTRUCTURE
     1 RES1        1 GROUP             0 ****  ****    0  
@<TRIPOS>MOLECULE
ligand_71
    29    32     1     0     0
SMALL
USER_CHARGES
****
Generated from the CSD

@<TRIPOS>ATOM
     1 C1      13.3002 -14.9597  10.4733   C.3       1 RES1   0.0000
     2 C2      12.1057 -14.7220   9.5721   C.3       1 RES1   0.0000
     3 C3      10.9377 -14.1446  10.4031   C.3       1 RES1   0.0000
     4 C4      12.4955 -13.8127   8.4225   C.3       1 RES1   0.0000
     5 C5      11.4362 -13.7707   7.3510   C.2       1 RES1   0.0000
     6 C6      11.1940 -12.6315   6.5710   C.2       1 RES1   0.0000
     7 C7      10.2235 -12.7611   5.6022   C.2       1 RES1   0.0000
     8 Cl8      9.8542 -11.3177   4.6195   Cl        1 RES1   0.0000
     9 C9       9.5029 -13.9351   5.3780   C.2       1 RES1   0.0000
    10 C10      9.7213 -15.0753   6.1332   C.2       1 RES1   0.0000
    11 C11     10.7029 -14.9678   7.1240   C.2       1 RES1   0.0000
    12 C12     11.0516 -16.1318   7.9821   C.2       1 RES1   0.0000
    13 N13     10.6236 -17.3379   7.6181   N.2       1 RES1   0.0000
    14 C14     10.8095 -18.5455   8.4558   C.3       1 RES1   0.0000
    15 C15      9.9042 -19.7265   8.0435   C.3       1 RES1   0.0000
    16 C16     10.1788 -20.8006   9.0972   C.2       1 RES1   0.0000
    17 C17     10.8607 -21.9937   8.8115   C.2       1 RES1   0.0000
    18 S18     11.0381 -22.8971  10.2918   S.3       1 RES1   0.0000
    19 C19     10.2074 -21.8477  11.3897   C.2       1 RES1   0.0000
    20 C20      9.8098 -20.7757  10.5697   C.2       1 RES1   0.0000
    21 C21      9.1554 -19.5841  11.2098   C.2       1 RES1   0.0000
    22 C22      8.3709 -18.6615  10.4543   C.2       1 RES1   0.0000
    23 N23      7.8679 -17.7691  11.3478   N.2       1 RES1   0.0000
    24 N24      8.3467 -18.1587  12.6338   N.2       1 RES1   0.0000
    25 C25      9.1309 -19.2969  12.5518   C.2       1 RES1   0.0000
    26 C26     12.2532 -18.9169   8.3253   C.2       1 RES1   0.0000
    27 O27     12.9403 -18.5866   7.3545   O.co2     1 RES1   0.0000
    28 O28     12.7691 -19.6616   9.1846   O.co2     1 RES1  -1.0000
    29 N29     11.6673 -16.0536   9.0969   N.2       1 RES1   0.0000
@<TRIPOS>BOND
     1     1     2    1
     2     2     3    1
     3     2     4    1
     4     4     5    1
     5     5     6    2
     6     6     7    1
     7     7     8    1
     8     7     9    2
     9     9    10    1
    10    10    11    2
    11    11    12    1
    12    12    13    1
    13    13    14    1
    14    14    15    1
    15    15    16    1
    16    16    17    2
    17    17    18    1
    18    18    19    1
    19    19    20    2
    20    20    21    1
    21    21    22    1
    22    22    23    2
    23    23    24    1
    24    24    25    1
    25    14    26    1
    26    26    27    2
    27    26    28    1
    28    12    29    2
    29    29     2    1
    30    11     5    1
    31    20    16    1
    32    25    21    2
@<TRIPOS>SUBSTRUCTURE
     1 RES1        1 GROUP             0 ****  ****    0  
@<TRIPOS>MOLECULE
ligand_72
    29    32     1     0     0
SMALL
USER_CHARGES
****
Generated from the CSD

@<TRIPOS>ATOM
     1 C1      14.0039 -15.4536   7.7994   C.3       1 RES1   0.0000
     2 C2      12.9888 -15.0700   8.8550   C.3       1 RES1   0.0000
     3 C3      13.6603 -15.0353  10.2482   C.3       1 RES1   0.0000
     4 C4      12.3339 -13.7273   8.5672   C.3       1 RES1   0.0000
     5 C5      11.4591 -13.7688   7.3442   C.2       1 RES1   0.0000
     6 C6      11.2561 -12.6541   6.5192   C.2       1 RES1   0.0000
     7 C7      10.3942 -12.8351   5.4604   C.2       1 RES1   0.0000
     8 Cl8     10.1247 -11.4405   4.3794   Cl        1 RES1   0.0000
     9 C9       9.7413 -14.0379   5.1885   C.2       1 RES1   0.0000
    10 C10      9.9204 -15.1570   5.9838   C.2       1 RES1   0.0000
    11 C11     10.7914 -14.9999   7.0667   C.2       1 RES1   0.0000
    12 C12     11.0193 -16.1036   8.0360   C.2       1 RES1   0.0000
    13 N13     10.1980 -17.1484   7.9739   N.2       1 RES1   0.0000
    14 C14     10.4101 -18.3875   8.7577   C.3       1 RES1   0.0000
    15 C15      9.1376 -19.2502   8.9023   C.3       1 RES1   0.0000
    16 C16      8.1849 -18.3850   9.7289   C.2       1 RES1   0.0000
    17 C17      8.3000 -18.2377  11.1200   C.2       1 RES1   0.0000
    18 S18      7.0843 -17.1104  11.6589   S.3       1 RES1   0.0000
    19 C19      6.2934 -16.7748  10.1561   C.2       1 RES1   0.0000
    20 C20      7.0168 -17.5518   9.2326   C.2       1 RES1   0.0000
    21 C21      6.6921 -17.4208   7.7713   C.2       1 RES1   0.0000
    22 C22      6.8674 -18.5070   6.8623   C.2       1 RES1   0.0000
    23 N23      6.4039 -18.0752   5.6596   N.2       1 RES1   0.0000
    24 N24      5.9492 -16.7365   5.8495   N.2       1 RES1   0.0000
    25 C25      6.1101 -16.3355   7.1650   C.2       1 RES1   0.0000
    26 C26     11.4834 -19.1464   8.0426   C.2       1 RES1   0.0000
    27 O27     12.4601 -18.5933   7.5290   O.co2     1 RES1   0.0000
    28 O28     11.3517 -20.3773   7.8797   O.co2     1 RES1  -1.0000
    29 N29     11.9894 -16.1699   8.8587   N.2       1 RES1   0.0000
@<TRIPOS>BOND
     1     1     2    1
     2     2     3    1
     3     2     4    1
     4     4     5    1
     5     5     6    2
     6     6     7    1
     7     7     8    1
     8     7     9    2
     9     9    10    1
    10    10    11    2
    11    11    12    1
    12    12    13    1
    13    13    14    1
    14    14    15    1
    15    15    16    1
    16    16    17    2
    17    17    18    1
    18    18    19    1
    19    19    20    2
    20    20    21    1
    21    21    22    1
    22    22    23    2
    23    23    24    1
    24    24    25    1
    25    14    26    1
    26    26    27    2
    27    26    28    1
    28    12    29    2
    29    29     2    1
    30    11     5    1
    31    20    16    1
    32    25    21    2
@<TRIPOS>SUBSTRUCTURE
     1 RES1        1 GROUP             0 ****  ****    0  
@<TRIPOS>MOLECULE
ligand_73
    29    32     1     0     0
SMALL
USER_CHARGES
****
Generated from the CSD

@<TRIPOS>ATOM
     1 C1      14.0369 -15.5773   7.5469   C.3       1 RES1   0.0000
     2 C2      13.1083 -15.1656   8.6693   C.3       1 RES1   0.0000
     3 C3      13.8728 -15.1588  10.0141   C.3       1 RES1   0.0000
     4 C4      12.4797 -13.8011   8.4292   C.3       1 RES1   0.0000
     5 C5      11.5238 -13.8088   7.2680   C.2       1 RES1   0.0000
     6 C6      11.3022 -12.6846   6.4609   C.2       1 RES1   0.0000
     7 C7      10.3655 -12.8328   5.4622   C.2       1 RES1   0.0000
     8 Cl8     10.0696 -11.4255   4.4049   Cl        1 RES1   0.0000
     9 C9       9.6568 -14.0126   5.2323   C.2       1 RES1   0.0000
    10 C10      9.8524 -15.1404   6.0113   C.2       1 RES1   0.0000
    11 C11     10.7990 -15.0164   7.0334   C.2       1 RES1   0.0000
    12 C12     11.0553 -16.1311   7.9827   C.2       1 RES1   0.0000
    13 N13     10.1980 -17.1484   7.9739   N.2       1 RES1   0.0000
    14 C14     10.4101 -18.3875   8.7577   C.3       1 RES1   0.0000
    15 C15      9.2196 -18.7493   9.6720   C.3       1 RES1   0.0000
    16 C16      9.1397 -17.5904  10.6669   C.2       1 RES1   0.0000
    17 C17     10.2735 -17.0159  11.2624   C.2       1 RES1   0.0000
    18 S18      9.7586 -15.6800  12.2570   S.3       1 RES1   0.0000
    19 C19      8.0446 -15.7791  12.0355   C.2       1 RES1   0.0000
    20 C20      7.8975 -16.8671  11.1554   C.2       1 RES1   0.0000
    21 C21      6.5275 -17.1841  10.6256   C.2       1 RES1   0.0000
    22 C22      5.4808 -16.2138  10.6203   C.2       1 RES1   0.0000
    23 N23      4.4210 -16.8008  10.0037   N.2       1 RES1   0.0000
    24 N24      4.8337 -18.1164   9.6380   N.2       1 RES1   0.0000
    25 C25      6.1480 -18.3491  10.0066   C.2       1 RES1   0.0000
    26 C26     10.6529 -19.4709   7.7543   C.2       1 RES1   0.0000
    27 O27     11.3201 -19.2929   6.7312   O.co2     1 RES1   0.0000
    28 O28     10.0925 -20.5762   7.9060   O.co2     1 RES1  -1.0000
    29 N29     12.0760 -16.2325   8.7381   N.2       1 RES1   0.0000
@<TRIPOS>BOND
     1     1     2    1
     2     2     3    1
     3     2     4    1
     4     4     5    1
     5     5     6    2
     6     6     7    1
     7     7     8    1
     8     7     9    2
     9     9    10    1
    10    10    11    2
    11    11    12    1
    12    12    13    1
    13    13    14    1
    14    14    15    1
    15    15    16    1
    16    16    17    2
    17    17    18    1
    18    18    19    1
    19    19    20    2
    20    20    21    1
    21    21    22    1
    22    22    23    2
    23    23    24    1
    24    24    25    1
    25    14    26    1
    26    26    27    2
    27    26    28    1
    28    12    29    2
    29    29     2    1
    30    11     5    1
    31    20    16    1
    32    25    21    2
@<TRIPOS>SUBSTRUCTURE
     1 RES1        1 GROUP             0 ****  ****    0  
@<TRIPOS>MOLECULE
ligand_74
    29    32     1     0     0
SMALL
USER_CHARGES
****
Generated from the CSD

@<TRIPOS>ATOM
     1 C1      13.3003 -14.9598  10.4733   C.3       1 RES1   0.0000
     2 C2      12.1058 -14.7220   9.5720   C.3       1 RES1   0.0000
     3 C3      10.9378 -14.1446  10.4031   C.3       1 RES1   0.0000
     4 C4      12.4956 -13.8127   8.4224   C.3       1 RES1   0.0000
     5 C5      11.4363 -13.7707   7.3509   C.2       1 RES1   0.0000
     6 C6      11.1941 -12.6315   6.5710   C.2       1 RES1   0.0000
     7 C7      10.2236 -12.7611   5.6022   C.2       1 RES1   0.0000
     8 Cl8      9.8543 -11.3177   4.6194   Cl        1 RES1   0.0000
     9 C9       9.5030 -13.9351   5.3780   C.2       1 RES1   0.0000
    10 C10      9.7213 -15.0753   6.1332   C.2       1 RES1   0.0000
    11 C11     10.7030 -14.9678   7.1240   C.2       1 RES1   0.0000
    12 C12     11.0516 -16.1318   7.9821   C.2       1 RES1   0.0000
    13 N13     10.6236 -17.3379   7.6181   N.2       1 RES1   0.0000
    14 C14     10.8095 -18.5455   8.4558   C.3       1 RES1   0.0000
    15 C15      9.9042 -19.7265   8.0435   C.3       1 RES1   0.0000
    16 C16      8.4816 -19.2024   8.2459   C.2       1 RES1   0.0000
    17 C17      8.1873 -18.0760   9.0300   C.2       1 RES1   0.0000
    18 S18      6.4747 -17.7661   8.9314   S.3       1 RES1   0.0000
    19 C19      5.9849 -19.0839   7.9214   C.2       1 RES1   0.0000
    20 C20      7.1948 -19.7514   7.6563   C.2       1 RES1   0.0000
    21 C21      7.1855 -20.9012   6.6888   C.2       1 RES1   0.0000
    22 C22      8.2871 -21.8025   6.5822   C.2       1 RES1   0.0000
    23 N23      7.9136 -22.7555   5.6878   N.2       1 RES1   0.0000
    24 N24      6.5917 -22.4276   5.2638   N.2       1 RES1   0.0000
    25 C25      6.1311 -21.2868   5.8990   C.2       1 RES1   0.0000
    26 C26     12.2532 -18.9169   8.3253   C.2       1 RES1   0.0000
    27 O27     12.9489 -18.5586   7.3707   O.co2     1 RES1   0.0000
    28 O28     12.7602 -19.6895   9.1650   O.co2     1 RES1  -1.0000
    29 N29     11.6674 -16.0536   9.0969   N.2       1 RES1   0.0000
@<TRIPOS>BOND
     1     1     2    1
     2     2     3    1
     3     2     4    1
     4     4     5    1
     5     5     6    2
     6     6     7    1
     7     7     8    1
     8     7     9    2
     9     9    10    1
    10    10    11    2
    11    11    12    1
    12    12    13    1
    13    13    14    1
    14    14    15    1
    15    15    16    1
    16    16    17    2
    17    17    18    1
    18    18    19    1
    19    19    20    2
    20    20    21    1
    21    21    22    1
    22    22    23    2
    23    23    24    1
    24    24    25    1
    25    14    26    1
    26    26    27    2
    27    26    28    1
    28    12    29    2
    29    29     2    1
    30    11     5    1
    31    20    16    1
    32    25    21    2
@<TRIPOS>SUBSTRUCTURE
     1 RES1        1 GROUP             0 ****  ****    0  
@<TRIPOS>MOLECULE
ligand_75
    29    32     1     0     0
SMALL
USER_CHARGES
****
Generated from the CSD

@<TRIPOS>ATOM
     1 C1      14.0233 -15.5223   7.6408   C.3       1 RES1   0.0000
     2 C2      13.0631 -15.1271   8.7425   C.3       1 RES1   0.0000
     3 C3      13.7960 -15.1138  10.1047   C.3       1 RES1   0.0000
     4 C4      12.4211 -13.7709   8.4916   C.3       1 RES1   0.0000
     5 C5      11.4926 -13.7883   7.3084   C.2       1 RES1   0.0000
     6 C6      11.2741 -12.6648   6.4995   C.2       1 RES1   0.0000
     7 C7      10.3631 -12.8231   5.4789   C.2       1 RES1   0.0000
     8 Cl8     10.0720 -11.4167   4.4189   Cl        1 RES1   0.0000
     9 C9       9.6766 -14.0120   5.2292   C.2       1 RES1   0.0000
    10 C10      9.8698 -15.1393   6.0094   C.2       1 RES1   0.0000
    11 C11     10.7906 -15.0052   7.0536   C.2       1 RES1   0.0000
    12 C12     11.0404 -16.1192   8.0056   C.2       1 RES1   0.0000
    13 N13     10.1980 -17.1484   7.9739   N.2       1 RES1   0.0000
    14 C14     10.4101 -18.3875   8.7577   C.3       1 RES1   0.0000
    15 C15      9.2196 -18.7493   9.6720   C.3       1 RES1   0.0000
    16 C16      8.0837 -19.0802   8.7025   C.2       1 RES1   0.0000
    17 C17      7.2737 -18.0979   8.1118   C.2       1 RES1   0.0000
    18 S18      6.1667 -18.8800   7.0156   S.3       1 RES1   0.0000
    19 C19      6.6128 -20.5344   7.2622   C.2       1 RES1   0.0000
    20 C20      7.6539 -20.4486   8.2048   C.2       1 RES1   0.0000
    21 C21      8.3914 -21.7032   8.5789   C.2       1 RES1   0.0000
    22 C22      8.9879 -21.8692   9.8649   C.2       1 RES1   0.0000
    23 N23      9.4887 -23.1326   9.8918   N.2       1 RES1   0.0000
    24 N24      9.1893 -23.7218   8.6276   N.2       1 RES1   0.0000
    25 C25      8.4911 -22.8415   7.8183   C.2       1 RES1   0.0000
    26 C26     10.6529 -19.4709   7.7543   C.2       1 RES1   0.0000
    27 O27     10.2800 -19.3867   6.5807   O.co2     1 RES1   0.0000
    28 O28     11.1762 -20.5405   8.1298   O.co2     1 RES1  -1.0000
    29 N29     12.0446 -16.2086   8.7841   N.2       1 RES1   0.0000
@<TRIPOS>BOND
     1     1     2    1
     2     2     3    1
     3     2     4    1
     4     4     5    1
     5     5     6    2
     6     6     7    1
     7     7     8    1
     8     7     9    2
     9     9    10    1
    10    10    11    2
    11    11    12    1
    12    12    13    1
    13    13    14    1
    14    14    15    1
    15    15    16    1
    16    16    17    2
    17    17    18    1
    18    18    19    1
    19    19    20    2
    20    20    21    1
    21    21    22    1
    22    22    23    2
    23    23    24    1
    24    24    25    1
    25    14    26    1
    26    26    27    2
    27    26    28    1
    28    12    29    2
    29    29     2    1
    30    11     5    1
    31    20    16    1
    32    25    21    2
@<TRIPOS>SUBSTRUCTURE
     1 RES1        1 GROUP             0 ****  ****    0  
@<TRIPOS>MOLECULE
ligand_76
    29    32     1     0     0
SMALL
USER_CHARGES
****
Generated from the CSD

@<TRIPOS>ATOM
     1 C1      14.0368 -15.5774   7.5457   C.3       1 RES1   0.0000
     2 C2      13.1087 -15.1659   8.6687   C.3       1 RES1   0.0000
     3 C3      13.8737 -15.1595  10.0131   C.3       1 RES1   0.0000
     4 C4      12.4800 -13.8013   8.4292   C.3       1 RES1   0.0000
     5 C5      11.5236 -13.8086   7.2683   C.2       1 RES1   0.0000
     6 C6      11.3017 -12.6842   6.4617   C.2       1 RES1   0.0000
     7 C7      10.3646 -12.8321   5.4634   C.2       1 RES1   0.0000
     8 Cl8     10.0684 -11.4245   4.4066   Cl        1 RES1   0.0000
     9 C9       9.6558 -14.0118   5.2334   C.2       1 RES1   0.0000
    10 C10      9.8516 -15.1398   6.0121   C.2       1 RES1   0.0000
    11 C11     10.7987 -15.0161   7.0338   C.2       1 RES1   0.0000
    12 C12     11.0553 -16.1311   7.9827   C.2       1 RES1   0.0000
    13 N13     10.1980 -17.1484   7.9739   N.2       1 RES1   0.0000
    14 C14     10.4101 -18.3875   8.7577   C.3       1 RES1   0.0000
    15 C15      9.2196 -18.7493   9.6720   C.3       1 RES1   0.0000
    16 C16      8.0308 -18.8691   8.7171   C.2       1 RES1   0.0000
    17 C17      7.7757 -20.0207   7.9563   C.2       1 RES1   0.0000
    18 S18      6.2918 -19.7821   7.0730   S.3       1 RES1   0.0000
    19 C19      5.9026 -18.1681   7.5629   C.2       1 RES1   0.0000
    20 C20      6.9510 -17.8381   8.4414   C.2       1 RES1   0.0000
    21 C21      6.8878 -16.5300   9.1782   C.2       1 RES1   0.0000
    22 C22      8.0554 -15.9198   9.7274   C.2       1 RES1   0.0000
    23 N23      7.6552 -14.7265  10.2408   N.2       1 RES1   0.0000
    24 N24      6.2538 -14.6215   9.9962   N.2       1 RES1   0.0000
    25 C25      5.7796 -15.7325   9.3193   C.2       1 RES1   0.0000
    26 C26     10.6529 -19.4709   7.7543   C.2       1 RES1   0.0000
    27 O27     10.2989 -19.3777   6.5755   O.co2     1 RES1   0.0000
    28 O28     11.1556 -20.5489   8.1338   O.co2     1 RES1  -1.0000
    29 N29     12.0763 -16.2328   8.7375   N.2       1 RES1   0.0000
@<TRIPOS>BOND
     1     1     2    1
     2     2     3    1
     3     2     4    1
     4     4     5    1
     5     5     6    2
     6     6     7    1
     7     7     8    1
     8     7     9    2
     9     9    10    1
    10    10    11    2
    11    11    12    1
    12    12    13    1
    13    13    14    1
    14    14    15    1
    15    15    16    1
    16    16    17    2
    17    17    18    1
    18    18    19    1
    19    19    20    2
    20    20    21    1
    21    21    22    1
    22    22    23    2
    23    23    24    1
    24    24    25    1
    25    14    26    1
    26    26    27    2
    27    26    28    1
    28    12    29    2
    29    29     2    1
    30    11     5    1
    31    20    16    1
    32    25    21    2
@<TRIPOS>SUBSTRUCTURE
     1 RES1        1 GROUP             0 ****  ****    0  
@<TRIPOS>MOLECULE
ligand_77
    29    32     1     0     0
SMALL
USER_CHARGES
****
Generated from the CSD

@<TRIPOS>ATOM
     1 C1      14.0189 -15.5079   7.6621   C.3       1 RES1   0.0000
     2 C2      13.0520 -15.1180   8.7597   C.3       1 RES1   0.0000
     3 C3      13.7782 -15.1044  10.1255   C.3       1 RES1   0.0000
     4 C4      12.4063 -13.7637   8.5080   C.3       1 RES1   0.0000
     5 C5      11.4836 -13.7826   7.3202   C.2       1 RES1   0.0000
     6 C6      11.2649 -12.6585   6.5122   C.2       1 RES1   0.0000
     7 C7      10.3594 -12.8183   5.4869   C.2       1 RES1   0.0000
     8 Cl8     10.0684 -11.4113   4.4278   Cl        1 RES1   0.0000
     9 C9       9.6785 -14.0093   5.2319   C.2       1 RES1   0.0000
    10 C10      9.8720 -15.1372   6.0112   C.2       1 RES1   0.0000
    11 C11     10.7872 -15.0015   7.0601   C.2       1 RES1   0.0000
    12 C12     11.0365 -16.1162   8.0113   C.2       1 RES1   0.0000
    13 N13     10.1980 -17.1484   7.9739   N.2       1 RES1   0.0000
    14 C14     10.4101 -18.3875   8.7577   C.3       1 RES1   0.0000
    15 C15     10.0225 -18.2490  10.2459   C.3       1 RES1   0.0000
    16 C16      8.4964 -18.1471  10.2323   C.2       1 RES1   0.0000
    17 C17      7.8005 -17.2135   9.4486   C.2       1 RES1   0.0000
    18 S18      6.0907 -17.4839   9.6547   S.3       1 RES1   0.0000
    19 C19      6.1240 -18.7795  10.8022   C.2       1 RES1   0.0000
    20 C20      7.5000 -18.9981  10.9991   C.2       1 RES1   0.0000
    21 C21      7.9296 -20.1558  11.8554   C.2       1 RES1   0.0000
    22 C22      7.0863 -21.2877  12.0668   C.2       1 RES1   0.0000
    23 N23      7.8100 -22.1681  12.8078   N.2       1 RES1   0.0000
    24 N24      9.0832 -21.5664  13.0355   N.2       1 RES1   0.0000
    25 C25      9.1655 -20.3247  12.4284   C.2       1 RES1   0.0000
    26 C26      9.5808 -19.4406   8.0923   C.2       1 RES1   0.0000
    27 O27      8.6210 -19.1706   7.3646   O.co2     1 RES1   0.0000
    28 O28      9.8073 -20.6421   8.3451   O.co2     1 RES1  -1.0000
    29 N29     12.0372 -16.2033   8.7947   N.2       1 RES1   0.0000
@<TRIPOS>BOND
     1     1     2    1
     2     2     3    1
     3     2     4    1
     4     4     5    1
     5     5     6    2
     6     6     7    1
     7     7     8    1
     8     7     9    2
     9     9    10    1
    10    10    11    2
    11    11    12    1
    12    12    13    1
    13    13    14    1
    14    14    15    1
    15    15    16    1
    16    16    17    2
    17    17    18    1
    18    18    19    1
    19    19    20    2
    20    20    21    1
    21    21    22    1
    22    22    23    2
    23    23    24    1
    24    24    25    1
    25    14    26    1
    26    26    27    2
    27    26    28    1
    28    12    29    2
    29    29     2    1
    30    11     5    1
    31    20    16    1
    32    25    21    2
@<TRIPOS>SUBSTRUCTURE
     1 RES1        1 GROUP             0 ****  ****    0  
@<TRIPOS>MOLECULE
ligand_78
    29    32     1     0     0
SMALL
USER_CHARGES
****
Generated from the CSD

@<TRIPOS>ATOM
     1 C1      13.7192 -15.0887  10.1341   C.3       1 RES1   0.0000
     2 C2      12.4318 -14.7984   9.3898   C.3       1 RES1   0.0000
     3 C3      11.3979 -14.1888  10.3632   C.3       1 RES1   0.0000
     4 C4      12.7095 -13.8910   8.2066   C.3       1 RES1   0.0000
     5 C5      11.5279 -13.7993   7.2752   C.2       1 RES1   0.0000
     6 C6      11.2331 -12.6437   6.5388   C.2       1 RES1   0.0000
     7 C7      10.1460 -12.7278   5.6972   C.2       1 RES1   0.0000
     8 Cl8      9.7112 -11.2614   4.7773   Cl        1 RES1   0.0000
     9 C9       9.3603 -13.8727   5.5566   C.2       1 RES1   0.0000
    10 C10      9.6284 -15.0282   6.2715   C.2       1 RES1   0.0000
    11 C11     10.7285 -14.9669   7.1334   C.2       1 RES1   0.0000
    12 C12     11.1376 -16.1520   7.9340   C.2       1 RES1   0.0000
    13 N13     10.6236 -17.3379   7.6181   N.2       1 RES1   0.0000
    14 C14     10.8095 -18.5455   8.4558   C.3       1 RES1   0.0000
    15 C15     10.3694 -18.3511   9.9230   C.3       1 RES1   0.0000
    16 C16     10.5032 -19.7414  10.5464   C.2       1 RES1   0.0000
    17 C17      9.3973 -20.5426  10.8702   C.2       1 RES1   0.0000
    18 S18      9.9796 -22.0710  11.4734   S.3       1 RES1   0.0000
    19 C19     11.6868 -21.7917  11.4113   C.2       1 RES1   0.0000
    20 C20     11.7796 -20.4868  10.8933   C.2       1 RES1   0.0000
    21 C21     13.1400 -19.9337  10.5750   C.2       1 RES1   0.0000
    22 C22     14.2849 -20.7775  10.4550   C.2       1 RES1   0.0000
    23 N23     15.3142 -19.9714  10.0827   N.2       1 RES1   0.0000
    24 N24     14.7859 -18.6506   9.9764   N.2       1 RES1   0.0000
    25 C25     13.4314 -18.6291  10.2634   C.2       1 RES1   0.0000
    26 C26     10.0057 -19.6255   7.8025   C.2       1 RES1   0.0000
    27 O27      9.0229 -19.3879   7.0945   O.co2     1 RES1   0.0000
    28 O28     10.2800 -20.8190   8.0463   O.co2     1 RES1  -1.0000
    29 N29     11.8892 -16.1081   8.9641   N.2       1 RES1   0.0000
@<TRIPOS>BOND
     1     1     2    1
     2     2     3    1
     3     2     4    1
     4     4     5    1
     5     5     6    2
     6     6     7    1
     7     7     8    1
     8     7     9    2
     9     9    10    1
    10    10    11    2
    11    11    12    1
    12    12    13    1
    13    13    14    1
    14    14    15    1
    15    15    16    1
    16    16    17    2
    17    17    18    1
    18    18    19    1
    19    19    20    2
    20    20    21    1
    21    21    22    1
    22    22    23    2
    23    23    24    1
    24    24    25    1
    25    14    26    1
    26    26    27    2
    27    26    28    1
    28    12    29    2
    29    29     2    1
    30    11     5    1
    31    20    16    1
    32    25    21    2
@<TRIPOS>SUBSTRUCTURE
     1 RES1        1 GROUP             0 ****  ****    0  
@<TRIPOS>MOLECULE
ligand_79
    29    32     1     0     0
SMALL
USER_CHARGES
****
Generated from the CSD

@<TRIPOS>ATOM
     1 C1      14.0369 -15.5776   7.5457   C.3       1 RES1   0.0000
     2 C2      13.1087 -15.1659   8.6686   C.3       1 RES1   0.0000
     3 C3      13.8737 -15.1594  10.0131   C.3       1 RES1   0.0000
     4 C4      12.4801 -13.8013   8.4290   C.3       1 RES1   0.0000
     5 C5      11.5238 -13.8088   7.2681   C.2       1 RES1   0.0000
     6 C6      11.3020 -12.6844   6.4613   C.2       1 RES1   0.0000
     7 C7      10.3649 -12.8324   5.4630   C.2       1 RES1   0.0000
     8 Cl8     10.0688 -11.4249   4.4060   Cl        1 RES1   0.0000
     9 C9       9.6560 -14.0121   5.2331   C.2       1 RES1   0.0000
    10 C10      9.8518 -15.1400   6.0118   C.2       1 RES1   0.0000
    11 C11     10.7988 -15.0162   7.0336   C.2       1 RES1   0.0000
    12 C12     11.0554 -16.1312   7.9826   C.2       1 RES1   0.0000
    13 N13     10.1980 -17.1484   7.9739   N.2       1 RES1   0.0000
    14 C14     10.4101 -18.3875   8.7577   C.3       1 RES1   0.0000
    15 C15      9.2196 -18.7493   9.6720   C.3       1 RES1   0.0000
    16 C16      9.6605 -20.0321  10.3789   C.2       1 RES1   0.0000
    17 C17     10.6164 -20.0475  11.4065   C.2       1 RES1   0.0000
    18 S18     10.7681 -21.6811  11.9958   S.3       1 RES1   0.0000
    19 C19      9.6597 -22.4893  10.9399   C.2       1 RES1   0.0000
    20 C20      9.1639 -21.4461  10.1363   C.2       1 RES1   0.0000
    21 C21      8.0613 -21.7501   9.1617   C.2       1 RES1   0.0000
    22 C22      7.8210 -20.9293   8.0190   C.2       1 RES1   0.0000
    23 N23      6.8228 -21.5323   7.3207   N.2       1 RES1   0.0000
    24 N24      6.4698 -22.7118   8.0412   N.2       1 RES1   0.0000
    25 C25      7.2513 -22.8582   9.1748   C.2       1 RES1   0.0000
    26 C26     10.6529 -19.4709   7.7543   C.2       1 RES1   0.0000
    27 O27     10.2646 -19.3943   6.5851   O.co2     1 RES1   0.0000
    28 O28     11.1930 -20.5334   8.1261   O.co2     1 RES1  -1.0000
    29 N29     12.0763 -16.2328   8.7375   N.2       1 RES1   0.0000
@<TRIPOS>BOND
     1     1     2    1
     2     2     3    1
     3     2     4    1
     4     4     5    1
     5     5     6    2
     6     6     7    1
     7     7     8    1
     8     7     9    2
     9     9    10    1
    10    10    11    2
    11    11    12    1
    12    12    13    1
    13    13    14    1
    14    14    15    1
    15    15    16    1
    16    16    17    2
    17    17    18    1
    18    18    19    1
    19    19    20    2
    20    20    21    1
    21    21    22    1
    22    22    23    2
    23    23    24    1
    24    24    25    1
    25    14    26    1
    26    26    27    2
    27    26    28    1
    28    12    29    2
    29    29     2    1
    30    11     5    1
    31    20    16    1
    32    25    21    2
@<TRIPOS>SUBSTRUCTURE
     1 RES1        1 GROUP             0 ****  ****    0  
@<TRIPOS>MOLECULE
ligand_80
    29    32     1     0     0
SMALL
USER_CHARGES
****
Generated from the CSD

@<TRIPOS>ATOM
     1 C1      14.0189 -15.5536   7.4790   C.3       1 RES1   0.0000
     2 C2      13.1230 -15.1771   8.6397   C.3       1 RES1   0.0000
     3 C3      13.9270 -15.2064   9.9610   C.3       1 RES1   0.0000
     4 C4      12.4844 -13.8083   8.4576   C.3       1 RES1   0.0000
     5 C5      11.4945 -13.7857   7.3254   C.2       1 RES1   0.0000
     6 C6      11.2465 -12.6396   6.5579   C.2       1 RES1   0.0000
     7 C7      10.2810 -12.7620   5.5835   C.2       1 RES1   0.0000
     8 Cl8      9.9506 -11.3260   4.5763   Cl        1 RES1   0.0000
     9 C9       9.5685 -13.9370   5.3408   C.2       1 RES1   0.0000
    10 C10      9.7897 -15.0860   6.0810   C.2       1 RES1   0.0000
    11 C11     10.7659 -14.9884   7.0777   C.2       1 RES1   0.0000
    12 C12     11.0528 -16.1291   7.9866   C.2       1 RES1   0.0000
    13 N13     10.1980 -17.1484   7.9739   N.2       1 RES1   0.0000
    14 C14     10.2267 -18.2366   8.9788   C.3       1 RES1   0.0000
    15 C15      9.5547 -17.8576  10.3164   C.3       1 RES1   0.0000
    16 C16      9.7811 -19.0759  11.2130   C.2       1 RES1   0.0000
    17 C17     11.0037 -19.3378  11.8507   C.2       1 RES1   0.0000
    18 S18     10.8181 -20.7625  12.8380   S.3       1 RES1   0.0000
    19 C19      9.1757 -21.1720  12.4751   C.2       1 RES1   0.0000
    20 C20      8.7826 -20.1584  11.5819   C.2       1 RES1   0.0000
    21 C21      7.3487 -20.1092  11.1351   C.2       1 RES1   0.0000
    22 C22      6.3132 -20.7748  11.8576   C.2       1 RES1   0.0000
    23 N23      5.1484 -20.4555  11.2339   N.2       1 RES1   0.0000
    24 N24      5.4856 -19.5986  10.1444   N.2       1 RES1   0.0000
    25 C25      6.8498 -19.3674  10.0934   C.2       1 RES1   0.0000
    26 C26      9.5255 -19.3974   8.3464   C.2       1 RES1   0.0000
    27 O27      9.5094 -20.5223   8.8543   O.co2     1 RES1   0.0000
    28 O28      9.0068 -19.2535   7.2198   O.co2     1 RES1  -1.0000
    29 N29     12.0957 -16.2488   8.7082   N.2       1 RES1   0.0000
@<TRIPOS>BOND
     1     1     2    1
     2     2     3    1
     3     2     4    1
     4     4     5    1
     5     5     6    2
     6     6     7    1
     7     7     8    1
     8     7     9    2
     9     9    10    1
    10    10    11    2
    11    11    12    1
    12    12    13    1
    13    13    14    1
    14    14    15    1
    15    15    16    1
    16    16    17    2
    17    17    18    1
    18    18    19    1
    19    19    20    2
    20    20    21    1
    21    21    22    1
    22    22    23    2
    23    23    24    1
    24    24    25    1
    25    14    26    1
    26    26    27    2
    27    26    28    1
    28    12    29    2
    29    29     2    1
    30    11     5    1
    31    20    16    1
    32    25    21    2
@<TRIPOS>SUBSTRUCTURE
     1 RES1        1 GROUP             0 ****  ****    0  
@<TRIPOS>MOLECULE
ligand_81
    29    32     1     0     0
SMALL
USER_CHARGES
****
Generated from the CSD

@<TRIPOS>ATOM
     1 C1      13.2281 -14.9365  10.5201   C.3       1 RES1   0.0000
     2 C2      12.0440 -14.7106   9.6024   C.3       1 RES1   0.0000
     3 C3      10.8568 -14.1509  10.4183   C.3       1 RES1   0.0000
     4 C4      12.4389 -13.7923   8.4617   C.3       1 RES1   0.0000
     5 C5      11.3949 -13.7598   7.3750   C.2       1 RES1   0.0000
     6 C6      11.1497 -12.6209   6.5955   C.2       1 RES1   0.0000
     7 C7      10.1951 -12.7593   5.6122   C.2       1 RES1   0.0000
     8 Cl8      9.8219 -11.3172   4.6291   Cl        1 RES1   0.0000
     9 C9       9.4927 -13.9415   5.3735   C.2       1 RES1   0.0000
    10 C10      9.7145 -15.0815   6.1279   C.2       1 RES1   0.0000
    11 C11     10.6802 -14.9652   7.1333   C.2       1 RES1   0.0000
    12 C12     11.0310 -16.1278   7.9924   C.2       1 RES1   0.0000
    13 N13     10.6236 -17.3379   7.6181   N.2       1 RES1   0.0000
    14 C14     10.8095 -18.5455   8.4558   C.3       1 RES1   0.0000
    15 C15      9.9042 -19.7265   8.0435   C.3       1 RES1   0.0000
    16 C16      9.0036 -19.9560   9.2583   C.2       1 RES1   0.0000
    17 C17      9.3681 -20.7806  10.3340   C.2       1 RES1   0.0000
    18 S18      8.1117 -20.7036  11.5400   S.3       1 RES1   0.0000
    19 C19      6.9907 -19.6514  10.7443   C.2       1 RES1   0.0000
    20 C20      7.6357 -19.3557   9.5293   C.2       1 RES1   0.0000
    21 C21      7.0076 -18.3488   8.6074   C.2       1 RES1   0.0000
    22 C22      5.8166 -17.6463   8.9613   C.2       1 RES1   0.0000
    23 N23      5.5791 -16.7677   7.9517   N.2       1 RES1   0.0000
    24 N24      6.6266 -16.9412   6.9990   N.2       1 RES1   0.0000
    25 C25      7.5249 -17.9096   7.4143   C.2       1 RES1   0.0000
    26 C26     12.2532 -18.9169   8.3253   C.2       1 RES1   0.0000
    27 O27     12.9489 -18.5586   7.3707   O.co2     1 RES1   0.0000
    28 O28     12.7602 -19.6895   9.1650   O.co2     1 RES1  -1.0000
    29 N29     11.6294 -16.0459   9.1163   N.2       1 RES1   0.0000
@<TRIPOS>BOND
     1     1     2    1
     2     2     3    1
     3     2     4    1
     4     4     5    1
     5     5     6    2
     6     6     7    1
     7     7     8    1
     8     7     9    2
     9     9    10    1
    10    10    11    2
    11    11    12    1
    12    12    13    1
    13    13    14    1
    14    14    15    1
    15    15    16    1
    16    16    17    2
    17    17    18    1
    18    18    19    1
    19    19    20    2
    20    20    21    1
    21    21    22    1
    22    22    23    2
    23    23    24    1
    24    24    25    1
    25    14    26    1
    26    26    27    2
    27    26    28    1
    28    12    29    2
    29    29     2    1
    30    11     5    1
    31    20    16    1
    32    25    21    2
@<TRIPOS>SUBSTRUCTURE
     1 RES1        1 GROUP             0 ****  ****    0  
@<TRIPOS>MOLECULE
ligand_82
    29    32     1     0     0
SMALL
USER_CHARGES
****
Generated from the CSD

@<TRIPOS>ATOM
     1 C1      13.3006 -14.9599  10.4731   C.3       1 RES1   0.0000
     2 C2      12.1060 -14.7221   9.5719   C.3       1 RES1   0.0000
     3 C3      10.9381 -14.1446  10.4030   C.3       1 RES1   0.0000
     4 C4      12.4958 -13.8128   8.4223   C.3       1 RES1   0.0000
     5 C5      11.4364 -13.7707   7.3508   C.2       1 RES1   0.0000
     6 C6      11.1943 -12.6315   6.5709   C.2       1 RES1   0.0000
     7 C7      10.2237 -12.7611   5.6022   C.2       1 RES1   0.0000
     8 Cl8      9.8544 -11.3177   4.6194   Cl        1 RES1   0.0000
     9 C9       9.5030 -13.9351   5.3780   C.2       1 RES1   0.0000
    10 C10      9.7214 -15.0753   6.1332   C.2       1 RES1   0.0000
    11 C11     10.7031 -14.9678   7.1240   C.2       1 RES1   0.0000
    12 C12     11.0517 -16.1318   7.9821   C.2       1 RES1   0.0000
    13 N13     10.6236 -17.3379   7.6181   N.2       1 RES1   0.0000
    14 C14     10.8095 -18.5455   8.4558   C.3       1 RES1   0.0000
    15 C15      9.9042 -19.7265   8.0435   C.3       1 RES1   0.0000
    16 C16      8.9347 -19.8882   9.2154   C.2       1 RES1   0.0000
    17 C17      7.8463 -19.0283   9.4300   C.2       1 RES1   0.0000
    18 S18      6.9500 -19.6048  10.8096   S.3       1 RES1   0.0000
    19 C19      7.9241 -20.9635  11.2587   C.2       1 RES1   0.0000
    20 C20      8.9479 -20.9570  10.2935   C.2       1 RES1   0.0000
    21 C21      9.9366 -22.0885  10.2854   C.2       1 RES1   0.0000
    22 C22      9.6879 -23.3088  10.9826   C.2       1 RES1   0.0000
    23 N23     10.7324 -24.1303  10.6963   N.2       1 RES1   0.0000
    24 N24     11.6011 -23.4052   9.8277   N.2       1 RES1   0.0000
    25 C25     11.0984 -22.1438   9.5564   C.2       1 RES1   0.0000
    26 C26     12.2532 -18.9169   8.3253   C.2       1 RES1   0.0000
    27 O27     12.9253 -18.6359   7.3288   O.co2     1 RES1   0.0000
    28 O28     12.7846 -19.6123   9.2158   O.co2     1 RES1  -1.0000
    29 N29     11.6675 -16.0536   9.0968   N.2       1 RES1   0.0000
@<TRIPOS>BOND
     1     1     2    1
     2     2     3    1
     3     2     4    1
     4     4     5    1
     5     5     6    2
     6     6     7    1
     7     7     8    1
     8     7     9    2
     9     9    10    1
    10    10    11    2
    11    11    12    1
    12    12    13    1
    13    13    14    1
    14    14    15    1
    15    15    16    1
    16    16    17    2
    17    17    18    1
    18    18    19    1
    19    19    20    2
    20    20    21    1
    21    21    22    1
    22    22    23    2
    23    23    24    1
    24    24    25    1
    25    14    26    1
    26    26    27    2
    27    26    28    1
    28    12    29    2
    29    29     2    1
    30    11     5    1
    31    20    16    1
    32    25    21    2
@<TRIPOS>SUBSTRUCTURE
     1 RES1        1 GROUP             0 ****  ****    0  
@<TRIPOS>MOLECULE
ligand_83
    29    32     1     0     0
SMALL
USER_CHARGES
****
Generated from the CSD

@<TRIPOS>ATOM
     1 C1      13.3369 -14.9699  10.4470   C.3       1 RES1   0.0000
     2 C2      12.1343 -14.7277   9.5577   C.3       1 RES1   0.0000
     3 C3      10.9767 -14.1464  10.4005   C.3       1 RES1   0.0000
     4 C4      12.5159 -13.8195   8.4045   C.3       1 RES1   0.0000
     5 C5      11.4461 -13.7735   7.3435   C.2       1 RES1   0.0000
     6 C6      11.2002 -12.6333   6.5663   C.2       1 RES1   0.0000
     7 C7      10.2197 -12.7593   5.6072   C.2       1 RES1   0.0000
     8 Cl8      9.8457 -11.3144   4.6284   Cl        1 RES1   0.0000
     9 C9       9.4927 -13.9307   5.3899   C.2       1 RES1   0.0000
    10 C10      9.7146 -15.0718   6.1427   C.2       1 RES1   0.0000
    11 C11     10.7064 -14.9680   7.1237   C.2       1 RES1   0.0000
    12 C12     11.0594 -16.1334   7.9781   C.2       1 RES1   0.0000
    13 N13     10.6236 -17.3379   7.6181   N.2       1 RES1   0.0000
    14 C14     10.8095 -18.5455   8.4558   C.3       1 RES1   0.0000
    15 C15      9.7857 -18.6609   9.6059   C.3       1 RES1   0.0000
    16 C16      8.4391 -18.8260   8.8996   C.2       1 RES1   0.0000
    17 C17      7.7339 -17.7496   8.3392   C.2       1 RES1   0.0000
    18 S18      6.3028 -18.3711   7.5616   S.3       1 RES1   0.0000
    19 C19      6.4606 -20.0541   7.9351   C.2       1 RES1   0.0000
    20 C20      7.6635 -20.1095   8.6629   C.2       1 RES1   0.0000
    21 C21      8.2037 -21.4546   9.0590   C.2       1 RES1   0.0000
    22 C22      8.9882 -21.6317  10.2382   C.2       1 RES1   0.0000
    23 N23      9.2334 -22.9652  10.3352   N.2       1 RES1   0.0000
    24 N24      8.5945 -23.5841   9.2201   N.2       1 RES1   0.0000
    25 C25      7.9386 -22.6492   8.4371   C.2       1 RES1   0.0000
    26 C26     10.6919 -19.7119   7.5257   C.2       1 RES1   0.0000
    27 O27     10.1087 -19.6413   6.4402   O.co2     1 RES1   0.0000
    28 O28     11.1223 -20.8257   7.8906   O.co2     1 RES1  -1.0000
    29 N29     11.6865 -16.0576   9.0867   N.2       1 RES1   0.0000
@<TRIPOS>BOND
     1     1     2    1
     2     2     3    1
     3     2     4    1
     4     4     5    1
     5     5     6    2
     6     6     7    1
     7     7     8    1
     8     7     9    2
     9     9    10    1
    10    10    11    2
    11    11    12    1
    12    12    13    1
    13    13    14    1
    14    14    15    1
    15    15    16    1
    16    16    17    2
    17    17    18    1
    18    18    19    1
    19    19    20    2
    20    20    21    1
    21    21    22    1
    22    22    23    2
    23    23    24    1
    24    24    25    1
    25    14    26    1
    26    26    27    2
    27    26    28    1
    28    12    29    2
    29    29     2    1
    30    11     5    1
    31    20    16    1
    32    25    21    2
@<TRIPOS>SUBSTRUCTURE
     1 RES1        1 GROUP             0 ****  ****    0  
@<TRIPOS>MOLECULE
ligand_84
    29    32     1     0     0
SMALL
USER_CHARGES
****
Generated from the CSD

@<TRIPOS>ATOM
     1 C1      13.3002 -14.9600  10.4736   C.3       1 RES1   0.0000
     2 C2      12.1060 -14.7221   9.5719   C.3       1 RES1   0.0000
     3 C3      10.9380 -14.1440  10.4024   C.3       1 RES1   0.0000
     4 C4      12.4966 -13.8132   8.4222   C.3       1 RES1   0.0000
     5 C5      11.4376 -13.7711   7.3503   C.2       1 RES1   0.0000
     6 C6      11.1961 -12.6320   6.5700   C.2       1 RES1   0.0000
     7 C7      10.2259 -12.7615   5.6009   C.2       1 RES1   0.0000
     8 Cl8      9.8574 -11.3182   4.6177   Cl        1 RES1   0.0000
     9 C9       9.5049 -13.9353   5.3768   C.2       1 RES1   0.0000
    10 C10      9.7226 -15.0753   6.1324   C.2       1 RES1   0.0000
    11 C11     10.7040 -14.9679   7.1234   C.2       1 RES1   0.0000
    12 C12     11.0519 -16.1319   7.9820   C.2       1 RES1   0.0000
    13 N13     10.6236 -17.3379   7.6181   N.2       1 RES1   0.0000
    14 C14     10.8095 -18.5455   8.4558   C.3       1 RES1   0.0000
    15 C15      9.9042 -19.7265   8.0435   C.3       1 RES1   0.0000
    16 C16      8.4827 -19.2180   8.2885   C.2       1 RES1   0.0000
    17 C17      8.1191 -18.4887   9.4312   C.2       1 RES1   0.0000
    18 S18      6.4439 -18.0293   9.2840   S.3       1 RES1   0.0000
    19 C19      6.0551 -18.7781   7.7725   C.2       1 RES1   0.0000
    20 C20      7.2702 -19.3746   7.3883   C.2       1 RES1   0.0000
    21 C21      7.3565 -20.0262   6.0370   C.2       1 RES1   0.0000
    22 C22      8.3114 -21.0491   5.7558   C.2       1 RES1   0.0000
    23 N23      8.0581 -21.4676   4.4875   N.2       1 RES1   0.0000
    24 N24      6.9530 -20.7004   4.0131   N.2       1 RES1   0.0000
    25 C25      6.5042 -19.8181   4.9814   C.2       1 RES1   0.0000
    26 C26     12.2532 -18.9169   8.3253   C.2       1 RES1   0.0000
    27 O27     12.9489 -18.5586   7.3707   O.co2     1 RES1   0.0000
    28 O28     12.7602 -19.6895   9.1650   O.co2     1 RES1  -1.0000
    29 N29     11.6673 -16.0536   9.0969   N.2       1 RES1   0.0000
@<TRIPOS>BOND
     1     1     2    1
     2     2     3    1
     3     2     4    1
     4     4     5    1
     5     5     6    2
     6     6     7    1
     7     7     8    1
     8     7     9    2
     9     9    10    1
    10    10    11    2
    11    11    12    1
    12    12    13    1
    13    13    14    1
    14    14    15    1
    15    15    16    1
    16    16    17    2
    17    17    18    1
    18    18    19    1
    19    19    20    2
    20    20    21    1
    21    21    22    1
    22    22    23    2
    23    23    24    1
    24    24    25    1
    25    14    26    1
    26    26    27    2
    27    26    28    1
    28    12    29    2
    29    29     2    1
    30    11     5    1
    31    20    16    1
    32    25    21    2
@<TRIPOS>SUBSTRUCTURE
     1 RES1        1 GROUP             0 ****  ****    0  
@<TRIPOS>MOLECULE
ligand_85
    29    32     1     0     0
SMALL
USER_CHARGES
****
Generated from the CSD

@<TRIPOS>ATOM
     1 C1      13.2513 -14.9439  10.5052   C.3       1 RES1   0.0000
     2 C2      12.0638 -14.7142   9.5928   C.3       1 RES1   0.0000
     3 C3      10.8827 -14.1488  10.4136   C.3       1 RES1   0.0000
     4 C4      12.4571 -13.7987   8.4492   C.3       1 RES1   0.0000
     5 C5      11.4081 -13.7632   7.3674   C.2       1 RES1   0.0000
     6 C6      11.1639 -12.6242   6.5878   C.2       1 RES1   0.0000
     7 C7      10.2041 -12.7598   5.6091   C.2       1 RES1   0.0000
     8 Cl8      9.8321 -11.3173   4.6261   Cl        1 RES1   0.0000
     9 C9       9.4959 -13.9394   5.3750   C.2       1 RES1   0.0000
    10 C10      9.7166 -15.0795   6.1297   C.2       1 RES1   0.0000
    11 C11     10.6874 -14.9660   7.1304   C.2       1 RES1   0.0000
    12 C12     11.0376 -16.1291   7.9892   C.2       1 RES1   0.0000
    13 N13     10.6236 -17.3379   7.6181   N.2       1 RES1   0.0000
    14 C14     10.8095 -18.5455   8.4558   C.3       1 RES1   0.0000
    15 C15      9.9042 -19.7265   8.0435   C.3       1 RES1   0.0000
    16 C16      8.5027 -19.3021   8.4853   C.2       1 RES1   0.0000
    17 C17      7.8716 -18.1415   8.0114   C.2       1 RES1   0.0000
    18 S18      6.2670 -18.0690   8.6888   S.3       1 RES1   0.0000
    19 C19      6.2896 -19.4903   9.6768   C.2       1 RES1   0.0000
    20 C20      7.5718 -20.0214   9.4450   C.2       1 RES1   0.0000
    21 C21      7.9197 -21.3524  10.0496   C.2       1 RES1   0.0000
    22 C22      9.2622 -21.6938  10.3932   C.2       1 RES1   0.0000
    23 N23      9.2043 -22.9160  10.9853   N.2       1 RES1   0.0000
    24 N24      7.8313 -23.3027  10.9993   N.2       1 RES1   0.0000
    25 C25      7.0302 -22.3240  10.4356   C.2       1 RES1   0.0000
    26 C26     12.2532 -18.9169   8.3253   C.2       1 RES1   0.0000
    27 O27     12.9489 -18.5586   7.3707   O.co2     1 RES1   0.0000
    28 O28     12.7602 -19.6895   9.1650   O.co2     1 RES1  -1.0000
    29 N29     11.6416 -16.0483   9.1102   N.2       1 RES1   0.0000
@<TRIPOS>BOND
     1     1     2    1
     2     2     3    1
     3     2     4    1
     4     4     5    1
     5     5     6    2
     6     6     7    1
     7     7     8    1
     8     7     9    2
     9     9    10    1
    10    10    11    2
    11    11    12    1
    12    12    13    1
    13    13    14    1
    14    14    15    1
    15    15    16    1
    16    16    17    2
    17    17    18    1
    18    18    19    1
    19    19    20    2
    20    20    21    1
    21    21    22    1
    22    22    23    2
    23    23    24    1
    24    24    25    1
    25    14    26    1
    26    26    27    2
    27    26    28    1
    28    12    29    2
    29    29     2    1
    30    11     5    1
    31    20    16    1
    32    25    21    2
@<TRIPOS>SUBSTRUCTURE
     1 RES1        1 GROUP             0 ****  ****    0  
@<TRIPOS>MOLECULE
ligand_86
    29    32     1     0     0
SMALL
USER_CHARGES
****
Generated from the CSD

@<TRIPOS>ATOM
     1 C1      14.0457 -15.6162   7.4889   C.3       1 RES1   0.0000
     2 C2      13.1363 -15.1910   8.6219   C.3       1 RES1   0.0000
     3 C3      13.9188 -15.1861   9.9563   C.3       1 RES1   0.0000
     4 C4      12.5177 -13.8214   8.3845   C.3       1 RES1   0.0000
     5 C5      11.5462 -13.8247   7.2362   C.2       1 RES1   0.0000
     6 C6      11.3246 -12.7017   6.4275   C.2       1 RES1   0.0000
     7 C7      10.3732 -12.8449   5.4421   C.2       1 RES1   0.0000
     8 Cl8     10.0766 -11.4391   4.3829   Cl        1 RES1   0.0000
     9 C9       9.6501 -14.0187   5.2267   C.2       1 RES1   0.0000
    10 C10      9.8453 -15.1451   6.0077   C.2       1 RES1   0.0000
    11 C11     10.8067 -15.0261   7.0165   C.2       1 RES1   0.0000
    12 C12     11.0651 -16.1394   7.9670   C.2       1 RES1   0.0000
    13 N13     10.1980 -17.1484   7.9739   N.2       1 RES1   0.0000
    14 C14     10.4101 -18.3875   8.7577   C.3       1 RES1   0.0000
    15 C15      9.1376 -19.2502   8.9023   C.3       1 RES1   0.0000
    16 C16      8.8668 -19.7665   7.4882   C.2       1 RES1   0.0000
    17 C17      8.2348 -18.9940   6.5014   C.2       1 RES1   0.0000
    18 S18      8.1968 -19.9127   5.0203   S.3       1 RES1   0.0000
    19 C19      8.9388 -21.3824   5.5552   C.2       1 RES1   0.0000
    20 C20      9.2270 -21.1223   6.9076   C.2       1 RES1   0.0000
    21 C21     10.0036 -22.1452   7.6878   C.2       1 RES1   0.0000
    22 C22      9.4046 -22.9016   8.7396   C.2       1 RES1   0.0000
    23 N23     10.3520 -23.7789   9.1644   N.2       1 RES1   0.0000
    24 N24     11.5124 -23.5508   8.3668   N.2       1 RES1   0.0000
    25 C25     11.2911 -22.5494   7.4365   C.2       1 RES1   0.0000
    26 C26     11.4834 -19.1464   8.0426   C.2       1 RES1   0.0000
    27 O27     11.7229 -18.9888   6.8420   O.co2     1 RES1   0.0000
    28 O28     12.1089 -20.0368   8.6549   O.co2     1 RES1  -1.0000
    29 N29     12.0948 -16.2475   8.7090   N.2       1 RES1   0.0000
@<TRIPOS>BOND
     1     1     2    1
     2     2     3    1
     3     2     4    1
     4     4     5    1
     5     5     6    2
     6     6     7    1
     7     7     8    1
     8     7     9    2
     9     9    10    1
    10    10    11    2
    11    11    12    1
    12    12    13    1
    13    13    14    1
    14    14    15    1
    15    15    16    1
    16    16    17    2
    17    17    18    1
    18    18    19    1
    19    19    20    2
    20    20    21    1
    21    21    22    1
    22    22    23    2
    23    23    24    1
    24    24    25    1
    25    14    26    1
    26    26    27    2
    27    26    28    1
    28    12    29    2
    29    29     2    1
    30    11     5    1
    31    20    16    1
    32    25    21    2
@<TRIPOS>SUBSTRUCTURE
     1 RES1        1 GROUP             0 ****  ****    0  
@<TRIPOS>MOLECULE
ligand_87
    29    32     1     0     0
SMALL
USER_CHARGES
****
Generated from the CSD

@<TRIPOS>ATOM
     1 C1      14.0348 -15.5679   7.5629   C.3       1 RES1   0.0000
     2 C2      13.1007 -15.1589   8.6819   C.3       1 RES1   0.0000
     3 C3      13.8599 -15.1510  10.0297   C.3       1 RES1   0.0000
     4 C4      12.4698 -13.7958   8.4400   C.3       1 RES1   0.0000
     5 C5      11.5185 -13.8052   7.2749   C.2       1 RES1   0.0000
     6 C6      11.2974 -12.6811   6.4676   C.2       1 RES1   0.0000
     7 C7      10.3651 -12.8311   5.4652   C.2       1 RES1   0.0000
     8 Cl8     10.0700 -11.4240   4.4073   Cl        1 RES1   0.0000
     9 C9       9.6601 -14.0125   5.2318   C.2       1 RES1   0.0000
    10 C10      9.8553 -15.1402   6.0110   C.2       1 RES1   0.0000
    11 C11     10.7976 -15.0144   7.0369   C.2       1 RES1   0.0000
    12 C12     11.0528 -16.1290   7.9867   C.2       1 RES1   0.0000
    13 N13     10.1980 -17.1484   7.9739   N.2       1 RES1   0.0000
    14 C14     10.4101 -18.3875   8.7577   C.3       1 RES1   0.0000
    15 C15      9.1376 -19.2502   8.9023   C.3       1 RES1   0.0000
    16 C16      8.7721 -19.6305   7.4666   C.2       1 RES1   0.0000
    17 C17      9.3628 -20.7080   6.7883   C.2       1 RES1   0.0000
    18 S18      8.6127 -20.8529   5.2213   S.3       1 RES1   0.0000
    19 C19      7.5179 -19.5134   5.2835   C.2       1 RES1   0.0000
    20 C20      7.7471 -18.9711   6.5614   C.2       1 RES1   0.0000
    21 C21      6.8715 -17.8445   7.0328   C.2       1 RES1   0.0000
    22 C22      6.0773 -17.9536   8.2136   C.2       1 RES1   0.0000
    23 N23      5.4868 -16.7417   8.3882   N.2       1 RES1   0.0000
    24 N24      5.9294 -15.9093   7.3177   N.2       1 RES1   0.0000
    25 C25      6.8044 -16.5873   6.4858   C.2       1 RES1   0.0000
    26 C26     11.4834 -19.1464   8.0426   C.2       1 RES1   0.0000
    27 O27     11.7546 -18.9550   6.8537   O.co2     1 RES1   0.0000
    28 O28     12.0748 -20.0701   8.6392   O.co2     1 RES1  -1.0000
    29 N29     12.0707 -16.2284   8.7460   N.2       1 RES1   0.0000
@<TRIPOS>BOND
     1     1     2    1
     2     2     3    1
     3     2     4    1
     4     4     5    1
     5     5     6    2
     6     6     7    1
     7     7     8    1
     8     7     9    2
     9     9    10    1
    10    10    11    2
    11    11    12    1
    12    12    13    1
    13    13    14    1
    14    14    15    1
    15    15    16    1
    16    16    17    2
    17    17    18    1
    18    18    19    1
    19    19    20    2
    20    20    21    1
    21    21    22    1
    22    22    23    2
    23    23    24    1
    24    24    25    1
    25    14    26    1
    26    26    27    2
    27    26    28    1
    28    12    29    2
    29    29     2    1
    30    11     5    1
    31    20    16    1
    32    25    21    2
@<TRIPOS>SUBSTRUCTURE
     1 RES1        1 GROUP             0 ****  ****    0  
@<TRIPOS>MOLECULE
ligand_88
    29    32     1     0     0
SMALL
USER_CHARGES
****
Generated from the CSD

@<TRIPOS>ATOM
     1 C1      14.0117 -15.4843   7.7007   C.3       1 RES1   0.0000
     2 C2      13.0322 -15.1023   8.7900   C.3       1 RES1   0.0000
     3 C3      13.7455 -15.0867  10.1625   C.3       1 RES1   0.0000
     4 C4      12.3806 -13.7514   8.5347   C.3       1 RES1   0.0000
     5 C5      11.4692 -13.7736   7.3383   C.2       1 RES1   0.0000
     6 C6      11.2512 -12.6494   6.5303   C.2       1 RES1   0.0000
     7 C7      10.3563 -12.8128   5.4963   C.2       1 RES1   0.0000
     8 Cl8     10.0667 -11.4056   4.4370   Cl        1 RES1   0.0000
     9 C9       9.6851 -14.0074   5.2328   C.2       1 RES1   0.0000
    10 C10      9.8782 -15.1356   6.0119   C.2       1 RES1   0.0000
    11 C11     10.7827 -14.9963   7.0695   C.2       1 RES1   0.0000
    12 C12     11.0299 -16.1112   8.0210   C.2       1 RES1   0.0000
    13 N13     10.1980 -17.1484   7.9739   N.2       1 RES1   0.0000
    14 C14     10.4101 -18.3875   8.7577   C.3       1 RES1   0.0000
    15 C15      9.1376 -19.2502   8.9023   C.3       1 RES1   0.0000
    16 C16      8.6864 -19.5046   7.4631   C.2       1 RES1   0.0000
    17 C17      9.3263 -20.4198   6.6129   C.2       1 RES1   0.0000
    18 S18      8.4569 -20.4727   5.1029   S.3       1 RES1   0.0000
    19 C19      7.2334 -19.2885   5.4150   C.2       1 RES1   0.0000
    20 C20      7.5177 -18.8723   6.7287   C.2       1 RES1   0.0000
    21 C21      6.5717 -17.9188   7.4023   C.2       1 RES1   0.0000
    22 C22      6.8914 -16.5384   7.5735   C.2       1 RES1   0.0000
    23 N23      5.7956 -15.9607   8.1333   N.2       1 RES1   0.0000
    24 N24      4.8224 -16.9914   8.2929   N.2       1 RES1   0.0000
    25 C25      5.2962 -18.2041   7.8217   C.2       1 RES1   0.0000
    26 C26     11.4834 -19.1464   8.0426   C.2       1 RES1   0.0000
    27 O27     11.7721 -18.9369   6.8609   O.co2     1 RES1   0.0000
    28 O28     12.0561 -20.0878   8.6298   O.co2     1 RES1  -1.0000
    29 N29     12.0237 -16.1937   8.8135   N.2       1 RES1   0.0000
@<TRIPOS>BOND
     1     1     2    1
     2     2     3    1
     3     2     4    1
     4     4     5    1
     5     5     6    2
     6     6     7    1
     7     7     8    1
     8     7     9    2
     9     9    10    1
    10    10    11    2
    11    11    12    1
    12    12    13    1
    13    13    14    1
    14    14    15    1
    15    15    16    1
    16    16    17    2
    17    17    18    1
    18    18    19    1
    19    19    20    2
    20    20    21    1
    21    21    22    1
    22    22    23    2
    23    23    24    1
    24    24    25    1
    25    14    26    1
    26    26    27    2
    27    26    28    1
    28    12    29    2
    29    29     2    1
    30    11     5    1
    31    20    16    1
    32    25    21    2
@<TRIPOS>SUBSTRUCTURE
     1 RES1        1 GROUP             0 ****  ****    0  
@<TRIPOS>MOLECULE
ligand_89
    29    32     1     0     0
SMALL
USER_CHARGES
****
Generated from the CSD

@<TRIPOS>ATOM
     1 C1      13.3371 -14.9699  10.4468   C.3       1 RES1   0.0000
     2 C2      12.1344 -14.7277   9.5577   C.3       1 RES1   0.0000
     3 C3      10.9769 -14.1464  10.4005   C.3       1 RES1   0.0000
     4 C4      12.5158 -13.8195   8.4044   C.3       1 RES1   0.0000
     5 C5      11.4460 -13.7735   7.3436   C.2       1 RES1   0.0000
     6 C6      11.2000 -12.6332   6.5664   C.2       1 RES1   0.0000
     7 C7      10.2193 -12.7592   5.6074   C.2       1 RES1   0.0000
     8 Cl8      9.8452 -11.3143   4.6287   Cl        1 RES1   0.0000
     9 C9       9.4924 -13.9306   5.3901   C.2       1 RES1   0.0000
    10 C10      9.7144 -15.0718   6.1429   C.2       1 RES1   0.0000
    11 C11     10.7063 -14.9680   7.1238   C.2       1 RES1   0.0000
    12 C12     11.0594 -16.1334   7.9781   C.2       1 RES1   0.0000
    13 N13     10.6236 -17.3379   7.6181   N.2       1 RES1   0.0000
    14 C14     10.8095 -18.5455   8.4558   C.3       1 RES1   0.0000
    15 C15      9.7857 -18.6609   9.6059   C.3       1 RES1   0.0000
    16 C16     10.1721 -19.9519  10.3294   C.2       1 RES1   0.0000
    17 C17     11.3013 -20.0549  11.1566   C.2       1 RES1   0.0000
    18 S18     11.3341 -21.6537  11.8508   S.3       1 RES1   0.0000
    19 C19      9.9346 -22.3405  11.0982   C.2       1 RES1   0.0000
    20 C20      9.4419 -21.2829  10.3118   C.2       1 RES1   0.0000
    21 C21      8.1357 -21.4687   9.5925   C.2       1 RES1   0.0000
    22 C22      7.7917 -20.6907   8.4464   C.2       1 RES1   0.0000
    23 N23      6.5993 -21.1710   8.0045   N.2       1 RES1   0.0000
    24 N24      6.2332 -22.2353   8.8810   N.2       1 RES1   0.0000
    25 C25      7.1958 -22.4337   9.8563   C.2       1 RES1   0.0000
    26 C26     10.6919 -19.7119   7.5257   C.2       1 RES1   0.0000
    27 O27     10.0936 -19.6461   6.4481   O.co2     1 RES1   0.0000
    28 O28     11.1389 -20.8215   7.8832   O.co2     1 RES1  -1.0000
    29 N29     11.6866 -16.0576   9.0866   N.2       1 RES1   0.0000
@<TRIPOS>BOND
     1     1     2    1
     2     2     3    1
     3     2     4    1
     4     4     5    1
     5     5     6    2
     6     6     7    1
     7     7     8    1
     8     7     9    2
     9     9    10    1
    10    10    11    2
    11    11    12    1
    12    12    13    1
    13    13    14    1
    14    14    15    1
    15    15    16    1
    16    16    17    2
    17    17    18    1
    18    18    19    1
    19    19    20    2
    20    20    21    1
    21    21    22    1
    22    22    23    2
    23    23    24    1
    24    24    25    1
    25    14    26    1
    26    26    27    2
    27    26    28    1
    28    12    29    2
    29    29     2    1
    30    11     5    1
    31    20    16    1
    32    25    21    2
@<TRIPOS>SUBSTRUCTURE
     1 RES1        1 GROUP             0 ****  ****    0  
@<TRIPOS>MOLECULE
ligand_90
    29    32     1     0     0
SMALL
USER_CHARGES
****
Generated from the CSD

@<TRIPOS>ATOM
     1 C1      14.0248 -15.6360   7.2986   C.3       1 RES1   0.0000
     2 C2      13.1813 -15.2185   8.4843   C.3       1 RES1   0.0000
     3 C3      14.0351 -15.2351   9.7742   C.3       1 RES1   0.0000
     4 C4      12.5607 -13.8422   8.2971   C.3       1 RES1   0.0000
     5 C5      11.5283 -13.8249   7.2033   C.2       1 RES1   0.0000
     6 C6      11.2713 -12.6907   6.4212   C.2       1 RES1   0.0000
     7 C7      10.2668 -12.8156   5.4874   C.2       1 RES1   0.0000
     8 Cl8      9.9235 -11.3951   4.4625   Cl        1 RES1   0.0000
     9 C9       9.5247 -13.9819   5.2977   C.2       1 RES1   0.0000
    10 C10      9.7537 -15.1190   6.0536   C.2       1 RES1   0.0000
    11 C11     10.7693 -15.0187   7.0099   C.2       1 RES1   0.0000
    12 C12     11.0707 -16.1452   7.9318   C.2       1 RES1   0.0000
    13 N13     10.1980 -17.1484   7.9739   N.2       1 RES1   0.0000
    14 C14     10.5437 -18.4962   8.4826   C.3       1 RES1   0.0000
    15 C15      9.5533 -19.0276   9.5413   C.3       1 RES1   0.0000
    16 C16     10.1808 -20.3362  10.0243   C.2       1 RES1   0.0000
    17 C17      9.6861 -21.5991   9.6632   C.2       1 RES1   0.0000
    18 S18     10.7279 -22.8175  10.3481   S.3       1 RES1   0.0000
    19 C19     11.8526 -21.8128  11.1980   C.2       1 RES1   0.0000
    20 C20     11.3982 -20.5117  10.9144   C.2       1 RES1   0.0000
    21 C21     12.2156 -19.3441  11.3903   C.2       1 RES1   0.0000
    22 C22     13.5244 -19.5147  11.9334   C.2       1 RES1   0.0000
    23 N23     14.0006 -18.2652  12.1780   N.2       1 RES1   0.0000
    24 N24     12.9816 -17.3502  11.7789   N.2       1 RES1   0.0000
    25 C25     11.8800 -18.0184  11.2718   C.2       1 RES1   0.0000
    26 C26     10.5670 -19.3929   7.2849   C.2       1 RES1   0.0000
    27 O27     10.9696 -20.5588   7.3341   O.co2     1 RES1   0.0000
    28 O28     10.2497 -18.9271   6.1708   O.co2     1 RES1  -1.0000
    29 N29     12.1384 -16.2692   8.6154   N.2       1 RES1   0.0000
@<TRIPOS>BOND
     1     1     2    1
     2     2     3    1
     3     2     4    1
     4     4     5    1
     5     5     6    2
     6     6     7    1
     7     7     8    1
     8     7     9    2
     9     9    10    1
    10    10    11    2
    11    11    12    1
    12    12    13    1
    13    13    14    1
    14    14    15    1
    15    15    16    1
    16    16    17    2
    17    17    18    1
    18    18    19    1
    19    19    20    2
    20    20    21    1
    21    21    22    1
    22    22    23    2
    23    23    24    1
    24    24    25    1
    25    14    26    1
    26    26    27    2
    27    26    28    1
    28    12    29    2
    29    29     2    1
    30    11     5    1
    31    20    16    1
    32    25    21    2
@<TRIPOS>SUBSTRUCTURE
     1 RES1        1 GROUP             0 ****  ****    0  
@<TRIPOS>MOLECULE
ligand_91
    29    32     1     0     0
SMALL
USER_CHARGES
****
Generated from the CSD

@<TRIPOS>ATOM
     1 C1      13.0079 -14.8869  10.6643   C.3       1 RES1   0.0000
     2 C2      11.8768 -14.6832   9.6771   C.3       1 RES1   0.0000
     3 C3      10.6334 -14.1435  10.4195   C.3       1 RES1   0.0000
     4 C4      12.3228 -13.7596   8.5598   C.3       1 RES1   0.0000
     5 C5      11.3450 -13.7471   7.4128   C.2       1 RES1   0.0000
     6 C6      11.1267 -12.6138   6.6173   C.2       1 RES1   0.0000
     7 C7      10.2349 -12.7703   5.5793   C.2       1 RES1   0.0000
     8 Cl8      9.8957 -11.3363   4.5722   Cl        1 RES1   0.0000
     9 C9       9.5689 -13.9651   5.3020   C.2       1 RES1   0.0000
    10 C10      9.7654 -15.1000   6.0710   C.2       1 RES1   0.0000
    11 C11     10.6672 -14.9653   7.1318   C.2       1 RES1   0.0000
    12 C12     10.9866 -16.1203   8.0131   C.2       1 RES1   0.0000
    13 N13     10.6236 -17.3379   7.6181   N.2       1 RES1   0.0000
    14 C14     10.8095 -18.5455   8.4558   C.3       1 RES1   0.0000
    15 C15      9.9042 -19.7265   8.0435   C.3       1 RES1   0.0000
    16 C16      8.4919 -19.2675   8.4097   C.2       1 RES1   0.0000
    17 C17      7.6022 -18.7154   7.4751   C.2       1 RES1   0.0000
    18 S18      6.0829 -18.4079   8.2729   S.3       1 RES1   0.0000
    19 C19      6.4772 -18.9109   9.8817   C.2       1 RES1   0.0000
    20 C20      7.8133 -19.3367   9.7661   C.2       1 RES1   0.0000
    21 C21      8.4723 -19.9710  10.9583   C.2       1 RES1   0.0000
    22 C22      9.8804 -20.1994  11.0056   C.2       1 RES1   0.0000
    23 N23     10.1432 -20.7003  12.2416   N.2       1 RES1   0.0000
    24 N24      8.8972 -20.7677  12.9327   N.2       1 RES1   0.0000
    25 C25      7.8613 -20.2972  12.1434   C.2       1 RES1   0.0000
    26 C26     12.2532 -18.9169   8.3253   C.2       1 RES1   0.0000
    27 O27     13.1556 -18.0757   8.2826   O.co2     1 RES1   0.0000
    28 O28     12.5600 -20.1168   8.1668   O.co2     1 RES1  -1.0000
    29 N29     11.5154 -16.0262   9.1705   N.2       1 RES1   0.0000
@<TRIPOS>BOND
     1     1     2    1
     2     2     3    1
     3     2     4    1
     4     4     5    1
     5     5     6    2
     6     6     7    1
     7     7     8    1
     8     7     9    2
     9     9    10    1
    10    10    11    2
    11    11    12    1
    12    12    13    1
    13    13    14    1
    14    14    15    1
    15    15    16    1
    16    16    17    2
    17    17    18    1
    18    18    19    1
    19    19    20    2
    20    20    21    1
    21    21    22    1
    22    22    23    2
    23    23    24    1
    24    24    25    1
    25    14    26    1
    26    26    27    2
    27    26    28    1
    28    12    29    2
    29    29     2    1
    30    11     5    1
    31    20    16    1
    32    25    21    2
@<TRIPOS>SUBSTRUCTURE
     1 RES1        1 GROUP             0 ****  ****    0  
@<TRIPOS>MOLECULE
ligand_92
    29    32     1     0     0
SMALL
USER_CHARGES
****
Generated from the CSD

@<TRIPOS>ATOM
     1 C1      14.0345 -15.5674   7.5624   C.3       1 RES1   0.0000
     2 C2      13.1007 -15.1589   8.6818   C.3       1 RES1   0.0000
     3 C3      13.8603 -15.1515  10.0294   C.3       1 RES1   0.0000
     4 C4      12.4696 -13.7958   8.4406   C.3       1 RES1   0.0000
     5 C5      11.5180 -13.8049   7.2758   C.2       1 RES1   0.0000
     6 C6      11.2966 -12.6805   6.4689   C.2       1 RES1   0.0000
     7 C7      10.3640 -12.8301   5.4667   C.2       1 RES1   0.0000
     8 Cl8     10.0685 -11.4226   4.4095   Cl        1 RES1   0.0000
     9 C9       9.6591 -14.0115   5.2331   C.2       1 RES1   0.0000
    10 C10      9.8546 -15.1395   6.0119   C.2       1 RES1   0.0000
    11 C11     10.7971 -15.0140   7.0375   C.2       1 RES1   0.0000
    12 C12     11.0527 -16.1290   7.9868   C.2       1 RES1   0.0000
    13 N13     10.1980 -17.1484   7.9739   N.2       1 RES1   0.0000
    14 C14     10.4101 -18.3875   8.7577   C.3       1 RES1   0.0000
    15 C15      9.1376 -19.2502   8.9023   C.3       1 RES1   0.0000
    16 C16      9.5648 -20.4073   9.8067   C.2       1 RES1   0.0000
    17 C17      9.6939 -20.2809  11.1986   C.2       1 RES1   0.0000
    18 S18     10.1125 -21.8391  11.8588   S.3       1 RES1   0.0000
    19 C19     10.2093 -22.7701  10.4025   C.2       1 RES1   0.0000
    20 C20      9.8898 -21.8340   9.4018   C.2       1 RES1   0.0000
    21 C21      9.7484 -22.3148   7.9852   C.2       1 RES1   0.0000
    22 C22      8.5321 -22.1558   7.2554   C.2       1 RES1   0.0000
    23 N23      8.7782 -22.6172   6.0007   N.2       1 RES1   0.0000
    24 N24     10.1381 -23.0472   5.9789   N.2       1 RES1   0.0000
    25 C25     10.7473 -22.8423   7.2053   C.2       1 RES1   0.0000
    26 C26     11.4834 -19.1464   8.0426   C.2       1 RES1   0.0000
    27 O27     11.7114 -19.0014   6.8382   O.co2     1 RES1   0.0000
    28 O28     12.1212 -20.0243   8.6602   O.co2     1 RES1  -1.0000
    29 N29     12.0709 -16.2285   8.7458   N.2       1 RES1   0.0000
@<TRIPOS>BOND
     1     1     2    1
     2     2     3    1
     3     2     4    1
     4     4     5    1
     5     5     6    2
     6     6     7    1
     7     7     8    1
     8     7     9    2
     9     9    10    1
    10    10    11    2
    11    11    12    1
    12    12    13    1
    13    13    14    1
    14    14    15    1
    15    15    16    1
    16    16    17    2
    17    17    18    1
    18    18    19    1
    19    19    20    2
    20    20    21    1
    21    21    22    1
    22    22    23    2
    23    23    24    1
    24    24    25    1
    25    14    26    1
    26    26    27    2
    27    26    28    1
    28    12    29    2
    29    29     2    1
    30    11     5    1
    31    20    16    1
    32    25    21    2
@<TRIPOS>SUBSTRUCTURE
     1 RES1        1 GROUP             0 ****  ****    0  
@<TRIPOS>MOLECULE
ligand_93
    29    32     1     0     0
SMALL
USER_CHARGES
****
Generated from the CSD

@<TRIPOS>ATOM
     1 C1      14.0345 -15.5677   7.5607   C.3       1 RES1   0.0000
     2 C2      13.1013 -15.1595   8.6808   C.3       1 RES1   0.0000
     3 C3      13.8616 -15.1524  10.0279   C.3       1 RES1   0.0000
     4 C4      12.4703 -13.7962   8.4403   C.3       1 RES1   0.0000
     5 C5      11.5180 -13.8048   7.2761   C.2       1 RES1   0.0000
     6 C6      11.2962 -12.6802   6.4696   C.2       1 RES1   0.0000
     7 C7      10.3630 -12.8294   5.4679   C.2       1 RES1   0.0000
     8 Cl8     10.0671 -11.4216   4.4113   Cl        1 RES1   0.0000
     9 C9       9.6579 -14.0107   5.2344   C.2       1 RES1   0.0000
    10 C10      9.8537 -15.1389   6.0127   C.2       1 RES1   0.0000
    11 C11     10.7968 -15.0138   7.0378   C.2       1 RES1   0.0000
    12 C12     11.0528 -16.1291   7.9866   C.2       1 RES1   0.0000
    13 N13     10.1980 -17.1484   7.9739   N.2       1 RES1   0.0000
    14 C14     10.4101 -18.3875   8.7577   C.3       1 RES1   0.0000
    15 C15      9.1376 -19.2502   8.9023   C.3       1 RES1   0.0000
    16 C16      9.5794 -20.4367   9.7605   C.2       1 RES1   0.0000
    17 C17      9.8059 -20.3372  11.1421   C.2       1 RES1   0.0000
    18 S18     10.2075 -21.9202  11.7519   S.3       1 RES1   0.0000
    19 C19     10.1710 -22.8310  10.2802   C.2       1 RES1   0.0000
    20 C20      9.8216 -21.8679   9.3158   C.2       1 RES1   0.0000
    21 C21      9.5676 -22.3207   7.9056   C.2       1 RES1   0.0000
    22 C22     10.4847 -22.0383   6.8490   C.2       1 RES1   0.0000
    23 N23      9.9933 -22.6575   5.7432   N.2       1 RES1   0.0000
    24 N24      8.7885 -23.3113   6.1378   N.2       1 RES1   0.0000
    25 C25      8.5330 -23.1188   7.4850   C.2       1 RES1   0.0000
    26 C26     11.4834 -19.1464   8.0426   C.2       1 RES1   0.0000
    27 O27     11.7072 -19.0060   6.8369   O.co2     1 RES1   0.0000
    28 O28     12.1257 -20.0197   8.6621   O.co2     1 RES1  -1.0000
    29 N29     12.0714 -16.2289   8.7450   N.2       1 RES1   0.0000
@<TRIPOS>BOND
     1     1     2    1
     2     2     3    1
     3     2     4    1
     4     4     5    1
     5     5     6    2
     6     6     7    1
     7     7     8    1
     8     7     9    2
     9     9    10    1
    10    10    11    2
    11    11    12    1
    12    12    13    1
    13    13    14    1
    14    14    15    1
    15    15    16    1
    16    16    17    2
    17    17    18    1
    18    18    19    1
    19    19    20    2
    20    20    21    1
    21    21    22    1
    22    22    23    2
    23    23    24    1
    24    24    25    1
    25    14    26    1
    26    26    27    2
    27    26    28    1
    28    12    29    2
    29    29     2    1
    30    11     5    1
    31    20    16    1
    32    25    21    2
@<TRIPOS>SUBSTRUCTURE
     1 RES1        1 GROUP             0 ****  ****    0  
@<TRIPOS>MOLECULE
ligand_94
    29    32     1     0     0
SMALL
USER_CHARGES
****
Generated from the CSD

@<TRIPOS>ATOM
     1 C1      13.3779 -14.9808  10.4163   C.3       1 RES1   0.0000
     2 C2      12.1656 -14.7342   9.5417   C.3       1 RES1   0.0000
     3 C3      11.0199 -14.1499  10.3987   C.3       1 RES1   0.0000
     4 C4      12.5362 -13.8261   8.3848   C.3       1 RES1   0.0000
     5 C5      11.4540 -13.7759   7.3367   C.2       1 RES1   0.0000
     6 C6      11.2023 -12.6342   6.5634   C.2       1 RES1   0.0000
     7 C7      10.2100 -12.7563   5.6160   C.2       1 RES1   0.0000
     8 Cl8      9.8289 -11.3093   4.6430   Cl        1 RES1   0.0000
     9 C9       9.4769 -13.9252   5.4065   C.2       1 RES1   0.0000
    10 C10      9.7041 -15.0677   6.1556   C.2       1 RES1   0.0000
    11 C11     10.7079 -14.9678   7.1247   C.2       1 RES1   0.0000
    12 C12     11.0675 -16.1351   7.9739   C.2       1 RES1   0.0000
    13 N13     10.6236 -17.3379   7.6181   N.2       1 RES1   0.0000
    14 C14     10.8095 -18.5455   8.4558   C.3       1 RES1   0.0000
    15 C15      9.4945 -19.2993   8.7503   C.3       1 RES1   0.0000
    16 C16      9.9058 -20.4203   9.7060   C.2       1 RES1   0.0000
    17 C17      9.9082 -21.7748   9.3381   C.2       1 RES1   0.0000
    18 S18     10.5189 -22.7102  10.6764   S.3       1 RES1   0.0000
    19 C19     10.7719 -21.4509  11.8369   C.2       1 RES1   0.0000
    20 C20     10.3833 -20.2911  11.1414   C.2       1 RES1   0.0000
    21 C21     10.5855 -18.9555  11.7995   C.2       1 RES1   0.0000
    22 C22      9.8763 -17.7926  11.3730   C.2       1 RES1   0.0000
    23 N23     10.2314 -16.7961  12.2267   N.2       1 RES1   0.0000
    24 N24     11.1468 -17.3619  13.1630   N.2       1 RES1   0.0000
    25 C25     11.3529 -18.7076  12.9103   C.2       1 RES1   0.0000
    26 C26     11.7633 -19.4217   7.7063   C.2       1 RES1   0.0000
    27 O27     11.9130 -19.3491   6.4832   O.co2     1 RES1   0.0000
    28 O28     12.3726 -20.3218   8.3208   O.co2     1 RES1  -1.0000
    29 N29     11.7080 -16.0622   9.0750   N.2       1 RES1   0.0000
@<TRIPOS>BOND
     1     1     2    1
     2     2     3    1
     3     2     4    1
     4     4     5    1
     5     5     6    2
     6     6     7    1
     7     7     8    1
     8     7     9    2
     9     9    10    1
    10    10    11    2
    11    11    12    1
    12    12    13    1
    13    13    14    1
    14    14    15    1
    15    15    16    1
    16    16    17    2
    17    17    18    1
    18    18    19    1
    19    19    20    2
    20    20    21    1
    21    21    22    1
    22    22    23    2
    23    23    24    1
    24    24    25    1
    25    14    26    1
    26    26    27    2
    27    26    28    1
    28    12    29    2
    29    29     2    1
    30    11     5    1
    31    20    16    1
    32    25    21    2
@<TRIPOS>SUBSTRUCTURE
     1 RES1        1 GROUP             0 ****  ****    0  
@<TRIPOS>MOLECULE
ligand_95
    29    32     1     0     0
SMALL
USER_CHARGES
****
Generated from the CSD

@<TRIPOS>ATOM
     1 C1      13.0071 -14.8870  10.6650   C.3       1 RES1   0.0000
     2 C2      11.8765 -14.6832   9.6772   C.3       1 RES1   0.0000
     3 C3      10.6329 -14.1429  10.4189   C.3       1 RES1   0.0000
     4 C4      12.3234 -13.7599   8.5599   C.3       1 RES1   0.0000
     5 C5      11.3461 -13.7473   7.4124   C.2       1 RES1   0.0000
     6 C6      11.1286 -12.6141   6.6166   C.2       1 RES1   0.0000
     7 C7      10.2374 -12.7707   5.5781   C.2       1 RES1   0.0000
     8 Cl8      9.8991 -11.3368   4.5705   Cl        1 RES1   0.0000
     9 C9       9.5711 -13.9652   5.3007   C.2       1 RES1   0.0000
    10 C10      9.7668 -15.1000   6.0701   C.2       1 RES1   0.0000
    11 C11     10.6682 -14.9654   7.1313   C.2       1 RES1   0.0000
    12 C12     10.9867 -16.1203   8.0131   C.2       1 RES1   0.0000
    13 N13     10.6236 -17.3379   7.6181   N.2       1 RES1   0.0000
    14 C14     10.8095 -18.5455   8.4558   C.3       1 RES1   0.0000
    15 C15      9.9042 -19.7265   8.0435   C.3       1 RES1   0.0000
    16 C16      8.4848 -19.2347   8.3316   C.2       1 RES1   0.0000
    17 C17      7.7869 -18.3714   7.4727   C.2       1 RES1   0.0000
    18 S18      6.1860 -18.1257   8.1173   S.3       1 RES1   0.0000
    19 C19      6.2947 -19.0649   9.5673   C.2       1 RES1   0.0000
    20 C20      7.6024 -19.5816   9.5173   C.2       1 RES1   0.0000
    21 C21      8.0279 -20.5667  10.5693   C.2       1 RES1   0.0000
    22 C22      8.4642 -21.8835  10.2332   C.2       1 RES1   0.0000
    23 N23      8.8482 -22.4663  11.3996   N.2       1 RES1   0.0000
    24 N24      8.6461 -21.5001  12.4294   N.2       1 RES1   0.0000
    25 C25      8.1545 -20.3134  11.9124   C.2       1 RES1   0.0000
    26 C26     12.2532 -18.9169   8.3253   C.2       1 RES1   0.0000
    27 O27     13.1556 -18.0757   8.2827   O.co2     1 RES1   0.0000
    28 O28     12.5600 -20.1168   8.1667   O.co2     1 RES1  -1.0000
    29 N29     11.5150 -16.0262   9.1707   N.2       1 RES1   0.0000
@<TRIPOS>BOND
     1     1     2    1
     2     2     3    1
     3     2     4    1
     4     4     5    1
     5     5     6    2
     6     6     7    1
     7     7     8    1
     8     7     9    2
     9     9    10    1
    10    10    11    2
    11    11    12    1
    12    12    13    1
    13    13    14    1
    14    14    15    1
    15    15    16    1
    16    16    17    2
    17    17    18    1
    18    18    19    1
    19    19    20    2
    20    20    21    1
    21    21    22    1
    22    22    23    2
    23    23    24    1
    24    24    25    1
    25    14    26    1
    26    26    27    2
    27    26    28    1
    28    12    29    2
    29    29     2    1
    30    11     5    1
    31    20    16    1
    32    25    21    2
@<TRIPOS>SUBSTRUCTURE
     1 RES1        1 GROUP             0 ****  ****    0  
@<TRIPOS>MOLECULE
ligand_96
    29    32     1     0     0
SMALL
USER_CHARGES
****
Generated from the CSD

@<TRIPOS>ATOM
     1 C1      14.0370 -15.5781   7.5445   C.3       1 RES1   0.0000
     2 C2      13.1092 -15.1664   8.6677   C.3       1 RES1   0.0000
     3 C3      13.8747 -15.1601  10.0120   C.3       1 RES1   0.0000
     4 C4      12.4808 -13.8017   8.4284   C.3       1 RES1   0.0000
     5 C5      11.5240 -13.8089   7.2678   C.2       1 RES1   0.0000
     6 C6      11.3021 -12.6844   6.4612   C.2       1 RES1   0.0000
     7 C7      10.3647 -12.8322   5.4632   C.2       1 RES1   0.0000
     8 Cl8     10.0683 -11.4246   4.4064   Cl        1 RES1   0.0000
     9 C9       9.6555 -14.0118   5.2335   C.2       1 RES1   0.0000
    10 C10      9.8514 -15.1398   6.0121   C.2       1 RES1   0.0000
    11 C11     10.7988 -15.0163   7.0335   C.2       1 RES1   0.0000
    12 C12     11.0555 -16.1313   7.9824   C.2       1 RES1   0.0000
    13 N13     10.1980 -17.1484   7.9739   N.2       1 RES1   0.0000
    14 C14     10.4101 -18.3875   8.7577   C.3       1 RES1   0.0000
    15 C15      9.2196 -18.7493   9.6720   C.3       1 RES1   0.0000
    16 C16      9.1636 -17.6096  10.6904   C.2       1 RES1   0.0000
    17 C17     10.0389 -17.5191  11.7839   C.2       1 RES1   0.0000
    18 S18      9.7000 -16.0403  12.6425   S.3       1 RES1   0.0000
    19 C19      8.3744 -15.4410  11.7041   C.2       1 RES1   0.0000
    20 C20      8.2236 -16.4174  10.7023   C.2       1 RES1   0.0000
    21 C21      7.2282 -16.1733   9.6034   C.2       1 RES1   0.0000
    22 C22      6.5585 -17.2474   8.9438   C.2       1 RES1   0.0000
    23 N23      5.6807 -16.6743   8.0785   N.2       1 RES1   0.0000
    24 N24      5.8220 -15.2621   8.2228   N.2       1 RES1   0.0000
    25 C25      6.7693 -14.9497   9.1832   C.2       1 RES1   0.0000
    26 C26     10.6529 -19.4709   7.7543   C.2       1 RES1   0.0000
    27 O27     11.3201 -19.2929   6.7312   O.co2     1 RES1   0.0000
    28 O28     10.0925 -20.5762   7.9060   O.co2     1 RES1  -1.0000
    29 N29     12.0767 -16.2331   8.7369   N.2       1 RES1   0.0000
@<TRIPOS>BOND
     1     1     2    1
     2     2     3    1
     3     2     4    1
     4     4     5    1
     5     5     6    2
     6     6     7    1
     7     7     8    1
     8     7     9    2
     9     9    10    1
    10    10    11    2
    11    11    12    1
    12    12    13    1
    13    13    14    1
    14    14    15    1
    15    15    16    1
    16    16    17    2
    17    17    18    1
    18    18    19    1
    19    19    20    2
    20    20    21    1
    21    21    22    1
    22    22    23    2
    23    23    24    1
    24    24    25    1
    25    14    26    1
    26    26    27    2
    27    26    28    1
    28    12    29    2
    29    29     2    1
    30    11     5    1
    31    20    16    1
    32    25    21    2
@<TRIPOS>SUBSTRUCTURE
     1 RES1        1 GROUP             0 ****  ****    0  
@<TRIPOS>MOLECULE
ligand_97
    29    32     1     0     0
SMALL
USER_CHARGES
****
Generated from the CSD

@<TRIPOS>ATOM
     1 C1      13.2489 -14.9405  10.5047   C.3       1 RES1   0.0000
     2 C2      12.0583 -14.7133   9.5956   C.3       1 RES1   0.0000
     3 C3      10.8770 -14.1544  10.4205   C.3       1 RES1   0.0000
     4 C4      12.4453 -13.7936   8.4533   C.3       1 RES1   0.0000
     5 C5      11.3937 -13.7596   7.3740   C.2       1 RES1   0.0000
     6 C6      11.1431 -12.6197   6.5977   C.2       1 RES1   0.0000
     7 C7      10.1816 -12.7568   5.6210   C.2       1 RES1   0.0000
     8 Cl8      9.8017 -11.3133   4.6423   Cl        1 RES1   0.0000
     9 C9       9.4774 -13.9385   5.3858   C.2       1 RES1   0.0000
    10 C10      9.7043 -15.0795   6.1372   C.2       1 RES1   0.0000
    11 C11     10.6771 -14.9646   7.1359   C.2       1 RES1   0.0000
    12 C12     11.0338 -16.1284   7.9911   C.2       1 RES1   0.0000
    13 N13     10.6236 -17.3379   7.6181   N.2       1 RES1   0.0000
    14 C14     10.8095 -18.5455   8.4558   C.3       1 RES1   0.0000
    15 C15      9.4945 -19.2993   8.7503   C.3       1 RES1   0.0000
    16 C16      9.0366 -19.8111   7.3836   C.2       1 RES1   0.0000
    17 C17      8.3679 -19.0033   6.4507   C.2       1 RES1   0.0000
    18 S18      8.1018 -19.9360   5.0022   S.3       1 RES1   0.0000
    19 C19      8.7767 -21.4537   5.4896   C.2       1 RES1   0.0000
    20 C20      9.2250 -21.1995   6.7989   C.2       1 RES1   0.0000
    21 C21      9.9954 -22.2715   7.5168   C.2       1 RES1   0.0000
    22 C22      9.4474 -22.9702   8.6342   C.2       1 RES1   0.0000
    23 N23     10.3635 -23.9133   8.9795   N.2       1 RES1   0.0000
    24 N24     11.4539 -23.7817   8.0694   N.2       1 RES1   0.0000
    25 C25     11.2181 -22.7749   7.1485   C.2       1 RES1   0.0000
    26 C26     11.7633 -19.4217   7.7063   C.2       1 RES1   0.0000
    27 O27     11.9210 -19.3417   6.4847   O.co2     1 RES1   0.0000
    28 O28     12.3640 -20.3292   8.3184   O.co2     1 RES1  -1.0000
    29 N29     11.6401 -16.0479   9.1108   N.2       1 RES1   0.0000
@<TRIPOS>BOND
     1     1     2    1
     2     2     3    1
     3     2     4    1
     4     4     5    1
     5     5     6    2
     6     6     7    1
     7     7     8    1
     8     7     9    2
     9     9    10    1
    10    10    11    2
    11    11    12    1
    12    12    13    1
    13    13    14    1
    14    14    15    1
    15    15    16    1
    16    16    17    2
    17    17    18    1
    18    18    19    1
    19    19    20    2
    20    20    21    1
    21    21    22    1
    22    22    23    2
    23    23    24    1
    24    24    25    1
    25    14    26    1
    26    26    27    2
    27    26    28    1
    28    12    29    2
    29    29     2    1
    30    11     5    1
    31    20    16    1
    32    25    21    2
@<TRIPOS>SUBSTRUCTURE
     1 RES1        1 GROUP             0 ****  ****    0  
@<TRIPOS>MOLECULE
ligand_98
    29    32     1     0     0
SMALL
USER_CHARGES
****
Generated from the CSD

@<TRIPOS>ATOM
     1 C1      13.1745 -14.9419  10.5717   C.3       1 RES1   0.0000
     2 C2      12.0311 -14.7064   9.6060   C.3       1 RES1   0.0000
     3 C3      10.8280 -14.1039  10.3662   C.3       1 RES1   0.0000
     4 C4      12.4900 -13.8196   8.4644   C.3       1 RES1   0.0000
     5 C5      11.4882 -13.7839   7.3387   C.2       1 RES1   0.0000
     6 C6      11.2994 -12.6549   6.5297   C.2       1 RES1   0.0000
     7 C7      10.3791 -12.7901   5.5138   C.2       1 RES1   0.0000
     8 Cl8     10.0772 -11.3588   4.4911   Cl        1 RES1   0.0000
     9 C9       9.6582 -13.9601   5.2705   C.2       1 RES1   0.0000
    10 C10      9.8245 -15.0902   6.0536   C.2       1 RES1   0.0000
    11 C11     10.7546 -14.9769   7.0923   C.2       1 RES1   0.0000
    12 C12     11.0454 -16.1306   7.9853   C.2       1 RES1   0.0000
    13 N13     10.6236 -17.3379   7.6181   N.2       1 RES1   0.0000
    14 C14     10.8095 -18.5455   8.4558   C.3       1 RES1   0.0000
    15 C15      9.4945 -19.2993   8.7503   C.3       1 RES1   0.0000
    16 C16      8.9602 -19.6833   7.3695   C.2       1 RES1   0.0000
    17 C17      9.4528 -20.7743   6.6367   C.2       1 RES1   0.0000
    18 S18      8.5248 -20.9179   5.1680   S.3       1 RES1   0.0000
    19 C19      7.4642 -19.5612   5.3447   C.2       1 RES1   0.0000
    20 C20      7.8473 -19.0140   6.5831   C.2       1 RES1   0.0000
    21 C21      7.0487 -17.8708   7.1428   C.2       1 RES1   0.0000
    22 C22      6.4136 -17.9514   8.4185   C.2       1 RES1   0.0000
    23 N23      5.8598 -16.7309   8.6455   N.2       1 RES1   0.0000
    24 N24      6.1658 -15.9219   7.5112   N.2       1 RES1   0.0000
    25 C25      6.9204 -16.6229   6.5857   C.2       1 RES1   0.0000
    26 C26     11.7633 -19.4217   7.7063   C.2       1 RES1   0.0000
    27 O27     11.9609 -19.3057   6.4934   O.co2     1 RES1   0.0000
    28 O28     12.3212 -20.3646   8.3053   O.co2     1 RES1  -1.0000
    29 N29     11.6033 -16.0409   9.1293   N.2       1 RES1   0.0000
@<TRIPOS>BOND
     1     1     2    1
     2     2     3    1
     3     2     4    1
     4     4     5    1
     5     5     6    2
     6     6     7    1
     7     7     8    1
     8     7     9    2
     9     9    10    1
    10    10    11    2
    11    11    12    1
    12    12    13    1
    13    13    14    1
    14    14    15    1
    15    15    16    1
    16    16    17    2
    17    17    18    1
    18    18    19    1
    19    19    20    2
    20    20    21    1
    21    21    22    1
    22    22    23    2
    23    23    24    1
    24    24    25    1
    25    14    26    1
    26    26    27    2
    27    26    28    1
    28    12    29    2
    29    29     2    1
    30    11     5    1
    31    20    16    1
    32    25    21    2
@<TRIPOS>SUBSTRUCTURE
     1 RES1        1 GROUP             0 ****  ****    0  
@<TRIPOS>MOLECULE
ligand_99
    29    32     1     0     0
SMALL
USER_CHARGES
****
Generated from the CSD

@<TRIPOS>ATOM
     1 C1      13.3003 -14.9599  10.4733   C.3       1 RES1   0.0000
     2 C2      12.1060 -14.7221   9.5719   C.3       1 RES1   0.0000
     3 C3      10.9380 -14.1443  10.4028   C.3       1 RES1   0.0000
     4 C4      12.4961 -13.8129   8.4223   C.3       1 RES1   0.0000
     5 C5      11.4369 -13.7709   7.3506   C.2       1 RES1   0.0000
     6 C6      11.1950 -12.6317   6.5705   C.2       1 RES1   0.0000
     7 C7      10.2246 -12.7613   5.6016   C.2       1 RES1   0.0000
     8 Cl8      9.8557 -11.3179   4.6186   Cl        1 RES1   0.0000
     9 C9       9.5038 -13.9352   5.3775   C.2       1 RES1   0.0000
    10 C10      9.7219 -15.0753   6.1328   C.2       1 RES1   0.0000
    11 C11     10.7034 -14.9679   7.1237   C.2       1 RES1   0.0000
    12 C12     11.0518 -16.1318   7.9820   C.2       1 RES1   0.0000
    13 N13     10.6236 -17.3379   7.6181   N.2       1 RES1   0.0000
    14 C14     10.8095 -18.5455   8.4558   C.3       1 RES1   0.0000
    15 C15      9.9042 -19.7265   8.0435   C.3       1 RES1   0.0000
    16 C16     10.2022 -20.8121   9.0789   C.2       1 RES1   0.0000
    17 C17     11.2859 -21.6971   8.9670   C.2       1 RES1   0.0000
    18 S18     11.3198 -22.7116  10.3842   S.3       1 RES1   0.0000
    19 C19      9.9183 -22.1233  11.2127   C.2       1 RES1   0.0000
    20 C20      9.4438 -21.1096  10.3600   C.2       1 RES1   0.0000
    21 C21      8.2849 -20.2689  10.8166   C.2       1 RES1   0.0000
    22 C22      7.3750 -19.6769   9.8899   C.2       1 RES1   0.0000
    23 N23      6.4161 -19.0667  10.6355   N.2       1 RES1   0.0000
    24 N24      6.7491 -19.2964  12.0035   N.2       1 RES1   0.0000
    25 C25      7.8992 -20.0591  12.1171   C.2       1 RES1   0.0000
    26 C26     12.2532 -18.9169   8.3253   C.2       1 RES1   0.0000
    27 O27     12.9336 -19.2908   9.2850   O.co2     1 RES1   0.0000
    28 O28     12.8228 -18.7642   7.2248   O.co2     1 RES1  -1.0000
    29 N29     11.6674 -16.0536   9.0969   N.2       1 RES1   0.0000
@<TRIPOS>BOND
     1     1     2    1
     2     2     3    1
     3     2     4    1
     4     4     5    1
     5     5     6    2
     6     6     7    1
     7     7     8    1
     8     7     9    2
     9     9    10    1
    10    10    11    2
    11    11    12    1
    12    12    13    1
    13    13    14    1
    14    14    15    1
    15    15    16    1
    16    16    17    2
    17    17    18    1
    18    18    19    1
    19    19    20    2
    20    20    21    1
    21    21    22    1
    22    22    23    2
    23    23    24    1
    24    24    25    1
    25    14    26    1
    26    26    27    2
    27    26    28    1
    28    12    29    2
    29    29     2    1
    30    11     5    1
    31    20    16    1
    32    25    21    2
@<TRIPOS>SUBSTRUCTURE
     1 RES1        1 GROUP             0 ****  ****    0  
