@<TRIPOS>MOLECULE
native
    39    41     1     0     0
SMALL
USER_CHARGES
****
Generated from the CSD

@<TRIPOS>ATOM
     1 C1      82.6830  43.8100  52.5460   C.3       1 RES1   0.0000
     2 O2      83.8680  43.7680  51.7500   O.3       1 RES1   0.0000
     3 C3      84.8060  42.8480  52.0540   C.2       1 RES1   0.0000
     4 C4      85.9510  42.8460  51.2550   C.2       1 RES1   0.0000
     5 C5      86.8580  41.8090  51.4140   C.2       1 RES1   0.0000
     6 C6      86.6520  40.8170  52.3790   C.2       1 RES1   0.0000
     7 C7      87.6390  39.6900  52.4760   C.2       1 RES1   0.0000
     8 C8      88.9790  40.0120  52.7370   C.2       1 RES1   0.0000
     9 C9      89.9540  39.0240  52.7940   C.2       1 RES1   0.0000
    10 C10     89.6180  37.6820  52.6230   C.2       1 RES1   0.0000
    11 C11     90.6410  36.5920  52.6570   C.2       1 RES1   0.0000
    12 O12     91.4880  36.5420  53.5470   O.2       1 RES1   0.0000
    13 N13     90.5610  35.6590  51.6900   N.am      1 RES1   0.0000
    14 C14     91.3630  34.4430  51.6040   C.3       1 RES1   0.0000
    15 C15     92.1570  34.4330  50.2320   C.3       1 RES1   0.0000
    16 O16     92.7410  35.6950  49.9690   O.3       1 RES1   0.0000
    17 C17     90.6050  33.1250  51.9370   C.3       1 RES1   0.0000
    18 C18     89.9240  33.2250  53.3130   C.3       1 RES1   0.0000
    19 C19     89.5340  32.8390  50.8740   C.3       1 RES1   0.0000
    20 C20     91.5960  31.9510  51.9620   C.3       1 RES1   0.0000
    21 C21     88.2880  37.3400  52.3890   C.2       1 RES1   0.0000
    22 C22     87.3060  38.3300  52.2920   C.2       1 RES1   0.0000
    23 C23     85.9360  37.8540  51.9020   C.2       1 RES1   0.0000
    24 O24     85.3590  36.9830  52.5480   O.co2     1 RES1   0.0000
    25 O25     85.4310  38.4010  50.8180   O.co2     1 RES1  -1.0000
    26 C26     85.4760  40.9730  53.1850   C.2       1 RES1   0.0000
    27 C27     85.2330  40.0400  54.3390   C.2       1 RES1   0.0000
    28 O28     86.1770  39.6170  55.0000   O.2       1 RES1   0.0000
    29 N29     83.9650  39.5890  54.5090   N.am      1 RES1   0.0000
    30 C30     83.3660  39.0670  55.6870   C.2       1 RES1   0.0000
    31 C31     83.9110  39.2290  56.9580   C.2       1 RES1   0.0000
    32 C32     83.2380  38.7580  58.0750   C.2       1 RES1   0.0000
    33 C33     82.0210  38.0870  57.9440   C.2       1 RES1   0.0000
    34 C34     81.2390  37.6320  59.1510   C.2       1 RES1   0.0000
    35 N35     81.9140  37.7160  60.3630   N.pl3     1 RES1   0.0000
    36 N36     80.0060  37.2430  58.9870   N.pl3     1 RES1   1.0000
    37 C37     81.5170  37.8650  56.6630   C.2       1 RES1   0.0000
    38 C38     82.1820  38.3490  55.5460   C.2       1 RES1   0.0000
    39 N39     84.5690  41.9500  53.0120   N.2       1 RES1   0.0000
@<TRIPOS>BOND
     1     1     2    1
     2     2     3    1
     3     3     4    2
     4     4     5    1
     5     5     6    2
     6     6     7    1
     7     7     8    2
     8     8     9    1
     9     9    10    2
    10    10    11    1
    11    11    12    2
    12    11    13   am
    13    13    14    1
    14    14    15    1
    15    15    16    1
    16    14    17    1
    17    17    18    1
    18    17    19    1
    19    17    20    1
    20    10    21    1
    21    21    22    2
    22    22    23    1
    23    23    24    2
    24    23    25    1
    25     6    26    1
    26    26    27    1
    27    27    28    2
    28    27    29   am
    29    29    30    1
    30    30    31    2
    31    31    32    1
    32    32    33    2
    33    33    34    1
    34    34    35    1
    35    34    36    2
    36    33    37    1
    37    37    38    2
    38    26    39    2
    39    39     3    1
    40    22     7    1
    41    38    30    1
@<TRIPOS>SUBSTRUCTURE
     1 RES1        1 GROUP             0 ****  ****    0  
@<TRIPOS>MOLECULE
ligand_0
    39    41     1     0     0
SMALL
USER_CHARGES
****
Generated from the CSD

@<TRIPOS>ATOM
     1 C1      81.9494  43.3297  51.3262   C.3       1 RES1   0.0000
     2 O2      81.9309  41.9464  50.9717   O.3       1 RES1   0.0000
     3 C3      83.0992  41.2728  50.9771   C.2       1 RES1   0.0000
     4 C4      83.0234  39.9027  50.7192   C.2       1 RES1   0.0000
     5 C5      84.1693  39.1404  50.8899   C.2       1 RES1   0.0000
     6 C6      85.3778  39.7360  51.2676   C.2       1 RES1   0.0000
     7 C7      86.5760  38.8585  51.4867   C.2       1 RES1   0.0000
     8 C8      87.1007  38.7766  52.7850   C.2       1 RES1   0.0000
     9 C9      88.2355  38.0208  53.0515   C.2       1 RES1   0.0000
    10 C10     88.8639  37.2991  52.0379   C.2       1 RES1   0.0000
    11 C11     90.0983  36.4908  52.2805   C.2       1 RES1   0.0000
    12 O12     90.9073  36.8102  53.1497   O.2       1 RES1   0.0000
    13 N13     90.2541  35.3864  51.5269   N.am      1 RES1   0.0000
    14 C14     91.3700  34.4491  51.6006   C.3       1 RES1   0.0000
    15 C15     92.1432  34.4424  50.2168   C.3       1 RES1   0.0000
    16 O16     92.7046  35.7112  49.9376   O.3       1 RES1   0.0000
    17 C17     91.0169  33.0424  52.1656   C.3       1 RES1   0.0000
    18 C18     90.0299  32.3172  51.2345   C.3       1 RES1   0.0000
    19 C19     92.2848  32.1871  52.3062   C.3       1 RES1   0.0000
    20 C20     90.3694  33.1896  53.5513   C.3       1 RES1   0.0000
    21 C21     88.3422  37.3469  50.7471   C.2       1 RES1   0.0000
    22 C22     87.2234  38.1347  50.4614   C.2       1 RES1   0.0000
    23 C23     86.8353  38.2157  49.0128   C.2       1 RES1   0.0000
    24 O24     85.9301  38.9571  48.6389   O.co2     1 RES1   0.0000
    25 O25     87.4977  37.4209  48.2012   O.co2     1 RES1  -1.0000
    26 C26     85.3410  41.1604  51.4301   C.2       1 RES1   0.0000
    27 C27     86.6140  41.9138  51.7006   C.2       1 RES1   0.0000
    28 O28     87.4576  42.0374  50.8174   O.2       1 RES1   0.0000
    29 N29     86.8357  42.3080  52.9796   N.am      1 RES1   0.0000
    30 C30     88.0050  42.8992  53.5292   C.2       1 RES1   0.0000
    31 C31     89.1518  43.1610  52.7842   C.2       1 RES1   0.0000
    32 C32     90.2326  43.8074  53.3642   C.2       1 RES1   0.0000
    33 C33     90.2036  44.1783  54.7096   C.2       1 RES1   0.0000
    34 C34     91.3390  44.9465  55.3390   C.2       1 RES1   0.0000
    35 N35     91.5850  44.6552  56.6755   N.pl3     1 RES1   0.0000
    36 N36     92.0199  45.7750  54.5984   N.pl3     1 RES1   1.0000
    37 C37     89.0808  43.8484  55.4677   C.2       1 RES1   0.0000
    38 C38     87.9930  43.2152  54.8847   C.2       1 RES1   0.0000
    39 N39     84.2274  41.9035  51.3082   N.2       1 RES1   0.0000
@<TRIPOS>BOND
     1     1     2    1
     2     2     3    1
     3     3     4    2
     4     4     5    1
     5     5     6    2
     6     6     7    1
     7     7     8    2
     8     8     9    1
     9     9    10    2
    10    10    11    1
    11    11    12    2
    12    11    13   am
    13    13    14    1
    14    14    15    1
    15    15    16    1
    16    14    17    1
    17    17    18    1
    18    17    19    1
    19    17    20    1
    20    10    21    1
    21    21    22    2
    22    22    23    1
    23    23    24    2
    24    23    25    1
    25     6    26    1
    26    26    27    1
    27    27    28    2
    28    27    29   am
    29    29    30    1
    30    30    31    2
    31    31    32    1
    32    32    33    2
    33    33    34    1
    34    34    35    1
    35    34    36    2
    36    33    37    1
    37    37    38    2
    38    26    39    2
    39    39     3    1
    40    22     7    1
    41    38    30    1
@<TRIPOS>SUBSTRUCTURE
     1 RES1        1 GROUP             0 ****  ****    0  
@<TRIPOS>MOLECULE
ligand_1
    39    41     1     0     0
SMALL
USER_CHARGES
****
Generated from the CSD

@<TRIPOS>ATOM
     1 C1      81.9494  43.3297  51.3262   C.3       1 RES1   0.0000
     2 O2      81.9309  41.9464  50.9717   O.3       1 RES1   0.0000
     3 C3      83.0992  41.2728  50.9771   C.2       1 RES1   0.0000
     4 C4      83.0234  39.9027  50.7192   C.2       1 RES1   0.0000
     5 C5      84.1693  39.1404  50.8899   C.2       1 RES1   0.0000
     6 C6      85.3778  39.7360  51.2676   C.2       1 RES1   0.0000
     7 C7      86.5760  38.8585  51.4867   C.2       1 RES1   0.0000
     8 C8      87.1005  38.7765  52.7850   C.2       1 RES1   0.0000
     9 C9      88.2353  38.0207  53.0515   C.2       1 RES1   0.0000
    10 C10     88.8639  37.2991  52.0379   C.2       1 RES1   0.0000
    11 C11     90.0983  36.4908  52.2805   C.2       1 RES1   0.0000
    12 O12     90.9071  36.8101  53.1499   O.2       1 RES1   0.0000
    13 N13     90.2543  35.3866  51.5267   N.am      1 RES1   0.0000
    14 C14     91.3702  34.4493  51.6004   C.3       1 RES1   0.0000
    15 C15     92.1436  34.4430  50.2166   C.3       1 RES1   0.0000
    16 O16     92.7050  35.7118  49.9379   O.3       1 RES1   0.0000
    17 C17     91.0171  33.0425  52.1650   C.3       1 RES1   0.0000
    18 C18     90.0302  32.3174  51.2336   C.3       1 RES1   0.0000
    19 C19     92.2850  32.1872  52.3055   C.3       1 RES1   0.0000
    20 C20     90.3693  33.1894  53.5506   C.3       1 RES1   0.0000
    21 C21     88.3423  37.3470  50.7471   C.2       1 RES1   0.0000
    22 C22     87.2235  38.1348  50.4614   C.2       1 RES1   0.0000
    23 C23     86.8356  38.2161  49.0128   C.2       1 RES1   0.0000
    24 O24     85.9305  38.9576  48.6388   O.co2     1 RES1   0.0000
    25 O25     87.4979  37.4212  48.2011   O.co2     1 RES1  -1.0000
    26 C26     85.3410  41.1604  51.4301   C.2       1 RES1   0.0000
    27 C27     86.6140  41.9138  51.7006   C.2       1 RES1   0.0000
    28 O28     87.1301  41.8740  52.8138   O.2       1 RES1   0.0000
    29 N29     87.0641  42.7339  50.7183   N.am      1 RES1   0.0000
    30 C30     88.1445  43.6555  50.7660   C.2       1 RES1   0.0000
    31 C31     88.9274  43.8576  51.8996   C.2       1 RES1   0.0000
    32 C32     90.0136  44.7183  51.8575   C.2       1 RES1   0.0000
    33 C33     90.3226  45.4201  50.6911   C.2       1 RES1   0.0000
    34 C34     91.5416  46.3043  50.6038   C.2       1 RES1   0.0000
    35 N35     91.4027  47.4311  49.8021   N.pl3     1 RES1   0.0000
    36 N36     92.5968  45.9849  51.2989   N.pl3     1 RES1   1.0000
    37 C37     89.4915  45.2678  49.5818   C.2       1 RES1   0.0000
    38 C38     88.4136  44.3955  49.6183   C.2       1 RES1   0.0000
    39 N39     84.2274  41.9035  51.3082   N.2       1 RES1   0.0000
@<TRIPOS>BOND
     1     1     2    1
     2     2     3    1
     3     3     4    2
     4     4     5    1
     5     5     6    2
     6     6     7    1
     7     7     8    2
     8     8     9    1
     9     9    10    2
    10    10    11    1
    11    11    12    2
    12    11    13   am
    13    13    14    1
    14    14    15    1
    15    15    16    1
    16    14    17    1
    17    17    18    1
    18    17    19    1
    19    17    20    1
    20    10    21    1
    21    21    22    2
    22    22    23    1
    23    23    24    2
    24    23    25    1
    25     6    26    1
    26    26    27    1
    27    27    28    2
    28    27    29   am
    29    29    30    1
    30    30    31    2
    31    31    32    1
    32    32    33    2
    33    33    34    1
    34    34    35    1
    35    34    36    2
    36    33    37    1
    37    37    38    2
    38    26    39    2
    39    39     3    1
    40    22     7    1
    41    38    30    1
@<TRIPOS>SUBSTRUCTURE
     1 RES1        1 GROUP             0 ****  ****    0  
@<TRIPOS>MOLECULE
ligand_2
    39    41     1     0     0
SMALL
USER_CHARGES
****
Generated from the CSD

@<TRIPOS>ATOM
     1 C1      82.1771  43.2904  50.0155   C.3       1 RES1   0.0000
     2 O2      82.0625  42.0923  50.7843   O.3       1 RES1   0.0000
     3 C3      83.1175  41.2529  50.8148   C.2       1 RES1   0.0000
     4 C4      82.9999  40.1432  51.6540   C.2       1 RES1   0.0000
     5 C5      84.1215  39.3526  51.8543   C.2       1 RES1   0.0000
     6 C6      85.3250  39.6348  51.1987   C.2       1 RES1   0.0000
     7 C7      86.5222  38.7769  51.4891   C.2       1 RES1   0.0000
     8 C8      87.6206  39.3761  52.1230   C.2       1 RES1   0.0000
     9 C9      88.7793  38.6542  52.3803   C.2       1 RES1   0.0000
    10 C10     88.8671  37.3049  52.0413   C.2       1 RES1   0.0000
    11 C11     90.1034  36.4995  52.2833   C.2       1 RES1   0.0000
    12 O12     90.8542  36.7533  53.2235   O.2       1 RES1   0.0000
    13 N13     90.3267  35.4702  51.4450   N.am      1 RES1   0.0000
    14 C14     91.4246  34.5134  51.5361   C.3       1 RES1   0.0000
    15 C15     92.3306  34.6280  50.2404   C.3       1 RES1   0.0000
    16 O16     92.9240  35.9090  50.1419   O.3       1 RES1   0.0000
    17 C17     91.0096  33.0645  51.9248   C.3       1 RES1   0.0000
    18 C18     90.1153  32.4470  50.8358   C.3       1 RES1   0.0000
    19 C19     92.2527  32.1806  52.1048   C.3       1 RES1   0.0000
    20 C20     90.2294  33.0878  53.2483   C.3       1 RES1   0.0000
    21 C21     87.7767  36.6853  51.4348   C.2       1 RES1   0.0000
    22 C22     86.6208  37.4127  51.1373   C.2       1 RES1   0.0000
    23 C23     85.5673  36.6750  50.3617   C.2       1 RES1   0.0000
    24 O24     84.5563  37.2469  49.9619   O.co2     1 RES1   0.0000
    25 O25     85.7875  35.3910  50.1825   O.co2     1 RES1  -1.0000
    26 C26     85.2949  40.7578  50.3071   C.2       1 RES1   0.0000
    27 C27     86.4931  41.0637  49.4515   C.2       1 RES1   0.0000
    28 O28     86.7855  40.3280  48.5134   O.2       1 RES1   0.0000
    29 N29     87.2927  42.0828  49.8544   N.am      1 RES1   0.0000
    30 C30     88.5469  42.4829  49.3198   C.2       1 RES1   0.0000
    31 C31     89.1634  41.8372  48.2513   C.2       1 RES1   0.0000
    32 C32     90.3526  42.3233  47.7297   C.2       1 RES1   0.0000
    33 C33     90.9681  43.4467  48.2844   C.2       1 RES1   0.0000
    34 C34     92.2224  44.0332  47.6858   C.2       1 RES1   0.0000
    35 N35     93.1087  44.5961  48.5964   N.pl3     1 RES1   0.0000
    36 N36     92.4051  43.9375  46.3990   N.pl3     1 RES1   1.0000
    37 C37     90.3825  44.0450  49.3995   C.2       1 RES1   0.0000
    38 C38     89.1851  43.5685  49.9126   C.2       1 RES1   0.0000
    39 N39     84.2264  41.5556  50.1372   N.2       1 RES1   0.0000
@<TRIPOS>BOND
     1     1     2    1
     2     2     3    1
     3     3     4    2
     4     4     5    1
     5     5     6    2
     6     6     7    1
     7     7     8    2
     8     8     9    1
     9     9    10    2
    10    10    11    1
    11    11    12    2
    12    11    13   am
    13    13    14    1
    14    14    15    1
    15    15    16    1
    16    14    17    1
    17    17    18    1
    18    17    19    1
    19    17    20    1
    20    10    21    1
    21    21    22    2
    22    22    23    1
    23    23    24    2
    24    23    25    1
    25     6    26    1
    26    26    27    1
    27    27    28    2
    28    27    29   am
    29    29    30    1
    30    30    31    2
    31    31    32    1
    32    32    33    2
    33    33    34    1
    34    34    35    1
    35    34    36    2
    36    33    37    1
    37    37    38    2
    38    26    39    2
    39    39     3    1
    40    22     7    1
    41    38    30    1
@<TRIPOS>SUBSTRUCTURE
     1 RES1        1 GROUP             0 ****  ****    0  
@<TRIPOS>MOLECULE
ligand_3
    39    41     1     0     0
SMALL
USER_CHARGES
****
Generated from the CSD

@<TRIPOS>ATOM
     1 C1      82.1771  43.2904  50.0155   C.3       1 RES1   0.0000
     2 O2      82.0625  42.0923  50.7843   O.3       1 RES1   0.0000
     3 C3      83.1175  41.2529  50.8148   C.2       1 RES1   0.0000
     4 C4      82.9999  40.1432  51.6540   C.2       1 RES1   0.0000
     5 C5      84.1215  39.3526  51.8543   C.2       1 RES1   0.0000
     6 C6      85.3250  39.6348  51.1987   C.2       1 RES1   0.0000
     7 C7      86.5222  38.7769  51.4891   C.2       1 RES1   0.0000
     8 C8      87.6206  39.3761  52.1230   C.2       1 RES1   0.0000
     9 C9      88.7793  38.6542  52.3803   C.2       1 RES1   0.0000
    10 C10     88.8671  37.3049  52.0413   C.2       1 RES1   0.0000
    11 C11     90.1034  36.4995  52.2833   C.2       1 RES1   0.0000
    12 O12     90.8542  36.7533  53.2235   O.2       1 RES1   0.0000
    13 N13     90.3267  35.4702  51.4450   N.am      1 RES1   0.0000
    14 C14     91.4246  34.5134  51.5361   C.3       1 RES1   0.0000
    15 C15     92.3306  34.6280  50.2404   C.3       1 RES1   0.0000
    16 O16     92.9240  35.9090  50.1419   O.3       1 RES1   0.0000
    17 C17     91.0096  33.0645  51.9248   C.3       1 RES1   0.0000
    18 C18     90.1153  32.4470  50.8358   C.3       1 RES1   0.0000
    19 C19     92.2527  32.1806  52.1048   C.3       1 RES1   0.0000
    20 C20     90.2294  33.0878  53.2483   C.3       1 RES1   0.0000
    21 C21     87.7767  36.6853  51.4348   C.2       1 RES1   0.0000
    22 C22     86.6208  37.4127  51.1373   C.2       1 RES1   0.0000
    23 C23     85.5673  36.6750  50.3617   C.2       1 RES1   0.0000
    24 O24     84.5563  37.2469  49.9619   O.co2     1 RES1   0.0000
    25 O25     85.7875  35.3910  50.1825   O.co2     1 RES1  -1.0000
    26 C26     85.2949  40.7578  50.3071   C.2       1 RES1   0.0000
    27 C27     86.4931  41.0637  49.4515   C.2       1 RES1   0.0000
    28 O28     87.4908  41.5784  49.9481   O.2       1 RES1   0.0000
    29 N29     86.3566  40.8817  48.1142   N.am      1 RES1   0.0000
    30 C30     87.2687  41.2262  47.0806   C.2       1 RES1   0.0000
    31 C31     88.4951  41.8417  47.3169   C.2       1 RES1   0.0000
    32 C32     89.3713  42.0845  46.2702   C.2       1 RES1   0.0000
    33 C33     89.0284  41.7462  44.9600   C.2       1 RES1   0.0000
    34 C34     89.9967  41.9353  43.8190   C.2       1 RES1   0.0000
    35 N35     89.4202  42.2690  42.5992   N.pl3     1 RES1   0.0000
    36 N36     91.2729  41.8188  44.0560   N.pl3     1 RES1   1.0000
    37 C37     87.7694  41.1963  44.7216   C.2       1 RES1   0.0000
    38 C38     86.8982  40.9392  45.7700   C.2       1 RES1   0.0000
    39 N39     84.2264  41.5556  50.1372   N.2       1 RES1   0.0000
@<TRIPOS>BOND
     1     1     2    1
     2     2     3    1
     3     3     4    2
     4     4     5    1
     5     5     6    2
     6     6     7    1
     7     7     8    2
     8     8     9    1
     9     9    10    2
    10    10    11    1
    11    11    12    2
    12    11    13   am
    13    13    14    1
    14    14    15    1
    15    15    16    1
    16    14    17    1
    17    17    18    1
    18    17    19    1
    19    17    20    1
    20    10    21    1
    21    21    22    2
    22    22    23    1
    23    23    24    2
    24    23    25    1
    25     6    26    1
    26    26    27    1
    27    27    28    2
    28    27    29   am
    29    29    30    1
    30    30    31    2
    31    31    32    1
    32    32    33    2
    33    33    34    1
    34    34    35    1
    35    34    36    2
    36    33    37    1
    37    37    38    2
    38    26    39    2
    39    39     3    1
    40    22     7    1
    41    38    30    1
@<TRIPOS>SUBSTRUCTURE
     1 RES1        1 GROUP             0 ****  ****    0  
@<TRIPOS>MOLECULE
ligand_4
    39    41     1     0     0
SMALL
USER_CHARGES
****
Generated from the CSD

@<TRIPOS>ATOM
     1 C1      80.7751  41.0934  49.8378   C.3       1 RES1   0.0000
     2 O2      81.9096  41.7471  50.4081   O.3       1 RES1   0.0000
     3 C3      82.9391  40.9838  50.8276   C.2       1 RES1   0.0000
     4 C4      84.0664  41.6664  51.2889   C.2       1 RES1   0.0000
     5 C5      85.2105  40.9315  51.5609   C.2       1 RES1   0.0000
     6 C6      85.2202  39.5396  51.4187   C.2       1 RES1   0.0000
     7 C7      86.4991  38.7975  51.6785   C.2       1 RES1   0.0000
     8 C8      87.1068  38.1397  50.5991   C.2       1 RES1   0.0000
     9 C9      88.2665  37.3954  50.7762   C.2       1 RES1   0.0000
    10 C10     88.8725  37.3095  52.0285   C.2       1 RES1   0.0000
    11 C11     90.1091  36.5024  52.2637   C.2       1 RES1   0.0000
    12 O12     90.9028  36.7994  53.1546   O.2       1 RES1   0.0000
    13 N13     90.2840  35.4236  51.4778   N.am      1 RES1   0.0000
    14 C14     91.3962  34.4818  51.5503   C.3       1 RES1   0.0000
    15 C15     92.2070  34.5200  50.1886   C.3       1 RES1   0.0000
    16 O16     92.7774  35.7963  49.9679   O.3       1 RES1   0.0000
    17 C17     91.0260  33.0577  52.0577   C.3       1 RES1   0.0000
    18 C18     90.0640  32.3664  51.0760   C.3       1 RES1   0.0000
    19 C19     92.2884  32.1954  52.2040   C.3       1 RES1   0.0000
    20 C20     90.3408  33.1596  53.4293   C.3       1 RES1   0.0000
    21 C21     88.2982  37.9777  53.1076   C.2       1 RES1   0.0000
    22 C22     87.1108  38.6976  52.9474   C.2       1 RES1   0.0000
    23 C23     86.5139  39.2597  54.2057   C.2       1 RES1   0.0000
    24 O24     85.4226  39.8234  54.1937   O.co2     1 RES1   0.0000
    25 O25     87.2510  39.1393  55.2881   O.co2     1 RES1  -1.0000
    26 C26     83.9781  38.9512  51.0089   C.2       1 RES1   0.0000
    27 C27     83.8421  37.4545  50.9583   C.2       1 RES1   0.0000
    28 O28     83.8069  36.8024  51.9978   O.2       1 RES1   0.0000
    29 N29     83.9088  36.8717  49.7351   N.am      1 RES1   0.0000
    30 C30     83.9534  35.4869  49.4201   C.2       1 RES1   0.0000
    31 C31     83.9421  34.4828  50.3847   C.2       1 RES1   0.0000
    32 C32     83.9130  33.1487  50.0081   C.2       1 RES1   0.0000
    33 C33     83.9265  32.7879  48.6597   C.2       1 RES1   0.0000
    34 C34     83.8218  31.3459  48.2295   C.2       1 RES1   0.0000
    35 N35     84.5246  31.0169  47.0765   N.pl3     1 RES1   0.0000
    36 N36     83.1354  30.5210  48.9691   N.pl3     1 RES1   1.0000
    37 C37     84.0108  33.7967  47.7008   C.2       1 RES1   0.0000
    38 C38     84.0247  35.1320  48.0762   C.2       1 RES1   0.0000
    39 N39     82.8757  39.6569  50.7024   N.2       1 RES1   0.0000
@<TRIPOS>BOND
     1     1     2    1
     2     2     3    1
     3     3     4    2
     4     4     5    1
     5     5     6    2
     6     6     7    1
     7     7     8    2
     8     8     9    1
     9     9    10    2
    10    10    11    1
    11    11    12    2
    12    11    13   am
    13    13    14    1
    14    14    15    1
    15    15    16    1
    16    14    17    1
    17    17    18    1
    18    17    19    1
    19    17    20    1
    20    10    21    1
    21    21    22    2
    22    22    23    1
    23    23    24    2
    24    23    25    1
    25     6    26    1
    26    26    27    1
    27    27    28    2
    28    27    29   am
    29    29    30    1
    30    30    31    2
    31    31    32    1
    32    32    33    2
    33    33    34    1
    34    34    35    1
    35    34    36    2
    36    33    37    1
    37    37    38    2
    38    26    39    2
    39    39     3    1
    40    22     7    1
    41    38    30    1
@<TRIPOS>SUBSTRUCTURE
     1 RES1        1 GROUP             0 ****  ****    0  
@<TRIPOS>MOLECULE
ligand_5
    39    41     1     0     0
SMALL
USER_CHARGES
****
Generated from the CSD

@<TRIPOS>ATOM
     1 C1      80.7751  41.0934  49.8378   C.3       1 RES1   0.0000
     2 O2      81.9096  41.7471  50.4081   O.3       1 RES1   0.0000
     3 C3      82.9391  40.9838  50.8276   C.2       1 RES1   0.0000
     4 C4      84.0664  41.6664  51.2889   C.2       1 RES1   0.0000
     5 C5      85.2105  40.9315  51.5609   C.2       1 RES1   0.0000
     6 C6      85.2202  39.5396  51.4187   C.2       1 RES1   0.0000
     7 C7      86.4991  38.7975  51.6785   C.2       1 RES1   0.0000
     8 C8      87.1068  38.1397  50.5991   C.2       1 RES1   0.0000
     9 C9      88.2665  37.3954  50.7762   C.2       1 RES1   0.0000
    10 C10     88.8725  37.3095  52.0286   C.2       1 RES1   0.0000
    11 C11     90.1091  36.5023  52.2637   C.2       1 RES1   0.0000
    12 O12     90.9029  36.7994  53.1545   O.2       1 RES1   0.0000
    13 N13     90.2840  35.4236  51.4778   N.am      1 RES1   0.0000
    14 C14     91.3962  34.4818  51.5503   C.3       1 RES1   0.0000
    15 C15     92.2070  34.5200  50.1887   C.3       1 RES1   0.0000
    16 O16     92.7774  35.7962  49.9679   O.3       1 RES1   0.0000
    17 C17     91.0259  33.0577  52.0578   C.3       1 RES1   0.0000
    18 C18     90.0640  32.3664  51.0760   C.3       1 RES1   0.0000
    19 C19     92.2884  32.1954  52.2041   C.3       1 RES1   0.0000
    20 C20     90.3408  33.1597  53.4293   C.3       1 RES1   0.0000
    21 C21     88.2982  37.9777  53.1076   C.2       1 RES1   0.0000
    22 C22     87.1108  38.6976  52.9474   C.2       1 RES1   0.0000
    23 C23     86.5140  39.2598  54.2057   C.2       1 RES1   0.0000
    24 O24     85.4227  39.8235  54.1937   O.co2     1 RES1   0.0000
    25 O25     87.2511  39.1393  55.2881   O.co2     1 RES1  -1.0000
    26 C26     83.9781  38.9512  51.0089   C.2       1 RES1   0.0000
    27 C27     83.8421  37.4545  50.9583   C.2       1 RES1   0.0000
    28 O28     84.3600  36.8183  50.0450   O.2       1 RES1   0.0000
    29 N29     83.0152  36.8808  51.8677   N.am      1 RES1   0.0000
    30 C30     82.5999  35.5243  51.9487   C.2       1 RES1   0.0000
    31 C31     83.0050  34.5456  51.0449   C.2       1 RES1   0.0000
    32 C32     82.6224  33.2249  51.2230   C.2       1 RES1   0.0000
    33 C33     81.8008  32.8582  52.2903   C.2       1 RES1   0.0000
    34 C34     81.4340  31.4169  52.5423   C.2       1 RES1   0.0000
    35 N35     80.1657  31.2100  53.0718   N.pl3     1 RES1   0.0000
    36 N36     82.2882  30.4881  52.2167   N.pl3     1 RES1   1.0000
    37 C37     81.3402  33.8549  53.1497   C.2       1 RES1   0.0000
    38 C38     81.7346  35.1741  52.9811   C.2       1 RES1   0.0000
    39 N39     82.8757  39.6569  50.7024   N.2       1 RES1   0.0000
@<TRIPOS>BOND
     1     1     2    1
     2     2     3    1
     3     3     4    2
     4     4     5    1
     5     5     6    2
     6     6     7    1
     7     7     8    2
     8     8     9    1
     9     9    10    2
    10    10    11    1
    11    11    12    2
    12    11    13   am
    13    13    14    1
    14    14    15    1
    15    15    16    1
    16    14    17    1
    17    17    18    1
    18    17    19    1
    19    17    20    1
    20    10    21    1
    21    21    22    2
    22    22    23    1
    23    23    24    2
    24    23    25    1
    25     6    26    1
    26    26    27    1
    27    27    28    2
    28    27    29   am
    29    29    30    1
    30    30    31    2
    31    31    32    1
    32    32    33    2
    33    33    34    1
    34    34    35    1
    35    34    36    2
    36    33    37    1
    37    37    38    2
    38    26    39    2
    39    39     3    1
    40    22     7    1
    41    38    30    1
@<TRIPOS>SUBSTRUCTURE
     1 RES1        1 GROUP             0 ****  ****    0  
@<TRIPOS>MOLECULE
ligand_6
    39    41     1     0     0
SMALL
USER_CHARGES
****
Generated from the CSD

@<TRIPOS>ATOM
     1 C1      80.5474  41.1327  51.1486   C.3       1 RES1   0.0000
     2 O2      81.7779  41.6012  50.5955   O.3       1 RES1   0.0000
     3 C3      82.9208  41.0037  50.9900   C.2       1 RES1   0.0000
     4 C4      84.0899  41.4259  50.3541   C.2       1 RES1   0.0000
     5 C5      85.2583  40.7193  50.5965   C.2       1 RES1   0.0000
     6 C6      85.2730  39.6408  51.4876   C.2       1 RES1   0.0000
     7 C7      86.5529  38.8792  51.6762   C.2       1 RES1   0.0000
     8 C8      86.5867  37.5398  51.2610   C.2       1 RES1   0.0000
     9 C9      87.7224  36.7617  51.4473   C.2       1 RES1   0.0000
    10 C10     88.8694  37.3036  52.0251   C.2       1 RES1   0.0000
    11 C11     90.1039  36.4936  52.2609   C.2       1 RES1   0.0000
    12 O12     90.8812  36.7694  53.1730   O.2       1 RES1   0.0000
    13 N13     90.2956  35.4360  51.4506   N.am      1 RES1   0.0000
    14 C14     91.4000  34.4855  51.5289   C.3       1 RES1   0.0000
    15 C15     92.2502  34.5564  50.1928   C.3       1 RES1   0.0000
    16 O16     92.8339  35.8346  50.0244   O.3       1 RES1   0.0000
    17 C17     91.0072  33.0503  51.9853   C.3       1 RES1   0.0000
    18 C18     90.0703  32.3926  50.9573   C.3       1 RES1   0.0000
    19 C19     92.2600  32.1762  52.1440   C.3       1 RES1   0.0000
    20 C20     90.2830  33.1184  53.3388   C.3       1 RES1   0.0000
    21 C21     88.8639  38.6396  52.4199   C.2       1 RES1   0.0000
    22 C22     87.7137  39.4199  52.2716   C.2       1 RES1   0.0000
    23 C23     87.7825  40.8013  52.8570   C.2       1 RES1   0.0000
    24 O24     86.7972  41.5347  52.8703   O.co2     1 RES1   0.0000
    25 O25     88.9617  41.1701  53.3074   O.co2     1 RES1  -1.0000
    26 C26     84.0242  39.3538  52.1319   C.2       1 RES1   0.0000
    27 C27     83.9630  38.3046  53.2074   C.2       1 RES1   0.0000
    28 O28     84.4789  38.5118  54.3018   O.2       1 RES1   0.0000
    29 N29     83.4518  37.0970  52.8603   N.am      1 RES1   0.0000
    30 C30     83.4116  35.9031  53.6297   C.2       1 RES1   0.0000
    31 C31     83.9306  35.8062  54.9181   C.2       1 RES1   0.0000
    32 C32     83.7932  34.6323  55.6431   C.2       1 RES1   0.0000
    33 C33     83.1621  33.5192  55.0852   C.2       1 RES1   0.0000
    34 C34     82.9386  32.2587  55.8831   C.2       1 RES1   0.0000
    35 N35     83.0010  31.0759  55.1560   N.pl3     1 RES1   0.0000
    36 N36     82.7505  32.3577  57.1689   N.pl3     1 RES1   1.0000
    37 C37     82.7091  33.6002  53.7690   C.2       1 RES1   0.0000
    38 C38     82.8326  34.7789  53.0481   C.2       1 RES1   0.0000
    39 N39     82.8768  40.0048  51.8735   N.2       1 RES1   0.0000
@<TRIPOS>BOND
     1     1     2    1
     2     2     3    1
     3     3     4    2
     4     4     5    1
     5     5     6    2
     6     6     7    1
     7     7     8    2
     8     8     9    1
     9     9    10    2
    10    10    11    1
    11    11    12    2
    12    11    13   am
    13    13    14    1
    14    14    15    1
    15    15    16    1
    16    14    17    1
    17    17    18    1
    18    17    19    1
    19    17    20    1
    20    10    21    1
    21    21    22    2
    22    22    23    1
    23    23    24    2
    24    23    25    1
    25     6    26    1
    26    26    27    1
    27    27    28    2
    28    27    29   am
    29    29    30    1
    30    30    31    2
    31    31    32    1
    32    32    33    2
    33    33    34    1
    34    34    35    1
    35    34    36    2
    36    33    37    1
    37    37    38    2
    38    26    39    2
    39    39     3    1
    40    22     7    1
    41    38    30    1
@<TRIPOS>SUBSTRUCTURE
     1 RES1        1 GROUP             0 ****  ****    0  
@<TRIPOS>MOLECULE
ligand_7
    39    41     1     0     0
SMALL
USER_CHARGES
****
Generated from the CSD

@<TRIPOS>ATOM
     1 C1      80.5474  41.1327  51.1486   C.3       1 RES1   0.0000
     2 O2      81.7779  41.6012  50.5955   O.3       1 RES1   0.0000
     3 C3      82.9208  41.0037  50.9900   C.2       1 RES1   0.0000
     4 C4      84.0899  41.4259  50.3541   C.2       1 RES1   0.0000
     5 C5      85.2583  40.7193  50.5965   C.2       1 RES1   0.0000
     6 C6      85.2730  39.6408  51.4876   C.2       1 RES1   0.0000
     7 C7      86.5529  38.8792  51.6762   C.2       1 RES1   0.0000
     8 C8      86.5867  37.5398  51.2611   C.2       1 RES1   0.0000
     9 C9      87.7224  36.7617  51.4473   C.2       1 RES1   0.0000
    10 C10     88.8694  37.3036  52.0251   C.2       1 RES1   0.0000
    11 C11     90.1039  36.4936  52.2609   C.2       1 RES1   0.0000
    12 O12     90.8811  36.7694  53.1730   O.2       1 RES1   0.0000
    13 N13     90.2957  35.4361  51.4505   N.am      1 RES1   0.0000
    14 C14     91.4000  34.4856  51.5288   C.3       1 RES1   0.0000
    15 C15     92.2503  34.5565  50.1929   C.3       1 RES1   0.0000
    16 O16     92.8341  35.8347  50.0246   O.3       1 RES1   0.0000
    17 C17     91.0071  33.0503  51.9851   C.3       1 RES1   0.0000
    18 C18     90.0704  32.3927  50.9569   C.3       1 RES1   0.0000
    19 C19     92.2600  32.1762  52.1438   C.3       1 RES1   0.0000
    20 C20     90.2828  33.1183  53.3386   C.3       1 RES1   0.0000
    21 C21     88.8639  38.6396  52.4199   C.2       1 RES1   0.0000
    22 C22     87.7137  39.4199  52.2716   C.2       1 RES1   0.0000
    23 C23     87.7825  40.8013  52.8569   C.2       1 RES1   0.0000
    24 O24     86.7972  41.5347  52.8703   O.co2     1 RES1   0.0000
    25 O25     88.9617  41.1701  53.3073   O.co2     1 RES1  -1.0000
    26 C26     84.0242  39.3538  52.1319   C.2       1 RES1   0.0000
    27 C27     83.9630  38.3046  53.2074   C.2       1 RES1   0.0000
    28 O28     83.9993  37.1139  52.9107   O.2       1 RES1   0.0000
    29 N29     83.7226  38.7329  54.4718   N.am      1 RES1   0.0000
    30 C30     83.4757  37.9538  55.6341   C.2       1 RES1   0.0000
    31 C31     83.4374  36.5619  55.6274   C.2       1 RES1   0.0000
    32 C32     83.2647  35.8593  56.8102   C.2       1 RES1   0.0000
    33 C33     83.0951  36.5325  58.0213   C.2       1 RES1   0.0000
    34 C34     82.9790  35.7864  59.3271   C.2       1 RES1   0.0000
    35 N35     82.1481  36.3722  60.2747   N.pl3     1 RES1   0.0000
    36 N36     83.6124  34.6551  59.4594   N.pl3     1 RES1   1.0000
    37 C37     83.0623  37.9264  58.0099   C.2       1 RES1   0.0000
    38 C38     83.2500  38.6302  56.8294   C.2       1 RES1   0.0000
    39 N39     82.8768  40.0048  51.8735   N.2       1 RES1   0.0000
@<TRIPOS>BOND
     1     1     2    1
     2     2     3    1
     3     3     4    2
     4     4     5    1
     5     5     6    2
     6     6     7    1
     7     7     8    2
     8     8     9    1
     9     9    10    2
    10    10    11    1
    11    11    12    2
    12    11    13   am
    13    13    14    1
    14    14    15    1
    15    15    16    1
    16    14    17    1
    17    17    18    1
    18    17    19    1
    19    17    20    1
    20    10    21    1
    21    21    22    2
    22    22    23    1
    23    23    24    2
    24    23    25    1
    25     6    26    1
    26    26    27    1
    27    27    28    2
    28    27    29   am
    29    29    30    1
    30    30    31    2
    31    31    32    1
    32    32    33    2
    33    33    34    1
    34    34    35    1
    35    34    36    2
    36    33    37    1
    37    37    38    2
    38    26    39    2
    39    39     3    1
    40    22     7    1
    41    38    30    1
@<TRIPOS>SUBSTRUCTURE
     1 RES1        1 GROUP             0 ****  ****    0  
@<TRIPOS>MOLECULE
ligand_8
    39    41     1     0     0
SMALL
USER_CHARGES
****
Generated from the CSD

@<TRIPOS>ATOM
     1 C1      80.8217  41.6617  50.8136   C.3       1 RES1   0.0000
     2 O2      82.1039  42.0130  50.2920   O.3       1 RES1   0.0000
     3 C3      83.1759  41.3119  50.7138   C.2       1 RES1   0.0000
     4 C4      84.3947  41.6227  50.1077   C.2       1 RES1   0.0000
     5 C5      85.4858  40.8105  50.3780   C.2       1 RES1   0.0000
     6 C6      85.3778  39.7360  51.2676   C.2       1 RES1   0.0000
     7 C7      86.5760  38.8585  51.4867   C.2       1 RES1   0.0000
     8 C8      87.1957  38.8963  52.7445   C.2       1 RES1   0.0000
     9 C9      88.3361  38.1461  53.0028   C.2       1 RES1   0.0000
    10 C10     88.8757  37.3119  52.0250   C.2       1 RES1   0.0000
    11 C11     90.1127  36.5048  52.2577   C.2       1 RES1   0.0000
    12 O12     90.9895  36.8921  53.0279   O.2       1 RES1   0.0000
    13 N13     90.1950  35.3268  51.6116   N.am      1 RES1   0.0000
    14 C14     91.2992  34.3768  51.6988   C.3       1 RES1   0.0000
    15 C15     91.9659  34.2132  50.2700   C.3       1 RES1   0.0000
    16 O16     92.5230  35.4346  49.8219   O.3       1 RES1   0.0000
    17 C17     90.9686  33.0426  52.4291   C.3       1 RES1   0.0000
    18 C18     89.9043  32.2491  51.6515   C.3       1 RES1   0.0000
    19 C19     92.2308  32.1780  52.5638   C.3       1 RES1   0.0000
    20 C20     90.4286  33.3434  53.8358   C.3       1 RES1   0.0000
    21 C21     88.2589  37.2409  50.7779   C.2       1 RES1   0.0000
    22 C22     87.1336  38.0206  50.4961   C.2       1 RES1   0.0000
    23 C23     86.6387  37.9638  49.0792   C.2       1 RES1   0.0000
    24 O24     85.6833  38.6435  48.7129   O.co2     1 RES1   0.0000
    25 O25     87.2678  37.1204  48.2904   O.co2     1 RES1  -1.0000
    26 C26     84.0920  39.5672  51.8803   C.2       1 RES1   0.0000
    27 C27     83.9066  38.5291  52.9523   C.2       1 RES1   0.0000
    28 O28     84.4120  38.6884  54.0596   O.2       1 RES1   0.0000
    29 N29     83.2942  37.3740  52.5907   N.am      1 RES1   0.0000
    30 C30     83.1143  36.1936  53.3609   C.2       1 RES1   0.0000
    31 C31     82.9750  36.1985  54.7463   C.2       1 RES1   0.0000
    32 C32     82.7285  35.0182  55.4307   C.2       1 RES1   0.0000
    33 C33     82.6471  33.8025  54.7495   C.2       1 RES1   0.0000
    34 C34     82.3076  32.5195  55.4664   C.2       1 RES1   0.0000
    35 N35     82.9173  31.3771  54.9616   N.pl3     1 RES1   0.0000
    36 N36     81.5232  32.5727  56.5059   N.pl3     1 RES1   1.0000
    37 C37     82.8594  33.7954  53.3714   C.2       1 RES1   0.0000
    38 C38     83.0911  34.9777  52.6838   C.2       1 RES1   0.0000
    39 N39     83.0171  40.3221  51.5944   N.2       1 RES1   0.0000
@<TRIPOS>BOND
     1     1     2    1
     2     2     3    1
     3     3     4    2
     4     4     5    1
     5     5     6    2
     6     6     7    1
     7     7     8    2
     8     8     9    1
     9     9    10    2
    10    10    11    1
    11    11    12    2
    12    11    13   am
    13    13    14    1
    14    14    15    1
    15    15    16    1
    16    14    17    1
    17    17    18    1
    18    17    19    1
    19    17    20    1
    20    10    21    1
    21    21    22    2
    22    22    23    1
    23    23    24    2
    24    23    25    1
    25     6    26    1
    26    26    27    1
    27    27    28    2
    28    27    29   am
    29    29    30    1
    30    30    31    2
    31    31    32    1
    32    32    33    2
    33    33    34    1
    34    34    35    1
    35    34    36    2
    36    33    37    1
    37    37    38    2
    38    26    39    2
    39    39     3    1
    40    22     7    1
    41    38    30    1
@<TRIPOS>SUBSTRUCTURE
     1 RES1        1 GROUP             0 ****  ****    0  
@<TRIPOS>MOLECULE
ligand_9
    39    41     1     0     0
SMALL
USER_CHARGES
****
Generated from the CSD

@<TRIPOS>ATOM
     1 C1      80.8217  41.6617  50.8136   C.3       1 RES1   0.0000
     2 O2      82.1039  42.0130  50.2920   O.3       1 RES1   0.0000
     3 C3      83.1759  41.3119  50.7138   C.2       1 RES1   0.0000
     4 C4      84.3947  41.6227  50.1077   C.2       1 RES1   0.0000
     5 C5      85.4858  40.8105  50.3780   C.2       1 RES1   0.0000
     6 C6      85.3778  39.7360  51.2676   C.2       1 RES1   0.0000
     7 C7      86.5760  38.8585  51.4867   C.2       1 RES1   0.0000
     8 C8      87.1959  38.8965  52.7444   C.2       1 RES1   0.0000
     9 C9      88.3363  38.1463  53.0027   C.2       1 RES1   0.0000
    10 C10     88.8757  37.3119  52.0250   C.2       1 RES1   0.0000
    11 C11     90.1127  36.5048  52.2576   C.2       1 RES1   0.0000
    12 O12     90.9897  36.8923  53.0276   O.2       1 RES1   0.0000
    13 N13     90.1948  35.3266  51.6118   N.am      1 RES1   0.0000
    14 C14     91.2990  34.3767  51.6991   C.3       1 RES1   0.0000
    15 C15     91.9655  34.2127  50.2701   C.3       1 RES1   0.0000
    16 O16     92.5226  35.4340  49.8217   O.3       1 RES1   0.0000
    17 C17     90.9686  33.0427  52.4297   C.3       1 RES1   0.0000
    18 C18     89.9041  32.2490  51.6524   C.3       1 RES1   0.0000
    19 C19     92.2307  32.1780  52.5643   C.3       1 RES1   0.0000
    20 C20     90.4288  33.3438  53.8365   C.3       1 RES1   0.0000
    21 C21     88.2587  37.2407  50.7780   C.2       1 RES1   0.0000
    22 C22     87.1334  38.0204  50.4961   C.2       1 RES1   0.0000
    23 C23     86.6384  37.9634  49.0794   C.2       1 RES1   0.0000
    24 O24     85.6829  38.6429  48.7131   O.co2     1 RES1   0.0000
    25 O25     87.2674  37.1198  48.2906   O.co2     1 RES1  -1.0000
    26 C26     84.0920  39.5672  51.8803   C.2       1 RES1   0.0000
    27 C27     83.9066  38.5291  52.9523   C.2       1 RES1   0.0000
    28 O28     84.4120  38.6884  54.0596   O.2       1 RES1   0.0000
    29 N29     83.2942  37.3740  52.5907   N.am      1 RES1   0.0000
    30 C30     83.1238  36.1897  53.3571   C.2       1 RES1   0.0000
    31 C31     84.0265  35.7736  54.3321   C.2       1 RES1   0.0000
    32 C32     83.7638  34.6467  55.0960   C.2       1 RES1   0.0000
    33 C33     82.6088  33.8929  54.8812   C.2       1 RES1   0.0000
    34 C34     82.2698  32.7071  55.7497   C.2       1 RES1   0.0000
    35 N35     80.9126  32.4455  55.8954   N.pl3     1 RES1   0.0000
    36 N36     83.2434  32.0032  56.2548   N.pl3     1 RES1   1.0000
    37 C37     81.7454  34.2744  53.8549   C.2       1 RES1   0.0000
    38 C38     81.9997  35.4101  53.1002   C.2       1 RES1   0.0000
    39 N39     83.0171  40.3221  51.5944   N.2       1 RES1   0.0000
@<TRIPOS>BOND
     1     1     2    1
     2     2     3    1
     3     3     4    2
     4     4     5    1
     5     5     6    2
     6     6     7    1
     7     7     8    2
     8     8     9    1
     9     9    10    2
    10    10    11    1
    11    11    12    2
    12    11    13   am
    13    13    14    1
    14    14    15    1
    15    15    16    1
    16    14    17    1
    17    17    18    1
    18    17    19    1
    19    17    20    1
    20    10    21    1
    21    21    22    2
    22    22    23    1
    23    23    24    2
    24    23    25    1
    25     6    26    1
    26    26    27    1
    27    27    28    2
    28    27    29   am
    29    29    30    1
    30    30    31    2
    31    31    32    1
    32    32    33    2
    33    33    34    1
    34    34    35    1
    35    34    36    2
    36    33    37    1
    37    37    38    2
    38    26    39    2
    39    39     3    1
    40    22     7    1
    41    38    30    1
@<TRIPOS>SUBSTRUCTURE
     1 RES1        1 GROUP             0 ****  ****    0  
@<TRIPOS>MOLECULE
ligand_10
    39    41     1     0     0
SMALL
USER_CHARGES
****
Generated from the CSD

@<TRIPOS>ATOM
     1 C1      80.8217  41.6617  50.8136   C.3       1 RES1   0.0000
     2 O2      82.1039  42.0130  50.2920   O.3       1 RES1   0.0000
     3 C3      83.1759  41.3119  50.7138   C.2       1 RES1   0.0000
     4 C4      84.3947  41.6227  50.1077   C.2       1 RES1   0.0000
     5 C5      85.4858  40.8105  50.3780   C.2       1 RES1   0.0000
     6 C6      85.3778  39.7360  51.2676   C.2       1 RES1   0.0000
     7 C7      86.5760  38.8585  51.4867   C.2       1 RES1   0.0000
     8 C8      87.1957  38.8963  52.7445   C.2       1 RES1   0.0000
     9 C9      88.3360  38.1460  53.0028   C.2       1 RES1   0.0000
    10 C10     88.8756  37.3119  52.0250   C.2       1 RES1   0.0000
    11 C11     90.1127  36.5048  52.2577   C.2       1 RES1   0.0000
    12 O12     90.9895  36.8921  53.0279   O.2       1 RES1   0.0000
    13 N13     90.1949  35.3267  51.6116   N.am      1 RES1   0.0000
    14 C14     91.2992  34.3768  51.6989   C.3       1 RES1   0.0000
    15 C15     91.9659  34.2132  50.2700   C.3       1 RES1   0.0000
    16 O16     92.5230  35.4346  49.8219   O.3       1 RES1   0.0000
    17 C17     90.9687  33.0426  52.4291   C.3       1 RES1   0.0000
    18 C18     89.9043  32.2491  51.6515   C.3       1 RES1   0.0000
    19 C19     92.2308  32.1780  52.5638   C.3       1 RES1   0.0000
    20 C20     90.4287  33.3434  53.8359   C.3       1 RES1   0.0000
    21 C21     88.2589  37.2409  50.7779   C.2       1 RES1   0.0000
    22 C22     87.1336  38.0207  50.4960   C.2       1 RES1   0.0000
    23 C23     86.6388  37.9639  49.0792   C.2       1 RES1   0.0000
    24 O24     85.6834  38.6435  48.7129   O.co2     1 RES1   0.0000
    25 O25     87.2680  37.1206  48.2903   O.co2     1 RES1  -1.0000
    26 C26     84.0920  39.5672  51.8803   C.2       1 RES1   0.0000
    27 C27     83.9066  38.5291  52.9523   C.2       1 RES1   0.0000
    28 O28     83.8391  37.3400  52.6548   O.2       1 RES1   0.0000
    29 N29     83.6758  38.9791  54.2110   N.am      1 RES1   0.0000
    30 C30     83.3392  38.2260  55.3680   C.2       1 RES1   0.0000
    31 C31     83.7655  36.9174  55.5791   C.2       1 RES1   0.0000
    32 C32     83.4629  36.2637  56.7639   C.2       1 RES1   0.0000
    33 C33     82.7011  36.8919  57.7505   C.2       1 RES1   0.0000
    34 C34     82.4236  36.2249  59.0747   C.2       1 RES1   0.0000
    35 N35     81.1883  36.5175  59.6404   N.pl3     1 RES1   0.0000
    36 N36     83.3156  35.4102  59.5636   N.pl3     1 RES1   1.0000
    37 C37     82.2169  38.1757  57.5020   C.2       1 RES1   0.0000
    38 C38     82.5316  38.8361  56.3235   C.2       1 RES1   0.0000
    39 N39     83.0171  40.3221  51.5944   N.2       1 RES1   0.0000
@<TRIPOS>BOND
     1     1     2    1
     2     2     3    1
     3     3     4    2
     4     4     5    1
     5     5     6    2
     6     6     7    1
     7     7     8    2
     8     8     9    1
     9     9    10    2
    10    10    11    1
    11    11    12    2
    12    11    13   am
    13    13    14    1
    14    14    15    1
    15    15    16    1
    16    14    17    1
    17    17    18    1
    18    17    19    1
    19    17    20    1
    20    10    21    1
    21    21    22    2
    22    22    23    1
    23    23    24    2
    24    23    25    1
    25     6    26    1
    26    26    27    1
    27    27    28    2
    28    27    29   am
    29    29    30    1
    30    30    31    2
    31    31    32    1
    32    32    33    2
    33    33    34    1
    34    34    35    1
    35    34    36    2
    36    33    37    1
    37    37    38    2
    38    26    39    2
    39    39     3    1
    40    22     7    1
    41    38    30    1
@<TRIPOS>SUBSTRUCTURE
     1 RES1        1 GROUP             0 ****  ****    0  
@<TRIPOS>MOLECULE
ligand_11
    39    41     1     0     0
SMALL
USER_CHARGES
****
Generated from the CSD

@<TRIPOS>ATOM
     1 C1      80.8217  41.6617  50.8136   C.3       1 RES1   0.0000
     2 O2      82.1039  42.0130  50.2920   O.3       1 RES1   0.0000
     3 C3      83.1759  41.3119  50.7138   C.2       1 RES1   0.0000
     4 C4      84.3947  41.6227  50.1077   C.2       1 RES1   0.0000
     5 C5      85.4858  40.8105  50.3780   C.2       1 RES1   0.0000
     6 C6      85.3778  39.7360  51.2676   C.2       1 RES1   0.0000
     7 C7      86.5760  38.8585  51.4867   C.2       1 RES1   0.0000
     8 C8      87.1958  38.8965  52.7444   C.2       1 RES1   0.0000
     9 C9      88.3362  38.1462  53.0027   C.2       1 RES1   0.0000
    10 C10     88.8757  37.3119  52.0250   C.2       1 RES1   0.0000
    11 C11     90.1127  36.5048  52.2576   C.2       1 RES1   0.0000
    12 O12     90.9897  36.8923  53.0276   O.2       1 RES1   0.0000
    13 N13     90.1948  35.3266  51.6118   N.am      1 RES1   0.0000
    14 C14     91.2990  34.3767  51.6991   C.3       1 RES1   0.0000
    15 C15     91.9654  34.2127  50.2701   C.3       1 RES1   0.0000
    16 O16     92.5225  35.4339  49.8216   O.3       1 RES1   0.0000
    17 C17     90.9686  33.0427  52.4297   C.3       1 RES1   0.0000
    18 C18     89.9041  32.2490  51.6525   C.3       1 RES1   0.0000
    19 C19     92.2308  32.1780  52.5644   C.3       1 RES1   0.0000
    20 C20     90.4289  33.3438  53.8365   C.3       1 RES1   0.0000
    21 C21     88.2588  37.2407  50.7780   C.2       1 RES1   0.0000
    22 C22     87.1334  38.0205  50.4961   C.2       1 RES1   0.0000
    23 C23     86.6384  37.9635  49.0793   C.2       1 RES1   0.0000
    24 O24     85.6829  38.6430  48.7131   O.co2     1 RES1   0.0000
    25 O25     87.2675  37.1201  48.2905   O.co2     1 RES1  -1.0000
    26 C26     84.0920  39.5672  51.8803   C.2       1 RES1   0.0000
    27 C27     83.9066  38.5291  52.9523   C.2       1 RES1   0.0000
    28 O28     83.8391  37.3400  52.6548   O.2       1 RES1   0.0000
    29 N29     83.6758  38.9791  54.2110   N.am      1 RES1   0.0000
    30 C30     83.3287  38.2272  55.3656   C.2       1 RES1   0.0000
    31 C31     82.5940  37.0455  55.3160   C.2       1 RES1   0.0000
    32 C32     82.3519  36.3209  56.4731   C.2       1 RES1   0.0000
    33 C33     82.8115  36.7774  57.7096   C.2       1 RES1   0.0000
    34 C34     82.6215  35.9675  58.9679   C.2       1 RES1   0.0000
    35 N35     83.5970  36.1446  59.9419   N.pl3     1 RES1   0.0000
    36 N36     81.5648  35.2117  59.0715   N.pl3     1 RES1   1.0000
    37 C37     83.4839  37.9978  57.7614   C.2       1 RES1   0.0000
    38 C38     83.7396  38.7159  56.6024   C.2       1 RES1   0.0000
    39 N39     83.0171  40.3221  51.5944   N.2       1 RES1   0.0000
@<TRIPOS>BOND
     1     1     2    1
     2     2     3    1
     3     3     4    2
     4     4     5    1
     5     5     6    2
     6     6     7    1
     7     7     8    2
     8     8     9    1
     9     9    10    2
    10    10    11    1
    11    11    12    2
    12    11    13   am
    13    13    14    1
    14    14    15    1
    15    15    16    1
    16    14    17    1
    17    17    18    1
    18    17    19    1
    19    17    20    1
    20    10    21    1
    21    21    22    2
    22    22    23    1
    23    23    24    2
    24    23    25    1
    25     6    26    1
    26    26    27    1
    27    27    28    2
    28    27    29   am
    29    29    30    1
    30    30    31    2
    31    31    32    1
    32    32    33    2
    33    33    34    1
    34    34    35    1
    35    34    36    2
    36    33    37    1
    37    37    38    2
    38    26    39    2
    39    39     3    1
    40    22     7    1
    41    38    30    1
@<TRIPOS>SUBSTRUCTURE
     1 RES1        1 GROUP             0 ****  ****    0  
@<TRIPOS>MOLECULE
ligand_12
    39    41     1     0     0
SMALL
USER_CHARGES
****
Generated from the CSD

@<TRIPOS>ATOM
     1 C1      81.0363  42.1381  51.3145   C.3       1 RES1   0.0000
     2 O2      81.8753  41.6551  50.2645   O.3       1 RES1   0.0000
     3 C3      83.0527  41.0898  50.6003   C.2       1 RES1   0.0000
     4 C4      83.7972  40.5446  49.5525   C.2       1 RES1   0.0000
     5 C5      84.9229  39.7988  49.8686   C.2       1 RES1   0.0000
     6 C6      85.3250  39.6348  51.1987   C.2       1 RES1   0.0000
     7 C7      86.5222  38.7769  51.4891   C.2       1 RES1   0.0000
     8 C8      87.6766  39.4054  51.9787   C.2       1 RES1   0.0000
     9 C9      88.8358  38.6805  52.2252   C.2       1 RES1   0.0000
    10 C10     88.8702  37.3021  52.0202   C.2       1 RES1   0.0000
    11 C11     90.1040  36.4905  52.2544   C.2       1 RES1   0.0000
    12 O12     90.9268  36.8156  53.1083   O.2       1 RES1   0.0000
    13 N13     90.2436  35.3768  51.5113   N.am      1 RES1   0.0000
    14 C14     91.3253  34.4035  51.6209   C.3       1 RES1   0.0000
    15 C15     92.1356  34.3627  50.2591   C.3       1 RES1   0.0000
    16 O16     92.7460  35.6106  49.9887   O.3       1 RES1   0.0000
    17 C17     90.9101  33.0129  52.1833   C.3       1 RES1   0.0000
    18 C18     89.9261  32.3146  51.2287   C.3       1 RES1   0.0000
    19 C19     92.1446  32.1172  52.3641   C.3       1 RES1   0.0000
    20 C20     90.2293  33.1901  53.5493   C.3       1 RES1   0.0000
    21 C21     87.7254  36.6559  51.5593   C.2       1 RES1   0.0000
    22 C22     86.5661  37.3821  51.2721   C.2       1 RES1   0.0000
    23 C23     85.4432  36.6004  50.6528   C.2       1 RES1   0.0000
    24 O24     84.3957  37.1491  50.3204   O.co2     1 RES1   0.0000
    25 O25     85.6487  35.3070  50.5335   O.co2     1 RES1  -1.0000
    26 C26     84.5177  40.3058  52.1760   C.2       1 RES1   0.0000
    27 C27     84.9402  40.3073  53.6191   C.2       1 RES1   0.0000
    28 O28     85.9149  40.9625  53.9762   O.2       1 RES1   0.0000
    29 N29     84.2934  39.4523  54.4504   N.am      1 RES1   0.0000
    30 C30     84.5802  39.1602  55.8110   C.2       1 RES1   0.0000
    31 C31     85.1399  40.0841  56.6896   C.2       1 RES1   0.0000
    32 C32     85.3267  39.7586  58.0244   C.2       1 RES1   0.0000
    33 C33     84.9874  38.4923  58.5039   C.2       1 RES1   0.0000
    34 C34     85.1150  38.1439  59.9660   C.2       1 RES1   0.0000
    35 N35     85.4590  36.8245  60.2350   N.pl3     1 RES1   0.0000
    36 N36     84.9414  39.0851  60.8505   N.pl3     1 RES1   1.0000
    37 C37     84.4948  37.5487  57.6032   C.2       1 RES1   0.0000
    38 C38     84.2936  37.8782  56.2708   C.2       1 RES1   0.0000
    39 N39     83.4015  40.9961  51.8848   N.2       1 RES1   0.0000
@<TRIPOS>BOND
     1     1     2    1
     2     2     3    1
     3     3     4    2
     4     4     5    1
     5     5     6    2
     6     6     7    1
     7     7     8    2
     8     8     9    1
     9     9    10    2
    10    10    11    1
    11    11    12    2
    12    11    13   am
    13    13    14    1
    14    14    15    1
    15    15    16    1
    16    14    17    1
    17    17    18    1
    18    17    19    1
    19    17    20    1
    20    10    21    1
    21    21    22    2
    22    22    23    1
    23    23    24    2
    24    23    25    1
    25     6    26    1
    26    26    27    1
    27    27    28    2
    28    27    29   am
    29    29    30    1
    30    30    31    2
    31    31    32    1
    32    32    33    2
    33    33    34    1
    34    34    35    1
    35    34    36    2
    36    33    37    1
    37    37    38    2
    38    26    39    2
    39    39     3    1
    40    22     7    1
    41    38    30    1
@<TRIPOS>SUBSTRUCTURE
     1 RES1        1 GROUP             0 ****  ****    0  
@<TRIPOS>MOLECULE
ligand_13
    39    41     1     0     0
SMALL
USER_CHARGES
****
Generated from the CSD

@<TRIPOS>ATOM
     1 C1      81.0363  42.1381  51.3145   C.3       1 RES1   0.0000
     2 O2      81.8753  41.6551  50.2645   O.3       1 RES1   0.0000
     3 C3      83.0527  41.0898  50.6003   C.2       1 RES1   0.0000
     4 C4      83.7972  40.5446  49.5525   C.2       1 RES1   0.0000
     5 C5      84.9229  39.7988  49.8686   C.2       1 RES1   0.0000
     6 C6      85.3250  39.6348  51.1987   C.2       1 RES1   0.0000
     7 C7      86.5222  38.7769  51.4891   C.2       1 RES1   0.0000
     8 C8      87.6766  39.4054  51.9785   C.2       1 RES1   0.0000
     9 C9      88.8358  38.6805  52.2250   C.2       1 RES1   0.0000
    10 C10     88.8702  37.3021  52.0202   C.2       1 RES1   0.0000
    11 C11     90.1039  36.4905  52.2543   C.2       1 RES1   0.0000
    12 O12     90.9269  36.8157  53.1081   O.2       1 RES1   0.0000
    13 N13     90.2435  35.3767  51.5113   N.am      1 RES1   0.0000
    14 C14     91.3252  34.4034  51.6210   C.3       1 RES1   0.0000
    15 C15     92.1354  34.3624  50.2591   C.3       1 RES1   0.0000
    16 O16     92.7458  35.6103  49.9886   O.3       1 RES1   0.0000
    17 C17     90.9100  33.0128  52.1835   C.3       1 RES1   0.0000
    18 C18     89.9259  32.3145  51.2290   C.3       1 RES1   0.0000
    19 C19     92.1444  32.1171  52.3643   C.3       1 RES1   0.0000
    20 C20     90.2293  33.1902  53.5496   C.3       1 RES1   0.0000
    21 C21     87.7254  36.6559  51.5594   C.2       1 RES1   0.0000
    22 C22     86.5660  37.3821  51.2723   C.2       1 RES1   0.0000
    23 C23     85.4430  36.6003  50.6533   C.2       1 RES1   0.0000
    24 O24     84.3955  37.1490  50.3209   O.co2     1 RES1   0.0000
    25 O25     85.6485  35.3069  50.5340   O.co2     1 RES1  -1.0000
    26 C26     84.5177  40.3058  52.1760   C.2       1 RES1   0.0000
    27 C27     84.9402  40.3073  53.6191   C.2       1 RES1   0.0000
    28 O28     85.9149  40.9625  53.9762   O.2       1 RES1   0.0000
    29 N29     84.2934  39.4523  54.4503   N.am      1 RES1   0.0000
    30 C30     84.5867  39.1523  55.8079   C.2       1 RES1   0.0000
    31 C31     85.8733  39.1920  56.3388   C.2       1 RES1   0.0000
    32 C32     86.0820  38.9598  57.6898   C.2       1 RES1   0.0000
    33 C33     85.0138  38.6518  58.5338   C.2       1 RES1   0.0000
    34 C34     85.2108  38.4680  60.0180   C.2       1 RES1   0.0000
    35 N35     84.1169  38.8000  60.8086   N.pl3     1 RES1   0.0000
    36 N36     86.3438  37.9845  60.4433   N.pl3     1 RES1   1.0000
    37 C37     83.7381  38.5428  57.9815   C.2       1 RES1   0.0000
    38 C38     83.5261  38.7897  56.6331   C.2       1 RES1   0.0000
    39 N39     83.4015  40.9961  51.8848   N.2       1 RES1   0.0000
@<TRIPOS>BOND
     1     1     2    1
     2     2     3    1
     3     3     4    2
     4     4     5    1
     5     5     6    2
     6     6     7    1
     7     7     8    2
     8     8     9    1
     9     9    10    2
    10    10    11    1
    11    11    12    2
    12    11    13   am
    13    13    14    1
    14    14    15    1
    15    15    16    1
    16    14    17    1
    17    17    18    1
    18    17    19    1
    19    17    20    1
    20    10    21    1
    21    21    22    2
    22    22    23    1
    23    23    24    2
    24    23    25    1
    25     6    26    1
    26    26    27    1
    27    27    28    2
    28    27    29   am
    29    29    30    1
    30    30    31    2
    31    31    32    1
    32    32    33    2
    33    33    34    1
    34    34    35    1
    35    34    36    2
    36    33    37    1
    37    37    38    2
    38    26    39    2
    39    39     3    1
    40    22     7    1
    41    38    30    1
@<TRIPOS>SUBSTRUCTURE
     1 RES1        1 GROUP             0 ****  ****    0  
@<TRIPOS>MOLECULE
ligand_14
    39    41     1     0     0
SMALL
USER_CHARGES
****
Generated from the CSD

@<TRIPOS>ATOM
     1 C1      81.0363  42.1381  51.3145   C.3       1 RES1   0.0000
     2 O2      81.8753  41.6551  50.2645   O.3       1 RES1   0.0000
     3 C3      83.0527  41.0898  50.6003   C.2       1 RES1   0.0000
     4 C4      83.7972  40.5446  49.5525   C.2       1 RES1   0.0000
     5 C5      84.9229  39.7988  49.8686   C.2       1 RES1   0.0000
     6 C6      85.3250  39.6348  51.1987   C.2       1 RES1   0.0000
     7 C7      86.5222  38.7769  51.4891   C.2       1 RES1   0.0000
     8 C8      87.6766  39.4054  51.9787   C.2       1 RES1   0.0000
     9 C9      88.8358  38.6805  52.2252   C.2       1 RES1   0.0000
    10 C10     88.8702  37.3021  52.0202   C.2       1 RES1   0.0000
    11 C11     90.1040  36.4905  52.2544   C.2       1 RES1   0.0000
    12 O12     90.9268  36.8156  53.1083   O.2       1 RES1   0.0000
    13 N13     90.2436  35.3768  51.5112   N.am      1 RES1   0.0000
    14 C14     91.3253  34.4035  51.6209   C.3       1 RES1   0.0000
    15 C15     92.1357  34.3627  50.2591   C.3       1 RES1   0.0000
    16 O16     92.7460  35.6106  49.9887   O.3       1 RES1   0.0000
    17 C17     90.9101  33.0129  52.1832   C.3       1 RES1   0.0000
    18 C18     89.9261  32.3147  51.2285   C.3       1 RES1   0.0000
    19 C19     92.1445  32.1172  52.3640   C.3       1 RES1   0.0000
    20 C20     90.2292  33.1900  53.5492   C.3       1 RES1   0.0000
    21 C21     87.7254  36.6559  51.5593   C.2       1 RES1   0.0000
    22 C22     86.5661  37.3821  51.2722   C.2       1 RES1   0.0000
    23 C23     85.4432  36.6004  50.6529   C.2       1 RES1   0.0000
    24 O24     84.3956  37.1491  50.3206   O.co2     1 RES1   0.0000
    25 O25     85.6487  35.3070  50.5335   O.co2     1 RES1  -1.0000
    26 C26     84.5177  40.3058  52.1760   C.2       1 RES1   0.0000
    27 C27     84.9402  40.3073  53.6191   C.2       1 RES1   0.0000
    28 O28     84.8004  39.2982  54.3042   O.2       1 RES1   0.0000
    29 N29     85.3335  41.4947  54.1438   N.am      1 RES1   0.0000
    30 C30     85.6507  41.7992  55.4950   C.2       1 RES1   0.0000
    31 C31     86.1963  40.8727  56.3796   C.2       1 RES1   0.0000
    32 C32     86.5513  41.2544  57.6644   C.2       1 RES1   0.0000
    33 C33     86.3398  42.5623  58.1038   C.2       1 RES1   0.0000
    34 C34     86.7857  43.0150  59.4719   C.2       1 RES1   0.0000
    35 N35     87.1197  44.3603  59.5735   N.pl3     1 RES1   0.0000
    36 N36     86.7868  42.1504  60.4471   N.pl3     1 RES1   1.0000
    37 C37     85.7267  43.4658  57.2365   C.2       1 RES1   0.0000
    38 C38     85.3851  43.0889  55.9460   C.2       1 RES1   0.0000
    39 N39     83.4015  40.9961  51.8848   N.2       1 RES1   0.0000
@<TRIPOS>BOND
     1     1     2    1
     2     2     3    1
     3     3     4    2
     4     4     5    1
     5     5     6    2
     6     6     7    1
     7     7     8    2
     8     8     9    1
     9     9    10    2
    10    10    11    1
    11    11    12    2
    12    11    13   am
    13    13    14    1
    14    14    15    1
    15    15    16    1
    16    14    17    1
    17    17    18    1
    18    17    19    1
    19    17    20    1
    20    10    21    1
    21    21    22    2
    22    22    23    1
    23    23    24    2
    24    23    25    1
    25     6    26    1
    26    26    27    1
    27    27    28    2
    28    27    29   am
    29    29    30    1
    30    30    31    2
    31    31    32    1
    32    32    33    2
    33    33    34    1
    34    34    35    1
    35    34    36    2
    36    33    37    1
    37    37    38    2
    38    26    39    2
    39    39     3    1
    40    22     7    1
    41    38    30    1
@<TRIPOS>SUBSTRUCTURE
     1 RES1        1 GROUP             0 ****  ****    0  
@<TRIPOS>MOLECULE
ligand_15
    39    41     1     0     0
SMALL
USER_CHARGES
****
Generated from the CSD

@<TRIPOS>ATOM
     1 C1      81.0363  42.1381  51.3145   C.3       1 RES1   0.0000
     2 O2      81.8753  41.6551  50.2645   O.3       1 RES1   0.0000
     3 C3      83.0527  41.0898  50.6003   C.2       1 RES1   0.0000
     4 C4      83.7972  40.5446  49.5525   C.2       1 RES1   0.0000
     5 C5      84.9229  39.7988  49.8686   C.2       1 RES1   0.0000
     6 C6      85.3250  39.6348  51.1987   C.2       1 RES1   0.0000
     7 C7      86.5222  38.7769  51.4891   C.2       1 RES1   0.0000
     8 C8      87.6766  39.4054  51.9787   C.2       1 RES1   0.0000
     9 C9      88.8358  38.6805  52.2252   C.2       1 RES1   0.0000
    10 C10     88.8702  37.3021  52.0202   C.2       1 RES1   0.0000
    11 C11     90.1040  36.4905  52.2544   C.2       1 RES1   0.0000
    12 O12     90.9268  36.8156  53.1084   O.2       1 RES1   0.0000
    13 N13     90.2437  35.3769  51.5112   N.am      1 RES1   0.0000
    14 C14     91.3253  34.4036  51.6208   C.3       1 RES1   0.0000
    15 C15     92.1358  34.3629  50.2591   C.3       1 RES1   0.0000
    16 O16     92.7462  35.6108  49.9889   O.3       1 RES1   0.0000
    17 C17     90.9101  33.0129  52.1830   C.3       1 RES1   0.0000
    18 C18     89.9262  32.3147  51.2282   C.3       1 RES1   0.0000
    19 C19     92.1445  32.1172  52.3639   C.3       1 RES1   0.0000
    20 C20     90.2291  33.1899  53.5490   C.3       1 RES1   0.0000
    21 C21     87.7254  36.6559  51.5593   C.2       1 RES1   0.0000
    22 C22     86.5661  37.3821  51.2721   C.2       1 RES1   0.0000
    23 C23     85.4432  36.6004  50.6529   C.2       1 RES1   0.0000
    24 O24     84.3956  37.1491  50.3206   O.co2     1 RES1   0.0000
    25 O25     85.6487  35.3070  50.5334   O.co2     1 RES1  -1.0000
    26 C26     84.5177  40.3058  52.1760   C.2       1 RES1   0.0000
    27 C27     84.9402  40.3073  53.6191   C.2       1 RES1   0.0000
    28 O28     84.8004  39.2982  54.3042   O.2       1 RES1   0.0000
    29 N29     85.3335  41.4947  54.1438   N.am      1 RES1   0.0000
    30 C30     85.6404  41.8019  55.4968   C.2       1 RES1   0.0000
    31 C31     85.0422  41.1637  56.5801   C.2       1 RES1   0.0000
    32 C32     85.4401  41.4588  57.8751   C.2       1 RES1   0.0000
    33 C33     86.4222  42.4207  58.1177   C.2       1 RES1   0.0000
    34 C34     86.9198  42.7031  59.5134   C.2       1 RES1   0.0000
    35 N35     87.2804  44.0224  59.7604   N.pl3     1 RES1   0.0000
    36 N36     86.9371  41.7299  60.3800   N.pl3     1 RES1   1.0000
    37 C37     86.9652  43.1071  57.0322   C.2       1 RES1   0.0000
    38 C38     86.5786  42.8019  55.7354   C.2       1 RES1   0.0000
    39 N39     83.4015  40.9961  51.8848   N.2       1 RES1   0.0000
@<TRIPOS>BOND
     1     1     2    1
     2     2     3    1
     3     3     4    2
     4     4     5    1
     5     5     6    2
     6     6     7    1
     7     7     8    2
     8     8     9    1
     9     9    10    2
    10    10    11    1
    11    11    12    2
    12    11    13   am
    13    13    14    1
    14    14    15    1
    15    15    16    1
    16    14    17    1
    17    17    18    1
    18    17    19    1
    19    17    20    1
    20    10    21    1
    21    21    22    2
    22    22    23    1
    23    23    24    2
    24    23    25    1
    25     6    26    1
    26    26    27    1
    27    27    28    2
    28    27    29   am
    29    29    30    1
    30    30    31    2
    31    31    32    1
    32    32    33    2
    33    33    34    1
    34    34    35    1
    35    34    36    2
    36    33    37    1
    37    37    38    2
    38    26    39    2
    39    39     3    1
    40    22     7    1
    41    38    30    1
@<TRIPOS>SUBSTRUCTURE
     1 RES1        1 GROUP             0 ****  ****    0  
@<TRIPOS>MOLECULE
ligand_16
    39    41     1     0     0
SMALL
USER_CHARGES
****
Generated from the CSD

@<TRIPOS>ATOM
     1 C1      81.7167  42.8830  50.3145   C.3       1 RES1   0.0000
     2 O2      81.7339  41.6822  51.0873   O.3       1 RES1   0.0000
     3 C3      82.8628  40.9444  51.0910   C.2       1 RES1   0.0000
     4 C4      82.8706  39.8316  51.9343   C.2       1 RES1   0.0000
     5 C5      84.0656  39.1492  52.1060   C.2       1 RES1   0.0000
     6 C6      85.2202  39.5396  51.4187   C.2       1 RES1   0.0000
     7 C7      86.4991  38.7975  51.6785   C.2       1 RES1   0.0000
     8 C8      87.0230  38.0104  50.6425   C.2       1 RES1   0.0000
     9 C9      88.1775  37.2602  50.8280   C.2       1 RES1   0.0000
    10 C10     88.8618  37.2958  52.0419   C.2       1 RES1   0.0000
    11 C11     90.0957  36.4874  52.2870   C.2       1 RES1   0.0000
    12 O12     90.9511  36.8594  53.0882   O.2       1 RES1   0.0000
    13 N13     90.1989  35.3252  51.6158   N.am      1 RES1   0.0000
    14 C14     91.2956  34.3686  51.7223   C.3       1 RES1   0.0000
    15 C15     92.0167  34.2370  50.3168   C.3       1 RES1   0.0000
    16 O16     92.5956  35.4663  49.9211   O.3       1 RES1   0.0000
    17 C17     90.9324  33.0184  52.4062   C.3       1 RES1   0.0000
    18 C18     89.8957  32.2492  51.5691   C.3       1 RES1   0.0000
    19 C19     92.1852  32.1448  52.5675   C.3       1 RES1   0.0000
    20 C20     90.3401  33.2870  53.7983   C.3       1 RES1   0.0000
    21 C21     88.3715  38.0923  53.0742   C.2       1 RES1   0.0000
    22 C22     87.1899  38.8208  52.9100   C.2       1 RES1   0.0000
    23 C23     86.6867  39.5321  54.1333   C.2       1 RES1   0.0000
    24 O24     85.6348  40.1661  54.1111   O.co2     1 RES1   0.0000
    25 O25     87.4612  39.4578  55.1934   O.co2     1 RES1  -1.0000
    26 C26     85.0628  40.6518  50.5270   C.2       1 RES1   0.0000
    27 C27     86.2047  41.0646  49.6400   C.2       1 RES1   0.0000
    28 O28     86.5394  40.3561  48.6950   O.2       1 RES1   0.0000
    29 N29     86.9167  42.1546  50.0209   N.am      1 RES1   0.0000
    30 C30     88.1082  42.6735  49.4465   C.2       1 RES1   0.0000
    31 C31     88.4194  42.5556  48.0944   C.2       1 RES1   0.0000
    32 C32     89.5639  43.1488  47.5838   C.2       1 RES1   0.0000
    33 C33     90.4388  43.8461  48.4185   C.2       1 RES1   0.0000
    34 C34     91.6495  44.5594  47.8700   C.2       1 RES1   0.0000
    35 N35     92.7584  44.5787  48.7077   N.pl3     1 RES1   0.0000
    36 N36     91.5903  45.0572  46.6670   N.pl3     1 RES1   1.0000
    37 C37     90.1581  43.8985  49.7833   C.2       1 RES1   0.0000
    38 C38     89.0057  43.3183  50.2927   C.2       1 RES1   0.0000
    39 N39     83.9207  41.3464  50.3843   N.2       1 RES1   0.0000
@<TRIPOS>BOND
     1     1     2    1
     2     2     3    1
     3     3     4    2
     4     4     5    1
     5     5     6    2
     6     6     7    1
     7     7     8    2
     8     8     9    1
     9     9    10    2
    10    10    11    1
    11    11    12    2
    12    11    13   am
    13    13    14    1
    14    14    15    1
    15    15    16    1
    16    14    17    1
    17    17    18    1
    18    17    19    1
    19    17    20    1
    20    10    21    1
    21    21    22    2
    22    22    23    1
    23    23    24    2
    24    23    25    1
    25     6    26    1
    26    26    27    1
    27    27    28    2
    28    27    29   am
    29    29    30    1
    30    30    31    2
    31    31    32    1
    32    32    33    2
    33    33    34    1
    34    34    35    1
    35    34    36    2
    36    33    37    1
    37    37    38    2
    38    26    39    2
    39    39     3    1
    40    22     7    1
    41    38    30    1
@<TRIPOS>SUBSTRUCTURE
     1 RES1        1 GROUP             0 ****  ****    0  
@<TRIPOS>MOLECULE
ligand_17
    39    41     1     0     0
SMALL
USER_CHARGES
****
Generated from the CSD

@<TRIPOS>ATOM
     1 C1      81.7167  42.8830  50.3145   C.3       1 RES1   0.0000
     2 O2      81.7339  41.6822  51.0873   O.3       1 RES1   0.0000
     3 C3      82.8628  40.9444  51.0910   C.2       1 RES1   0.0000
     4 C4      82.8706  39.8316  51.9343   C.2       1 RES1   0.0000
     5 C5      84.0656  39.1492  52.1060   C.2       1 RES1   0.0000
     6 C6      85.2202  39.5396  51.4187   C.2       1 RES1   0.0000
     7 C7      86.4991  38.7975  51.6785   C.2       1 RES1   0.0000
     8 C8      87.0231  38.0105  50.6425   C.2       1 RES1   0.0000
     9 C9      88.1776  37.2603  50.8279   C.2       1 RES1   0.0000
    10 C10     88.8619  37.2958  52.0419   C.2       1 RES1   0.0000
    11 C11     90.0957  36.4875  52.2870   C.2       1 RES1   0.0000
    12 O12     90.9511  36.8593  53.0883   O.2       1 RES1   0.0000
    13 N13     90.1989  35.3253  51.6157   N.am      1 RES1   0.0000
    14 C14     91.2957  34.3686  51.7222   C.3       1 RES1   0.0000
    15 C15     92.0168  34.2372  50.3167   C.3       1 RES1   0.0000
    16 O16     92.5957  35.4665  49.9211   O.3       1 RES1   0.0000
    17 C17     90.9325  33.0184  52.4060   C.3       1 RES1   0.0000
    18 C18     89.8957  32.2493  51.5689   C.3       1 RES1   0.0000
    19 C19     92.1853  32.1448  52.5673   C.3       1 RES1   0.0000
    20 C20     90.3402  33.2870  53.7982   C.3       1 RES1   0.0000
    21 C21     88.3714  38.0922  53.0742   C.2       1 RES1   0.0000
    22 C22     87.1899  38.8207  52.9100   C.2       1 RES1   0.0000
    23 C23     86.6866  39.5319  54.1334   C.2       1 RES1   0.0000
    24 O24     85.6347  40.1659  54.1111   O.co2     1 RES1   0.0000
    25 O25     87.4610  39.4576  55.1935   O.co2     1 RES1  -1.0000
    26 C26     85.0628  40.6518  50.5270   C.2       1 RES1   0.0000
    27 C27     86.2047  41.0646  49.6400   C.2       1 RES1   0.0000
    28 O28     86.5394  40.3561  48.6950   O.2       1 RES1   0.0000
    29 N29     86.9167  42.1546  50.0209   N.am      1 RES1   0.0000
    30 C30     88.1140  42.6674  49.4531   C.2       1 RES1   0.0000
    31 C31     89.0730  41.8663  48.8389   C.2       1 RES1   0.0000
    32 C32     90.1848  42.4380  48.2392   C.2       1 RES1   0.0000
    33 C33     90.3789  43.8200  48.2676   C.2       1 RES1   0.0000
    34 C34     91.5430  44.4662  47.5587   C.2       1 RES1   0.0000
    35 N35     91.3188  45.7608  47.1054   N.pl3     1 RES1   0.0000
    36 N36     92.6608  43.8035  47.4596   N.pl3     1 RES1   1.0000
    37 C37     89.4516  44.6093  48.9469   C.2       1 RES1   0.0000
    38 C38     88.3313  44.0398  49.5340   C.2       1 RES1   0.0000
    39 N39     83.9207  41.3464  50.3843   N.2       1 RES1   0.0000
@<TRIPOS>BOND
     1     1     2    1
     2     2     3    1
     3     3     4    2
     4     4     5    1
     5     5     6    2
     6     6     7    1
     7     7     8    2
     8     8     9    1
     9     9    10    2
    10    10    11    1
    11    11    12    2
    12    11    13   am
    13    13    14    1
    14    14    15    1
    15    15    16    1
    16    14    17    1
    17    17    18    1
    18    17    19    1
    19    17    20    1
    20    10    21    1
    21    21    22    2
    22    22    23    1
    23    23    24    2
    24    23    25    1
    25     6    26    1
    26    26    27    1
    27    27    28    2
    28    27    29   am
    29    29    30    1
    30    30    31    2
    31    31    32    1
    32    32    33    2
    33    33    34    1
    34    34    35    1
    35    34    36    2
    36    33    37    1
    37    37    38    2
    38    26    39    2
    39    39     3    1
    40    22     7    1
    41    38    30    1
@<TRIPOS>SUBSTRUCTURE
     1 RES1        1 GROUP             0 ****  ****    0  
@<TRIPOS>MOLECULE
ligand_18
    39    41     1     0     0
SMALL
USER_CHARGES
****
Generated from the CSD

@<TRIPOS>ATOM
     1 C1      81.7167  42.8830  50.3145   C.3       1 RES1   0.0000
     2 O2      81.7339  41.6822  51.0873   O.3       1 RES1   0.0000
     3 C3      82.8628  40.9444  51.0910   C.2       1 RES1   0.0000
     4 C4      82.8706  39.8316  51.9343   C.2       1 RES1   0.0000
     5 C5      84.0656  39.1492  52.1060   C.2       1 RES1   0.0000
     6 C6      85.2202  39.5396  51.4187   C.2       1 RES1   0.0000
     7 C7      86.4991  38.7975  51.6785   C.2       1 RES1   0.0000
     8 C8      87.0232  38.0107  50.6424   C.2       1 RES1   0.0000
     9 C9      88.1777  37.2605  50.8278   C.2       1 RES1   0.0000
    10 C10     88.8619  37.2958  52.0418   C.2       1 RES1   0.0000
    11 C11     90.0957  36.4875  52.2870   C.2       1 RES1   0.0000
    12 O12     90.9510  36.8592  53.0884   O.2       1 RES1   0.0000
    13 N13     90.1991  35.3254  51.6155   N.am      1 RES1   0.0000
    14 C14     91.2958  34.3688  51.7219   C.3       1 RES1   0.0000
    15 C15     92.0171  34.2377  50.3164   C.3       1 RES1   0.0000
    16 O16     92.5960  35.4671  49.9211   O.3       1 RES1   0.0000
    17 C17     90.9326  33.0185  52.4054   C.3       1 RES1   0.0000
    18 C18     89.8960  32.2494  51.5680   C.3       1 RES1   0.0000
    19 C19     92.1855  32.1449  52.5667   C.3       1 RES1   0.0000
    20 C20     90.3401  33.2867  53.7975   C.3       1 RES1   0.0000
    21 C21     88.3713  38.0920  53.0743   C.2       1 RES1   0.0000
    22 C22     87.1897  38.8205  52.9101   C.2       1 RES1   0.0000
    23 C23     86.6863  39.5315  54.1335   C.2       1 RES1   0.0000
    24 O24     85.6344  40.1654  54.1113   O.co2     1 RES1   0.0000
    25 O25     87.4607  39.4570  55.1937   O.co2     1 RES1  -1.0000
    26 C26     85.0628  40.6518  50.5270   C.2       1 RES1   0.0000
    27 C27     86.2047  41.0646  49.6400   C.2       1 RES1   0.0000
    28 O28     87.1629  41.6714  50.1096   O.2       1 RES1   0.0000
    29 N29     86.0510  40.8660  48.3069   N.am      1 RES1   0.0000
    30 C30     86.9055  41.2806  47.2500   C.2       1 RES1   0.0000
    31 C31     88.2850  41.4093  47.3882   C.2       1 RES1   0.0000
    32 C32     89.0707  41.7472  46.2968   C.2       1 RES1   0.0000
    33 C33     88.4921  41.9948  45.0509   C.2       1 RES1   0.0000
    34 C34     89.3356  42.2919  43.8362   C.2       1 RES1   0.0000
    35 N35     88.7722  43.1748  42.9226   N.pl3     1 RES1   0.0000
    36 N36     90.5180  41.7509  43.7485   N.pl3     1 RES1   1.0000
    37 C37     87.1037  41.9346  44.9372   C.2       1 RES1   0.0000
    38 C38     86.3181  41.5819  46.0247   C.2       1 RES1   0.0000
    39 N39     83.9207  41.3464  50.3843   N.2       1 RES1   0.0000
@<TRIPOS>BOND
     1     1     2    1
     2     2     3    1
     3     3     4    2
     4     4     5    1
     5     5     6    2
     6     6     7    1
     7     7     8    2
     8     8     9    1
     9     9    10    2
    10    10    11    1
    11    11    12    2
    12    11    13   am
    13    13    14    1
    14    14    15    1
    15    15    16    1
    16    14    17    1
    17    17    18    1
    18    17    19    1
    19    17    20    1
    20    10    21    1
    21    21    22    2
    22    22    23    1
    23    23    24    2
    24    23    25    1
    25     6    26    1
    26    26    27    1
    27    27    28    2
    28    27    29   am
    29    29    30    1
    30    30    31    2
    31    31    32    1
    32    32    33    2
    33    33    34    1
    34    34    35    1
    35    34    36    2
    36    33    37    1
    37    37    38    2
    38    26    39    2
    39    39     3    1
    40    22     7    1
    41    38    30    1
@<TRIPOS>SUBSTRUCTURE
     1 RES1        1 GROUP             0 ****  ****    0  
@<TRIPOS>MOLECULE
ligand_19
    39    41     1     0     0
SMALL
USER_CHARGES
****
Generated from the CSD

@<TRIPOS>ATOM
     1 C1      81.7167  42.8830  50.3145   C.3       1 RES1   0.0000
     2 O2      81.7339  41.6822  51.0873   O.3       1 RES1   0.0000
     3 C3      82.8628  40.9444  51.0910   C.2       1 RES1   0.0000
     4 C4      82.8706  39.8316  51.9343   C.2       1 RES1   0.0000
     5 C5      84.0656  39.1492  52.1060   C.2       1 RES1   0.0000
     6 C6      85.2202  39.5396  51.4187   C.2       1 RES1   0.0000
     7 C7      86.4991  38.7975  51.6785   C.2       1 RES1   0.0000
     8 C8      87.0232  38.0108  50.6424   C.2       1 RES1   0.0000
     9 C9      88.1778  37.2606  50.8278   C.2       1 RES1   0.0000
    10 C10     88.8619  37.2958  52.0418   C.2       1 RES1   0.0000
    11 C11     90.0957  36.4875  52.2870   C.2       1 RES1   0.0000
    12 O12     90.9510  36.8592  53.0884   O.2       1 RES1   0.0000
    13 N13     90.1991  35.3254  51.6154   N.am      1 RES1   0.0000
    14 C14     91.2959  34.3689  51.7218   C.3       1 RES1   0.0000
    15 C15     92.0172  34.2378  50.3163   C.3       1 RES1   0.0000
    16 O16     92.5961  35.4672  49.9211   O.3       1 RES1   0.0000
    17 C17     90.9327  33.0185  52.4053   C.3       1 RES1   0.0000
    18 C18     89.8960  32.2495  51.5679   C.3       1 RES1   0.0000
    19 C19     92.1855  32.1449  52.5664   C.3       1 RES1   0.0000
    20 C20     90.3402  33.2867  53.7974   C.3       1 RES1   0.0000
    21 C21     88.3713  38.0919  53.0743   C.2       1 RES1   0.0000
    22 C22     87.1897  38.8205  52.9101   C.2       1 RES1   0.0000
    23 C23     86.6862  39.5313  54.1336   C.2       1 RES1   0.0000
    24 O24     85.6343  40.1652  54.1114   O.co2     1 RES1   0.0000
    25 O25     87.4605  39.4568  55.1938   O.co2     1 RES1  -1.0000
    26 C26     85.0628  40.6518  50.5270   C.2       1 RES1   0.0000
    27 C27     86.2047  41.0646  49.6400   C.2       1 RES1   0.0000
    28 O28     87.1629  41.6714  50.1096   O.2       1 RES1   0.0000
    29 N29     86.0510  40.8660  48.3069   N.am      1 RES1   0.0000
    30 C30     86.9000  41.2900  47.2493   C.2       1 RES1   0.0000
    31 C31     87.6725  42.4470  47.3062   C.2       1 RES1   0.0000
    32 C32     88.5362  42.7653  46.2693   C.2       1 RES1   0.0000
    33 C33     88.6238  41.9513  45.1387   C.2       1 RES1   0.0000
    34 C34     89.6094  42.2414  44.0343   C.2       1 RES1   0.0000
    35 N35     90.0666  41.1287  43.3381   N.pl3     1 RES1   0.0000
    36 N36     89.9237  43.4816  43.7864   N.pl3     1 RES1   1.0000
    37 C37     87.7945  40.8334  45.0567   C.2       1 RES1   0.0000
    38 C38     86.9411  40.5059  46.1001   C.2       1 RES1   0.0000
    39 N39     83.9207  41.3464  50.3843   N.2       1 RES1   0.0000
@<TRIPOS>BOND
     1     1     2    1
     2     2     3    1
     3     3     4    2
     4     4     5    1
     5     5     6    2
     6     6     7    1
     7     7     8    2
     8     8     9    1
     9     9    10    2
    10    10    11    1
    11    11    12    2
    12    11    13   am
    13    13    14    1
    14    14    15    1
    15    15    16    1
    16    14    17    1
    17    17    18    1
    18    17    19    1
    19    17    20    1
    20    10    21    1
    21    21    22    2
    22    22    23    1
    23    23    24    2
    24    23    25    1
    25     6    26    1
    26    26    27    1
    27    27    28    2
    28    27    29   am
    29    29    30    1
    30    30    31    2
    31    31    32    1
    32    32    33    2
    33    33    34    1
    34    34    35    1
    35    34    36    2
    36    33    37    1
    37    37    38    2
    38    26    39    2
    39    39     3    1
    40    22     7    1
    41    38    30    1
@<TRIPOS>SUBSTRUCTURE
     1 RES1        1 GROUP             0 ****  ****    0  
@<TRIPOS>MOLECULE
ligand_20
    39    41     1     0     0
SMALL
USER_CHARGES
****
Generated from the CSD

@<TRIPOS>ATOM
     1 C1      81.5021  42.4066  49.8136   C.3       1 RES1   0.0000
     2 O2      81.9626  42.0401  51.1148   O.3       1 RES1   0.0000
     3 C3      82.9860  41.1665  51.2045   C.2       1 RES1   0.0000
     4 C4      83.4681  40.9098  52.4895   C.2       1 RES1   0.0000
     5 C5      84.6286  40.1610  52.6154   C.2       1 RES1   0.0000
     6 C6      85.2730  39.6408  51.4876   C.2       1 RES1   0.0000
     7 C7      86.5529  38.8792  51.6762   C.2       1 RES1   0.0000
     8 C8      86.5423  37.5020  51.4101   C.2       1 RES1   0.0000
     9 C9      87.6779  36.7266  51.6075   C.2       1 RES1   0.0000
    10 C10     88.8674  37.3057  52.0468   C.2       1 RES1   0.0000
    11 C11     90.1045  36.5020  52.2905   C.2       1 RES1   0.0000
    12 O12     90.9443  36.8609  53.1139   O.2       1 RES1   0.0000
    13 N13     90.2284  35.3581  51.5919   N.am      1 RES1   0.0000
    14 C14     91.3236  34.4003  51.7031   C.3       1 RES1   0.0000
    15 C15     92.0832  34.3069  50.3149   C.3       1 RES1   0.0000
    16 O16     92.6702  35.5470  49.9678   O.3       1 RES1   0.0000
    17 C17     90.9444  33.0321  52.3409   C.3       1 RES1   0.0000
    18 C18     89.9326  32.2840  51.4556   C.3       1 RES1   0.0000
    19 C19     92.1941  32.1561  52.5134   C.3       1 RES1   0.0000
    20 C20     90.3136  33.2630  53.7228   C.3       1 RES1   0.0000
    21 C21     88.9049  38.6766  52.2913   C.2       1 RES1   0.0000
    22 C22     87.7573  39.4586  52.1322   C.2       1 RES1   0.0000
    23 C23     87.8821  40.8941  52.5559   C.2       1 RES1   0.0000
    24 O24     86.9223  41.6585  52.4986   O.co2     1 RES1   0.0000
    25 O25     89.0804  41.2698  52.9461   O.co2     1 RES1  -1.0000
    26 C26     84.6371  39.9133  50.2313   C.2       1 RES1   0.0000
    27 C27     85.1711  39.2865  48.9731   C.2       1 RES1   0.0000
    28 O28     85.0365  38.0819  48.7784   O.2       1 RES1   0.0000
    29 N29     85.9175  40.0763  48.1612   N.am      1 RES1   0.0000
    30 C30     86.6426  39.7070  46.9964   C.2       1 RES1   0.0000
    31 C31     86.2555  38.6700  46.1516   C.2       1 RES1   0.0000
    32 C32     86.9669  38.4084  44.9907   C.2       1 RES1   0.0000
    33 C33     88.0991  39.1567  44.6642   C.2       1 RES1   0.0000
    34 C34     88.8430  38.9353  43.3707   C.2       1 RES1   0.0000
    35 N35     90.2173  39.1324  43.4340   N.pl3     1 RES1   0.0000
    36 N36     88.1732  38.5445  42.3232   N.pl3     1 RES1   1.0000
    37 C37     88.5226  40.1458  45.5510   C.2       1 RES1   0.0000
    38 C38     87.8029  40.4183  46.7051   C.2       1 RES1   0.0000
    39 N39     83.5362  40.6724  50.0939   N.2       1 RES1   0.0000
@<TRIPOS>BOND
     1     1     2    1
     2     2     3    1
     3     3     4    2
     4     4     5    1
     5     5     6    2
     6     6     7    1
     7     7     8    2
     8     8     9    1
     9     9    10    2
    10    10    11    1
    11    11    12    2
    12    11    13   am
    13    13    14    1
    14    14    15    1
    15    15    16    1
    16    14    17    1
    17    17    18    1
    18    17    19    1
    19    17    20    1
    20    10    21    1
    21    21    22    2
    22    22    23    1
    23    23    24    2
    24    23    25    1
    25     6    26    1
    26    26    27    1
    27    27    28    2
    28    27    29   am
    29    29    30    1
    30    30    31    2
    31    31    32    1
    32    32    33    2
    33    33    34    1
    34    34    35    1
    35    34    36    2
    36    33    37    1
    37    37    38    2
    38    26    39    2
    39    39     3    1
    40    22     7    1
    41    38    30    1
@<TRIPOS>SUBSTRUCTURE
     1 RES1        1 GROUP             0 ****  ****    0  
@<TRIPOS>MOLECULE
ligand_21
    39    41     1     0     0
SMALL
USER_CHARGES
****
Generated from the CSD

@<TRIPOS>ATOM
     1 C1      81.5021  42.4066  49.8136   C.3       1 RES1   0.0000
     2 O2      81.9626  42.0401  51.1148   O.3       1 RES1   0.0000
     3 C3      82.9860  41.1665  51.2045   C.2       1 RES1   0.0000
     4 C4      83.4681  40.9098  52.4895   C.2       1 RES1   0.0000
     5 C5      84.6286  40.1610  52.6154   C.2       1 RES1   0.0000
     6 C6      85.2730  39.6408  51.4876   C.2       1 RES1   0.0000
     7 C7      86.5529  38.8792  51.6762   C.2       1 RES1   0.0000
     8 C8      86.5423  37.5021  51.4100   C.2       1 RES1   0.0000
     9 C9      87.6780  36.7267  51.6074   C.2       1 RES1   0.0000
    10 C10     88.8674  37.3057  52.0468   C.2       1 RES1   0.0000
    11 C11     90.1045  36.5020  52.2905   C.2       1 RES1   0.0000
    12 O12     90.9443  36.8608  53.1140   O.2       1 RES1   0.0000
    13 N13     90.2285  35.3582  51.5917   N.am      1 RES1   0.0000
    14 C14     91.3237  34.4004  51.7030   C.3       1 RES1   0.0000
    15 C15     92.0835  34.3073  50.3148   C.3       1 RES1   0.0000
    16 O16     92.6706  35.5474  49.9681   O.3       1 RES1   0.0000
    17 C17     90.9444  33.0321  52.3404   C.3       1 RES1   0.0000
    18 C18     89.9326  32.2842  51.4549   C.3       1 RES1   0.0000
    19 C19     92.1941  32.1560  52.5129   C.3       1 RES1   0.0000
    20 C20     90.3135  33.2628  53.7223   C.3       1 RES1   0.0000
    21 C21     88.9049  38.6766  52.2914   C.2       1 RES1   0.0000
    22 C22     87.7573  39.4586  52.1323   C.2       1 RES1   0.0000
    23 C23     87.8821  40.8941  52.5561   C.2       1 RES1   0.0000
    24 O24     86.9222  41.6584  52.4988   O.co2     1 RES1   0.0000
    25 O25     89.0803  41.2698  52.9464   O.co2     1 RES1  -1.0000
    26 C26     84.6371  39.9133  50.2313   C.2       1 RES1   0.0000
    27 C27     85.1711  39.2865  48.9731   C.2       1 RES1   0.0000
    28 O28     85.0365  38.0819  48.7784   O.2       1 RES1   0.0000
    29 N29     85.9175  40.0763  48.1612   N.am      1 RES1   0.0000
    30 C30     86.6511  39.7051  47.0023   C.2       1 RES1   0.0000
    31 C31     87.2267  38.4487  46.8318   C.2       1 RES1   0.0000
    32 C32     87.8670  38.1258  45.6452   C.2       1 RES1   0.0000
    33 C33     87.9739  39.0615  44.6150   C.2       1 RES1   0.0000
    34 C34     88.6021  38.7058  43.2905   C.2       1 RES1   0.0000
    35 N35     88.1136  39.4059  42.1937   N.pl3     1 RES1   0.0000
    36 N36     89.5612  37.8237  43.2701   N.pl3     1 RES1   1.0000
    37 C37     87.4586  40.3407  44.8206   C.2       1 RES1   0.0000
    38 C38     86.8045  40.6600  46.0014   C.2       1 RES1   0.0000
    39 N39     83.5362  40.6724  50.0939   N.2       1 RES1   0.0000
@<TRIPOS>BOND
     1     1     2    1
     2     2     3    1
     3     3     4    2
     4     4     5    1
     5     5     6    2
     6     6     7    1
     7     7     8    2
     8     8     9    1
     9     9    10    2
    10    10    11    1
    11    11    12    2
    12    11    13   am
    13    13    14    1
    14    14    15    1
    15    15    16    1
    16    14    17    1
    17    17    18    1
    18    17    19    1
    19    17    20    1
    20    10    21    1
    21    21    22    2
    22    22    23    1
    23    23    24    2
    24    23    25    1
    25     6    26    1
    26    26    27    1
    27    27    28    2
    28    27    29   am
    29    29    30    1
    30    30    31    2
    31    31    32    1
    32    32    33    2
    33    33    34    1
    34    34    35    1
    35    34    36    2
    36    33    37    1
    37    37    38    2
    38    26    39    2
    39    39     3    1
    40    22     7    1
    41    38    30    1
@<TRIPOS>SUBSTRUCTURE
     1 RES1        1 GROUP             0 ****  ****    0  
@<TRIPOS>MOLECULE
ligand_22
    39    41     1     0     0
SMALL
USER_CHARGES
****
Generated from the CSD

@<TRIPOS>ATOM
     1 C1      81.5021  42.4066  49.8136   C.3       1 RES1   0.0000
     2 O2      81.9626  42.0401  51.1148   O.3       1 RES1   0.0000
     3 C3      82.9860  41.1665  51.2045   C.2       1 RES1   0.0000
     4 C4      83.4681  40.9098  52.4895   C.2       1 RES1   0.0000
     5 C5      84.6286  40.1610  52.6154   C.2       1 RES1   0.0000
     6 C6      85.2730  39.6408  51.4876   C.2       1 RES1   0.0000
     7 C7      86.5529  38.8792  51.6762   C.2       1 RES1   0.0000
     8 C8      86.5423  37.5021  51.4098   C.2       1 RES1   0.0000
     9 C9      87.6780  36.7267  51.6072   C.2       1 RES1   0.0000
    10 C10     88.8674  37.3057  52.0468   C.2       1 RES1   0.0000
    11 C11     90.1045  36.5020  52.2905   C.2       1 RES1   0.0000
    12 O12     90.9441  36.8606  53.1143   O.2       1 RES1   0.0000
    13 N13     90.2286  35.3584  51.5914   N.am      1 RES1   0.0000
    14 C14     91.3238  34.4006  51.7026   C.3       1 RES1   0.0000
    15 C15     92.0840  34.3079  50.3146   C.3       1 RES1   0.0000
    16 O16     92.6712  35.5481  49.9684   O.3       1 RES1   0.0000
    17 C17     90.9444  33.0320  52.3395   C.3       1 RES1   0.0000
    18 C18     89.9329  32.2844  51.4535   C.3       1 RES1   0.0000
    19 C19     92.1940  32.1560  52.5122   C.3       1 RES1   0.0000
    20 C20     90.3131  33.2623  53.7213   C.3       1 RES1   0.0000
    21 C21     88.9048  38.6766  52.2915   C.2       1 RES1   0.0000
    22 C22     87.7572  39.4586  52.1325   C.2       1 RES1   0.0000
    23 C23     87.8820  40.8940  52.5564   C.2       1 RES1   0.0000
    24 O24     86.9221  41.6584  52.4991   O.co2     1 RES1   0.0000
    25 O25     89.0802  41.2697  52.9469   O.co2     1 RES1  -1.0000
    26 C26     84.6371  39.9133  50.2313   C.2       1 RES1   0.0000
    27 C27     85.1711  39.2865  48.9731   C.2       1 RES1   0.0000
    28 O28     86.2016  39.7132  48.4603   O.2       1 RES1   0.0000
    29 N29     84.3933  38.3503  48.3741   N.am      1 RES1   0.0000
    30 C30     84.5939  37.7075  47.1229   C.2       1 RES1   0.0000
    31 C31     85.8537  37.4548  46.5865   C.2       1 RES1   0.0000
    32 C32     85.9817  36.7574  45.3950   C.2       1 RES1   0.0000
    33 C33     84.8529  36.3248  44.6971   C.2       1 RES1   0.0000
    34 C34     84.9728  35.5024  43.4383   C.2       1 RES1   0.0000
    35 N35     83.9220  34.6248  43.1990   N.pl3     1 RES1   0.0000
    36 N36     86.0013  35.6949  42.6612   N.pl3     1 RES1   1.0000
    37 C37     83.5935  36.6444  45.2032   C.2       1 RES1   0.0000
    38 C38     83.4645  37.3288  46.4028   C.2       1 RES1   0.0000
    39 N39     83.5362  40.6724  50.0939   N.2       1 RES1   0.0000
@<TRIPOS>BOND
     1     1     2    1
     2     2     3    1
     3     3     4    2
     4     4     5    1
     5     5     6    2
     6     6     7    1
     7     7     8    2
     8     8     9    1
     9     9    10    2
    10    10    11    1
    11    11    12    2
    12    11    13   am
    13    13    14    1
    14    14    15    1
    15    15    16    1
    16    14    17    1
    17    17    18    1
    18    17    19    1
    19    17    20    1
    20    10    21    1
    21    21    22    2
    22    22    23    1
    23    23    24    2
    24    23    25    1
    25     6    26    1
    26    26    27    1
    27    27    28    2
    28    27    29   am
    29    29    30    1
    30    30    31    2
    31    31    32    1
    32    32    33    2
    33    33    34    1
    34    34    35    1
    35    34    36    2
    36    33    37    1
    37    37    38    2
    38    26    39    2
    39    39     3    1
    40    22     7    1
    41    38    30    1
@<TRIPOS>SUBSTRUCTURE
     1 RES1        1 GROUP             0 ****  ****    0  
@<TRIPOS>MOLECULE
ligand_23
    39    41     1     0     0
SMALL
USER_CHARGES
****
Generated from the CSD

@<TRIPOS>ATOM
     1 C1      81.5021  42.4066  49.8136   C.3       1 RES1   0.0000
     2 O2      81.9626  42.0401  51.1148   O.3       1 RES1   0.0000
     3 C3      82.9860  41.1665  51.2045   C.2       1 RES1   0.0000
     4 C4      83.4681  40.9098  52.4895   C.2       1 RES1   0.0000
     5 C5      84.6286  40.1610  52.6154   C.2       1 RES1   0.0000
     6 C6      85.2730  39.6408  51.4876   C.2       1 RES1   0.0000
     7 C7      86.5529  38.8792  51.6762   C.2       1 RES1   0.0000
     8 C8      86.5424  37.5021  51.4096   C.2       1 RES1   0.0000
     9 C9      87.6781  36.7267  51.6070   C.2       1 RES1   0.0000
    10 C10     88.8674  37.3057  52.0468   C.2       1 RES1   0.0000
    11 C11     90.1045  36.5020  52.2904   C.2       1 RES1   0.0000
    12 O12     90.9438  36.8603  53.1146   O.2       1 RES1   0.0000
    13 N13     90.2289  35.3587  51.5909   N.am      1 RES1   0.0000
    14 C14     91.3241  34.4008  51.7021   C.3       1 RES1   0.0000
    15 C15     92.0848  34.3087  50.3144   C.3       1 RES1   0.0000
    16 O16     92.6722  35.5491  49.9690   O.3       1 RES1   0.0000
    17 C17     90.9444  33.0320  52.3383   C.3       1 RES1   0.0000
    18 C18     89.9332  32.2848  51.4515   C.3       1 RES1   0.0000
    19 C19     92.1939  32.1558  52.5109   C.3       1 RES1   0.0000
    20 C20     90.3125  33.2617  53.7199   C.3       1 RES1   0.0000
    21 C21     88.9048  38.6765  52.2917   C.2       1 RES1   0.0000
    22 C22     87.7572  39.4586  52.1327   C.2       1 RES1   0.0000
    23 C23     87.8818  40.8939  52.5568   C.2       1 RES1   0.0000
    24 O24     86.9219  41.6582  52.4997   O.co2     1 RES1   0.0000
    25 O25     89.0800  41.2696  52.9473   O.co2     1 RES1  -1.0000
    26 C26     84.6371  39.9133  50.2313   C.2       1 RES1   0.0000
    27 C27     85.1711  39.2865  48.9731   C.2       1 RES1   0.0000
    28 O28     86.2016  39.7132  48.4603   O.2       1 RES1   0.0000
    29 N29     84.3933  38.3503  48.3741   N.am      1 RES1   0.0000
    30 C30     84.5883  37.7153  47.1181   C.2       1 RES1   0.0000
    31 C31     85.2244  38.3285  46.0420   C.2       1 RES1   0.0000
    32 C32     85.4481  37.6272  44.8670   C.2       1 RES1   0.0000
    33 C33     85.0132  36.3078  44.7302   C.2       1 RES1   0.0000
    34 C34     85.3113  35.5055  43.4881   C.2       1 RES1   0.0000
    35 N35     84.3309  34.5912  43.1214   N.pl3     1 RES1   0.0000
    36 N36     86.4148  35.7464  42.8379   N.pl3     1 RES1   1.0000
    37 C37     84.3132  35.7241  45.7854   C.2       1 RES1   0.0000
    38 C38     84.1021  36.4199  46.9668   C.2       1 RES1   0.0000
    39 N39     83.5362  40.6724  50.0939   N.2       1 RES1   0.0000
@<TRIPOS>BOND
     1     1     2    1
     2     2     3    1
     3     3     4    2
     4     4     5    1
     5     5     6    2
     6     6     7    1
     7     7     8    2
     8     8     9    1
     9     9    10    2
    10    10    11    1
    11    11    12    2
    12    11    13   am
    13    13    14    1
    14    14    15    1
    15    15    16    1
    16    14    17    1
    17    17    18    1
    18    17    19    1
    19    17    20    1
    20    10    21    1
    21    21    22    2
    22    22    23    1
    23    23    24    2
    24    23    25    1
    25     6    26    1
    26    26    27    1
    27    27    28    2
    28    27    29   am
    29    29    30    1
    30    30    31    2
    31    31    32    1
    32    32    33    2
    33    33    34    1
    34    34    35    1
    35    34    36    2
    36    33    37    1
    37    37    38    2
    38    26    39    2
    39    39     3    1
    40    22     7    1
    41    38    30    1
@<TRIPOS>SUBSTRUCTURE
     1 RES1        1 GROUP             0 ****  ****    0  
@<TRIPOS>MOLECULE
ligand_24
    39    41     1     0     0
SMALL
USER_CHARGES
****
Generated from the CSD

@<TRIPOS>ATOM
     1 C1      81.1385  41.8263  49.7410   C.3       1 RES1   0.0000
     2 O2      82.3114  42.3205  50.3888   O.3       1 RES1   0.0000
     3 C3      83.2551  41.4315  50.7601   C.2       1 RES1   0.0000
     4 C4      84.4265  41.9643  51.3017   C.2       1 RES1   0.0000
     5 C5      85.4910  41.1055  51.5310   C.2       1 RES1   0.0000
     6 C6      85.3778  39.7360  51.2676   C.2       1 RES1   0.0000
     7 C7      86.5760  38.8585  51.4867   C.2       1 RES1   0.0000
     8 C8      87.0914  38.7647  52.7879   C.2       1 RES1   0.0000
     9 C9      88.2257  38.0083  53.0551   C.2       1 RES1   0.0000
    10 C10     88.8628  37.2978  52.0391   C.2       1 RES1   0.0000
    11 C11     90.0968  36.4893  52.2826   C.2       1 RES1   0.0000
    12 O12     90.8989  36.8016  53.1607   O.2       1 RES1   0.0000
    13 N13     90.2601  35.3927  51.5192   N.am      1 RES1   0.0000
    14 C14     91.3773  34.4568  51.5917   C.3       1 RES1   0.0000
    15 C15     92.1603  34.4652  50.2134   C.3       1 RES1   0.0000
    16 O16     92.7214  35.7376  49.9509   O.3       1 RES1   0.0000
    17 C17     91.0229  33.0439  52.1403   C.3       1 RES1   0.0000
    18 C18     90.0437  32.3262  51.1952   C.3       1 RES1   0.0000
    19 C19     92.2913  32.1896  52.2812   C.3       1 RES1   0.0000
    20 C20     90.3654  33.1763  53.5228   C.3       1 RES1   0.0000
    21 C21     88.3502  37.3574  50.7451   C.2       1 RES1   0.0000
    22 C22     87.2322  38.1460  50.4590   C.2       1 RES1   0.0000
    23 C23     86.8544  38.2407  49.0085   C.2       1 RES1   0.0000
    24 O24     86.6670  39.3294  48.4713   O.co2     1 RES1   0.0000
    25 O25     86.7048  37.0934  48.3837   O.co2     1 RES1  -1.0000
    26 C26     84.0991  39.3030  50.7832   C.2       1 RES1   0.0000
    27 C27     83.8289  37.8352  50.5989   C.2       1 RES1   0.0000
    28 O28     84.7022  37.0104  50.8516   O.2       1 RES1   0.0000
    29 N29     82.6531  37.4949  50.0143   N.am      1 RES1   0.0000
    30 C30     82.2120  36.2072  49.6066   C.2       1 RES1   0.0000
    31 C31     82.5933  35.0306  50.2462   C.2       1 RES1   0.0000
    32 C32     82.0686  33.8119  49.8440   C.2       1 RES1   0.0000
    33 C33     81.1755  33.7383  48.7737   C.2       1 RES1   0.0000
    34 C34     80.5382  32.4325  48.3684   C.2       1 RES1   0.0000
    35 N35     80.2966  32.2859  47.0076   N.pl3     1 RES1   0.0000
    36 N36     80.3035  31.5393  49.2880   N.pl3     1 RES1   1.0000
    37 C37     80.8542  34.9115  48.0921   C.2       1 RES1   0.0000
    38 C38     81.3669  36.1331  48.5032   C.2       1 RES1   0.0000
    39 N39     83.0746  40.1319  50.5179   N.2       1 RES1   0.0000
@<TRIPOS>BOND
     1     1     2    1
     2     2     3    1
     3     3     4    2
     4     4     5    1
     5     5     6    2
     6     6     7    1
     7     7     8    2
     8     8     9    1
     9     9    10    2
    10    10    11    1
    11    11    12    2
    12    11    13   am
    13    13    14    1
    14    14    15    1
    15    15    16    1
    16    14    17    1
    17    17    18    1
    18    17    19    1
    19    17    20    1
    20    10    21    1
    21    21    22    2
    22    22    23    1
    23    23    24    2
    24    23    25    1
    25     6    26    1
    26    26    27    1
    27    27    28    2
    28    27    29   am
    29    29    30    1
    30    30    31    2
    31    31    32    1
    32    32    33    2
    33    33    34    1
    34    34    35    1
    35    34    36    2
    36    33    37    1
    37    37    38    2
    38    26    39    2
    39    39     3    1
    40    22     7    1
    41    38    30    1
@<TRIPOS>SUBSTRUCTURE
     1 RES1        1 GROUP             0 ****  ****    0  
@<TRIPOS>MOLECULE
ligand_25
    39    41     1     0     0
SMALL
USER_CHARGES
****
Generated from the CSD

@<TRIPOS>ATOM
     1 C1      81.1385  41.8263  49.7410   C.3       1 RES1   0.0000
     2 O2      82.3114  42.3205  50.3888   O.3       1 RES1   0.0000
     3 C3      83.2551  41.4315  50.7601   C.2       1 RES1   0.0000
     4 C4      84.4265  41.9643  51.3017   C.2       1 RES1   0.0000
     5 C5      85.4910  41.1055  51.5310   C.2       1 RES1   0.0000
     6 C6      85.3778  39.7360  51.2676   C.2       1 RES1   0.0000
     7 C7      86.5760  38.8585  51.4867   C.2       1 RES1   0.0000
     8 C8      87.0915  38.7648  52.7879   C.2       1 RES1   0.0000
     9 C9      88.2257  38.0084  53.0551   C.2       1 RES1   0.0000
    10 C10     88.8628  37.2978  52.0390   C.2       1 RES1   0.0000
    11 C11     90.0968  36.4894  52.2826   C.2       1 RES1   0.0000
    12 O12     90.8989  36.8016  53.1607   O.2       1 RES1   0.0000
    13 N13     90.2601  35.3927  51.5193   N.am      1 RES1   0.0000
    14 C14     91.3772  34.4567  51.5917   C.3       1 RES1   0.0000
    15 C15     92.1602  34.4651  50.2134   C.3       1 RES1   0.0000
    16 O16     92.7214  35.7375  49.9508   O.3       1 RES1   0.0000
    17 C17     91.0228  33.0439  52.1404   C.3       1 RES1   0.0000
    18 C18     90.0436  32.3262  51.1953   C.3       1 RES1   0.0000
    19 C19     92.2913  32.1896  52.2813   C.3       1 RES1   0.0000
    20 C20     90.3655  33.1763  53.5229   C.3       1 RES1   0.0000
    21 C21     88.3502  37.3573  50.7451   C.2       1 RES1   0.0000
    22 C22     87.2321  38.1459  50.4590   C.2       1 RES1   0.0000
    23 C23     86.8543  38.2406  49.0086   C.2       1 RES1   0.0000
    24 O24     86.6669  39.3292  48.4713   O.co2     1 RES1   0.0000
    25 O25     86.7047  37.0932  48.3837   O.co2     1 RES1  -1.0000
    26 C26     84.0991  39.3030  50.7832   C.2       1 RES1   0.0000
    27 C27     83.8289  37.8352  50.5989   C.2       1 RES1   0.0000
    28 O28     84.7022  37.0104  50.8516   O.2       1 RES1   0.0000
    29 N29     82.6531  37.4949  50.0143   N.am      1 RES1   0.0000
    30 C30     82.2164  36.2088  49.5970   C.2       1 RES1   0.0000
    31 C31     83.0839  35.2119  49.1586   C.2       1 RES1   0.0000
    32 C32     82.6001  33.9534  48.8352   C.2       1 RES1   0.0000
    33 C33     81.2349  33.6727  48.9124   C.2       1 RES1   0.0000
    34 C34     80.6984  32.2904  48.6351   C.2       1 RES1   0.0000
    35 N35     79.5366  31.9551  49.3202   N.pl3     1 RES1   0.0000
    36 N36     81.3174  31.5422  47.7660   N.pl3     1 RES1   1.0000
    37 C37     80.3640  34.6968  49.2827   C.2       1 RES1   0.0000
    38 C38     80.8487  35.9517  49.6209   C.2       1 RES1   0.0000
    39 N39     83.0746  40.1319  50.5179   N.2       1 RES1   0.0000
@<TRIPOS>BOND
     1     1     2    1
     2     2     3    1
     3     3     4    2
     4     4     5    1
     5     5     6    2
     6     6     7    1
     7     7     8    2
     8     8     9    1
     9     9    10    2
    10    10    11    1
    11    11    12    2
    12    11    13   am
    13    13    14    1
    14    14    15    1
    15    15    16    1
    16    14    17    1
    17    17    18    1
    18    17    19    1
    19    17    20    1
    20    10    21    1
    21    21    22    2
    22    22    23    1
    23    23    24    2
    24    23    25    1
    25     6    26    1
    26    26    27    1
    27    27    28    2
    28    27    29   am
    29    29    30    1
    30    30    31    2
    31    31    32    1
    32    32    33    2
    33    33    34    1
    34    34    35    1
    35    34    36    2
    36    33    37    1
    37    37    38    2
    38    26    39    2
    39    39     3    1
    40    22     7    1
    41    38    30    1
@<TRIPOS>SUBSTRUCTURE
     1 RES1        1 GROUP             0 ****  ****    0  
@<TRIPOS>MOLECULE
ligand_26
    39    41     1     0     0
SMALL
USER_CHARGES
****
Generated from the CSD

@<TRIPOS>ATOM
     1 C1      80.7755  41.4766  50.4356   C.3       1 RES1   0.0000
     2 O2      82.0863  41.8691  50.0266   O.3       1 RES1   0.0000
     3 C3      83.1377  41.1791  50.5135   C.2       1 RES1   0.0000
     4 C4      84.3929  41.5322  50.0143   C.2       1 RES1   0.0000
     5 C5      85.4778  40.7357  50.3488   C.2       1 RES1   0.0000
     6 C6      85.3250  39.6348  51.1987   C.2       1 RES1   0.0000
     7 C7      86.5222  38.7769  51.4891   C.2       1 RES1   0.0000
     8 C8      87.6150  39.3727  52.1357   C.2       1 RES1   0.0000
     9 C9      88.7736  38.6509  52.3941   C.2       1 RES1   0.0000
    10 C10     88.8667  37.3051  52.0433   C.2       1 RES1   0.0000
    11 C11     90.1032  36.5002  52.2859   C.2       1 RES1   0.0000
    12 O12     90.8469  36.7466  53.2337   O.2       1 RES1   0.0000
    13 N13     90.3347  35.4795  51.4393   N.am      1 RES1   0.0000
    14 C14     91.4340  34.5242  51.5291   C.3       1 RES1   0.0000
    15 C15     92.3489  34.6531  50.2410   C.3       1 RES1   0.0000
    16 O16     92.9404  35.9362  50.1593   O.3       1 RES1   0.0000
    17 C17     91.0193  33.0707  51.9007   C.3       1 RES1   0.0000
    18 C18     90.1339  32.4620  50.7996   C.3       1 RES1   0.0000
    19 C19     92.2629  32.1876  52.0809   C.3       1 RES1   0.0000
    20 C20     90.2298  33.0795  53.2189   C.3       1 RES1   0.0000
    21 C21     87.7818  36.6887  51.4239   C.2       1 RES1   0.0000
    22 C22     86.6262  37.4163  51.1254   C.2       1 RES1   0.0000
    23 C23     85.5795  36.6834  50.3361   C.2       1 RES1   0.0000
    24 O24     85.0927  37.1725  49.3199   O.co2     1 RES1   0.0000
    25 O25     85.2052  35.5226  50.8279   O.co2     1 RES1  -1.0000
    26 C26     83.9993  39.4222  51.7029   C.2       1 RES1   0.0000
    27 C27     83.7541  38.3509  52.7294   C.2       1 RES1   0.0000
    28 O28     84.6825  37.6532  53.1271   O.2       1 RES1   0.0000
    29 N29     82.4634  38.1082  53.0690   N.am      1 RES1   0.0000
    30 C30     81.9502  37.0766  53.9005   C.2       1 RES1   0.0000
    31 C31     82.6603  36.5289  54.9657   C.2       1 RES1   0.0000
    32 C32     82.0732  35.5758  55.7838   C.2       1 RES1   0.0000
    33 C33     80.7751  35.1260  55.5369   C.2       1 RES1   0.0000
    34 C34     80.0935  34.1445  56.4576   C.2       1 RES1   0.0000
    35 N35     79.2230  33.2550  55.8390   N.pl3     1 RES1   0.0000
    36 N36     80.3901  34.1677  57.7264   N.pl3     1 RES1   1.0000
    37 C37     80.0967  35.6259  54.4260   C.2       1 RES1   0.0000
    38 C38     80.6775  36.5904  53.6157   C.2       1 RES1   0.0000
    39 N39     82.9330  40.1621  51.3526   N.2       1 RES1   0.0000
@<TRIPOS>BOND
     1     1     2    1
     2     2     3    1
     3     3     4    2
     4     4     5    1
     5     5     6    2
     6     6     7    1
     7     7     8    2
     8     8     9    1
     9     9    10    2
    10    10    11    1
    11    11    12    2
    12    11    13   am
    13    13    14    1
    14    14    15    1
    15    15    16    1
    16    14    17    1
    17    17    18    1
    18    17    19    1
    19    17    20    1
    20    10    21    1
    21    21    22    2
    22    22    23    1
    23    23    24    2
    24    23    25    1
    25     6    26    1
    26    26    27    1
    27    27    28    2
    28    27    29   am
    29    29    30    1
    30    30    31    2
    31    31    32    1
    32    32    33    2
    33    33    34    1
    34    34    35    1
    35    34    36    2
    36    33    37    1
    37    37    38    2
    38    26    39    2
    39    39     3    1
    40    22     7    1
    41    38    30    1
@<TRIPOS>SUBSTRUCTURE
     1 RES1        1 GROUP             0 ****  ****    0  
@<TRIPOS>MOLECULE
ligand_27
    39    41     1     0     0
SMALL
USER_CHARGES
****
Generated from the CSD

@<TRIPOS>ATOM
     1 C1      80.7755  41.4766  50.4356   C.3       1 RES1   0.0000
     2 O2      82.0863  41.8691  50.0266   O.3       1 RES1   0.0000
     3 C3      83.1377  41.1791  50.5135   C.2       1 RES1   0.0000
     4 C4      84.3929  41.5322  50.0143   C.2       1 RES1   0.0000
     5 C5      85.4778  40.7357  50.3488   C.2       1 RES1   0.0000
     6 C6      85.3250  39.6348  51.1987   C.2       1 RES1   0.0000
     7 C7      86.5222  38.7769  51.4891   C.2       1 RES1   0.0000
     8 C8      87.6151  39.3727  52.1356   C.2       1 RES1   0.0000
     9 C9      88.7737  38.6510  52.3940   C.2       1 RES1   0.0000
    10 C10     88.8667  37.3051  52.0432   C.2       1 RES1   0.0000
    11 C11     90.1032  36.5002  52.2859   C.2       1 RES1   0.0000
    12 O12     90.8470  36.7466  53.2336   O.2       1 RES1   0.0000
    13 N13     90.3346  35.4795  51.4394   N.am      1 RES1   0.0000
    14 C14     91.4339  34.5241  51.5291   C.3       1 RES1   0.0000
    15 C15     92.3488  34.6529  50.2410   C.3       1 RES1   0.0000
    16 O16     92.9403  35.9360  50.1592   O.3       1 RES1   0.0000
    17 C17     91.0192  33.0707  51.9009   C.3       1 RES1   0.0000
    18 C18     90.1337  32.4619  50.7998   C.3       1 RES1   0.0000
    19 C19     92.2628  32.1875  52.0810   C.3       1 RES1   0.0000
    20 C20     90.2298  33.0796  53.2191   C.3       1 RES1   0.0000
    21 C21     87.7817  36.6887  51.4240   C.2       1 RES1   0.0000
    22 C22     86.6261  37.4162  51.1255   C.2       1 RES1   0.0000
    23 C23     85.5794  36.6833  50.3363   C.2       1 RES1   0.0000
    24 O24     85.0926  37.1724  49.3201   O.co2     1 RES1   0.0000
    25 O25     85.2051  35.5226  50.8282   O.co2     1 RES1  -1.0000
    26 C26     83.9993  39.4222  51.7029   C.2       1 RES1   0.0000
    27 C27     83.7541  38.3509  52.7294   C.2       1 RES1   0.0000
    28 O28     84.6825  37.6532  53.1271   O.2       1 RES1   0.0000
    29 N29     82.4634  38.1082  53.0690   N.am      1 RES1   0.0000
    30 C30     81.9491  37.0701  53.8918   C.2       1 RES1   0.0000
    31 C31     82.5423  35.8150  53.9992   C.2       1 RES1   0.0000
    32 C32     82.0316  34.8707  54.8767   C.2       1 RES1   0.0000
    33 C33     80.8985  35.1485  55.6430   C.2       1 RES1   0.0000
    34 C34     80.3716  34.1622  56.6554   C.2       1 RES1   0.0000
    35 N35     79.7174  34.7221  57.7463   N.pl3     1 RES1   0.0000
    36 N36     80.5230  32.8884  56.4250   N.pl3     1 RES1   1.0000
    37 C37     80.2675  36.3808  55.4771   C.2       1 RES1   0.0000
    38 C38     80.7863  37.3317  54.6106   C.2       1 RES1   0.0000
    39 N39     82.9330  40.1621  51.3526   N.2       1 RES1   0.0000
@<TRIPOS>BOND
     1     1     2    1
     2     2     3    1
     3     3     4    2
     4     4     5    1
     5     5     6    2
     6     6     7    1
     7     7     8    2
     8     8     9    1
     9     9    10    2
    10    10    11    1
    11    11    12    2
    12    11    13   am
    13    13    14    1
    14    14    15    1
    15    15    16    1
    16    14    17    1
    17    17    18    1
    18    17    19    1
    19    17    20    1
    20    10    21    1
    21    21    22    2
    22    22    23    1
    23    23    24    2
    24    23    25    1
    25     6    26    1
    26    26    27    1
    27    27    28    2
    28    27    29   am
    29    29    30    1
    30    30    31    2
    31    31    32    1
    32    32    33    2
    33    33    34    1
    34    34    35    1
    35    34    36    2
    36    33    37    1
    37    37    38    2
    38    26    39    2
    39    39     3    1
    40    22     7    1
    41    38    30    1
@<TRIPOS>SUBSTRUCTURE
     1 RES1        1 GROUP             0 ****  ****    0  
@<TRIPOS>MOLECULE
ligand_28
    39    41     1     0     0
SMALL
USER_CHARGES
****
Generated from the CSD

@<TRIPOS>ATOM
     1 C1      81.4023  42.7168  51.3875   C.3       1 RES1   0.0000
     2 O2      81.5608  41.3523  50.9971   O.3       1 RES1   0.0000
     3 C3      82.7971  40.8160  51.0473   C.2       1 RES1   0.0000
     4 C4      82.8925  39.4550  50.7506   C.2       1 RES1   0.0000
     5 C5      84.1086  38.8228  50.9623   C.2       1 RES1   0.0000
     6 C6      85.2202  39.5396  51.4187   C.2       1 RES1   0.0000
     7 C7      86.4991  38.7975  51.6785   C.2       1 RES1   0.0000
     8 C8      87.1143  38.1515  50.5962   C.2       1 RES1   0.0000
     9 C9      88.2744  37.4078  50.7726   C.2       1 RES1   0.0000
    10 C10     88.8735  37.3108  52.0275   C.2       1 RES1   0.0000
    11 C11     90.1103  36.5038  52.2617   C.2       1 RES1   0.0000
    12 O12     90.8985  36.7938  53.1599   O.2       1 RES1   0.0000
    13 N13     90.2918  35.4331  51.4664   N.am      1 RES1   0.0000
    14 C14     91.4056  34.4928  51.5360   C.3       1 RES1   0.0000
    15 C15     92.2237  34.5459  50.1793   C.3       1 RES1   0.0000
    16 O16     92.7933  35.8251  49.9743   O.3       1 RES1   0.0000
    17 C17     91.0354  33.0632  52.0276   C.3       1 RES1   0.0000
    18 C18     90.0796  32.3798  51.0343   C.3       1 RES1   0.0000
    19 C19     92.2987  32.2018  52.1718   C.3       1 RES1   0.0000
    20 C20     90.3432  33.1504  53.3966   C.3       1 RES1   0.0000
    21 C21     88.2917  37.9673  53.1097   C.2       1 RES1   0.0000
    22 C22     87.1038  38.6863  52.9499   C.2       1 RES1   0.0000
    23 C23     86.4987  39.2350  54.2102   C.2       1 RES1   0.0000
    24 O24     85.3166  39.0419  54.4830   O.co2     1 RES1   0.0000
    25 O25     87.3035  39.9543  54.9612   O.co2     1 RES1  -1.0000
    26 C26     85.0116  40.9448  51.6155   C.2       1 RES1   0.0000
    27 C27     86.1744  41.8291  51.9724   C.2       1 RES1   0.0000
    28 O28     87.2966  41.3494  52.1052   O.2       1 RES1   0.0000
    29 N29     85.8943  43.1212  52.2760   N.am      1 RES1   0.0000
    30 C30     86.7750  44.1214  52.7686   C.2       1 RES1   0.0000
    31 C31     88.1333  44.1610  52.4647   C.2       1 RES1   0.0000
    32 C32     88.9233  45.2063  52.9182   C.2       1 RES1   0.0000
    33 C33     88.3803  46.2184  53.7115   C.2       1 RES1   0.0000
    34 C34     89.2061  47.4009  54.1533   C.2       1 RES1   0.0000
    35 N35     88.8901  47.9118  55.4066   N.pl3     1 RES1   0.0000
    36 N36     90.1598  47.8243  53.3725   N.pl3     1 RES1   1.0000
    37 C37     87.0359  46.1339  54.0717   C.2       1 RES1   0.0000
    38 C38     86.2413  45.0966  53.6061   C.2       1 RES1   0.0000
    39 N39     83.8274  41.5600  51.4538   N.2       1 RES1   0.0000
@<TRIPOS>BOND
     1     1     2    1
     2     2     3    1
     3     3     4    2
     4     4     5    1
     5     5     6    2
     6     6     7    1
     7     7     8    2
     8     8     9    1
     9     9    10    2
    10    10    11    1
    11    11    12    2
    12    11    13   am
    13    13    14    1
    14    14    15    1
    15    15    16    1
    16    14    17    1
    17    17    18    1
    18    17    19    1
    19    17    20    1
    20    10    21    1
    21    21    22    2
    22    22    23    1
    23    23    24    2
    24    23    25    1
    25     6    26    1
    26    26    27    1
    27    27    28    2
    28    27    29   am
    29    29    30    1
    30    30    31    2
    31    31    32    1
    32    32    33    2
    33    33    34    1
    34    34    35    1
    35    34    36    2
    36    33    37    1
    37    37    38    2
    38    26    39    2
    39    39     3    1
    40    22     7    1
    41    38    30    1
@<TRIPOS>SUBSTRUCTURE
     1 RES1        1 GROUP             0 ****  ****    0  
@<TRIPOS>MOLECULE
ligand_29
    39    41     1     0     0
SMALL
USER_CHARGES
****
Generated from the CSD

@<TRIPOS>ATOM
     1 C1      81.4023  42.7168  51.3875   C.3       1 RES1   0.0000
     2 O2      81.5608  41.3523  50.9971   O.3       1 RES1   0.0000
     3 C3      82.7971  40.8160  51.0473   C.2       1 RES1   0.0000
     4 C4      82.8925  39.4550  50.7506   C.2       1 RES1   0.0000
     5 C5      84.1086  38.8228  50.9623   C.2       1 RES1   0.0000
     6 C6      85.2202  39.5396  51.4187   C.2       1 RES1   0.0000
     7 C7      86.4991  38.7975  51.6785   C.2       1 RES1   0.0000
     8 C8      87.1143  38.1515  50.5962   C.2       1 RES1   0.0000
     9 C9      88.2744  37.4078  50.7726   C.2       1 RES1   0.0000
    10 C10     88.8735  37.3108  52.0275   C.2       1 RES1   0.0000
    11 C11     90.1103  36.5038  52.2617   C.2       1 RES1   0.0000
    12 O12     90.8985  36.7938  53.1599   O.2       1 RES1   0.0000
    13 N13     90.2918  35.4330  51.4664   N.am      1 RES1   0.0000
    14 C14     91.4055  34.4928  51.5360   C.3       1 RES1   0.0000
    15 C15     92.2237  34.5458  50.1793   C.3       1 RES1   0.0000
    16 O16     92.7933  35.8251  49.9743   O.3       1 RES1   0.0000
    17 C17     91.0354  33.0632  52.0276   C.3       1 RES1   0.0000
    18 C18     90.0796  32.3797  51.0344   C.3       1 RES1   0.0000
    19 C19     92.2987  32.2018  52.1718   C.3       1 RES1   0.0000
    20 C20     90.3432  33.1504  53.3967   C.3       1 RES1   0.0000
    21 C21     88.2917  37.9673  53.1097   C.2       1 RES1   0.0000
    22 C22     87.1038  38.6863  52.9499   C.2       1 RES1   0.0000
    23 C23     86.4987  39.2350  54.2102   C.2       1 RES1   0.0000
    24 O24     85.3166  39.0419  54.4830   O.co2     1 RES1   0.0000
    25 O25     87.3035  39.9543  54.9612   O.co2     1 RES1  -1.0000
    26 C26     85.0116  40.9448  51.6155   C.2       1 RES1   0.0000
    27 C27     86.1744  41.8291  51.9724   C.2       1 RES1   0.0000
    28 O28     87.2966  41.3494  52.1052   O.2       1 RES1   0.0000
    29 N29     85.8942  43.1212  52.2760   N.am      1 RES1   0.0000
    30 C30     86.7725  44.1185  52.7790   C.2       1 RES1   0.0000
    31 C31     87.8636  43.8346  53.5962   C.2       1 RES1   0.0000
    32 C32     88.7248  44.8463  53.9928   C.2       1 RES1   0.0000
    33 C33     88.4970  46.1685  53.6077   C.2       1 RES1   0.0000
    34 C34     89.4618  47.2707  53.9681   C.2       1 RES1   0.0000
    35 N35     89.5181  48.3290  53.0689   N.pl3     1 RES1   0.0000
    36 N36     90.1258  47.1799  55.0858   N.pl3     1 RES1   1.0000
    37 C37     87.3626  46.4558  52.8496   C.2       1 RES1   0.0000
    38 C38     86.5088  45.4423  52.4397   C.2       1 RES1   0.0000
    39 N39     83.8274  41.5600  51.4538   N.2       1 RES1   0.0000
@<TRIPOS>BOND
     1     1     2    1
     2     2     3    1
     3     3     4    2
     4     4     5    1
     5     5     6    2
     6     6     7    1
     7     7     8    2
     8     8     9    1
     9     9    10    2
    10    10    11    1
    11    11    12    2
    12    11    13   am
    13    13    14    1
    14    14    15    1
    15    15    16    1
    16    14    17    1
    17    17    18    1
    18    17    19    1
    19    17    20    1
    20    10    21    1
    21    21    22    2
    22    22    23    1
    23    23    24    2
    24    23    25    1
    25     6    26    1
    26    26    27    1
    27    27    28    2
    28    27    29   am
    29    29    30    1
    30    30    31    2
    31    31    32    1
    32    32    33    2
    33    33    34    1
    34    34    35    1
    35    34    36    2
    36    33    37    1
    37    37    38    2
    38    26    39    2
    39    39     3    1
    40    22     7    1
    41    38    30    1
@<TRIPOS>SUBSTRUCTURE
     1 RES1        1 GROUP             0 ****  ****    0  
@<TRIPOS>MOLECULE
ligand_30
    39    41     1     0     0
SMALL
USER_CHARGES
****
Generated from the CSD

@<TRIPOS>ATOM
     1 C1      81.7652  43.0666  50.6929   C.3       1 RES1   0.0000
     2 O2      81.7858  41.8036  51.3593   O.3       1 RES1   0.0000
     3 C3      82.9145  41.0684  51.2939   C.2       1 RES1   0.0000
     4 C4      82.9261  39.8871  52.0381   C.2       1 RES1   0.0000
     5 C5      84.1217  39.1925  52.1445   C.2       1 RES1   0.0000
     6 C6      85.2730  39.6408  51.4876   C.2       1 RES1   0.0000
     7 C7      86.5529  38.8792  51.6762   C.2       1 RES1   0.0000
     8 C8      86.5911  37.5440  51.2480   C.2       1 RES1   0.0000
     9 C9      87.7269  36.7657  51.4333   C.2       1 RES1   0.0000
    10 C10     88.8696  37.3036  52.0232   C.2       1 RES1   0.0000
    11 C11     90.1039  36.4930  52.2582   C.2       1 RES1   0.0000
    12 O12     90.8775  36.7634  53.1751   O.2       1 RES1   0.0000
    13 N13     90.2996  35.4410  51.4416   N.am      1 RES1   0.0000
    14 C14     91.4057  34.4922  51.5164   C.3       1 RES1   0.0000
    15 C15     92.2589  34.5733  50.1828   C.3       1 RES1   0.0000
    16 O16     92.8410  35.8534  50.0243   O.3       1 RES1   0.0000
    17 C17     91.0145  33.0533  51.9627   C.3       1 RES1   0.0000
    18 C18     90.0808  32.4008  50.9285   C.3       1 RES1   0.0000
    19 C19     92.2686  32.1804  52.1178   C.3       1 RES1   0.0000
    20 C20     90.2878  33.1112  53.3152   C.3       1 RES1   0.0000
    21 C21     88.8598  38.6355  52.4311   C.2       1 RES1   0.0000
    22 C22     87.7094  39.4156  52.2838   C.2       1 RES1   0.0000
    23 C23     87.7727  40.7912  52.8831   C.2       1 RES1   0.0000
    24 O24     86.8899  41.1974  53.6345   O.co2     1 RES1   0.0000
    25 O25     88.8019  41.5239  52.5181   O.co2     1 RES1  -1.0000
    26 C26     85.1115  40.8257  50.6959   C.2       1 RES1   0.0000
    27 C27     86.2492  41.3134  49.8420   C.2       1 RES1   0.0000
    28 O28     87.3161  40.7063  49.8298   O.2       1 RES1   0.0000
    29 N29     86.0841  42.5082  49.2211   N.am      1 RES1   0.0000
    30 C30     87.0370  43.2523  48.4747   C.2       1 RES1   0.0000
    31 C31     88.0661  42.6626  47.7453   C.2       1 RES1   0.0000
    32 C32     88.9184  43.4423  46.9785   C.2       1 RES1   0.0000
    33 C33     88.7809  44.8311  46.9483   C.2       1 RES1   0.0000
    34 C34     89.6511  45.6893  46.0642   C.2       1 RES1   0.0000
    35 N35     89.9643  46.9432  46.5752   N.pl3     1 RES1   0.0000
    36 N36     90.0731  45.1961  44.9340   N.pl3     1 RES1   1.0000
    37 C37     87.7940  45.4202  47.7376   C.2       1 RES1   0.0000
    38 C38     86.9313  44.6400  48.4934   C.2       1 RES1   0.0000
    39 N39     83.9690  41.5298  50.6191   N.2       1 RES1   0.0000
@<TRIPOS>BOND
     1     1     2    1
     2     2     3    1
     3     3     4    2
     4     4     5    1
     5     5     6    2
     6     6     7    1
     7     7     8    2
     8     8     9    1
     9     9    10    2
    10    10    11    1
    11    11    12    2
    12    11    13   am
    13    13    14    1
    14    14    15    1
    15    15    16    1
    16    14    17    1
    17    17    18    1
    18    17    19    1
    19    17    20    1
    20    10    21    1
    21    21    22    2
    22    22    23    1
    23    23    24    2
    24    23    25    1
    25     6    26    1
    26    26    27    1
    27    27    28    2
    28    27    29   am
    29    29    30    1
    30    30    31    2
    31    31    32    1
    32    32    33    2
    33    33    34    1
    34    34    35    1
    35    34    36    2
    36    33    37    1
    37    37    38    2
    38    26    39    2
    39    39     3    1
    40    22     7    1
    41    38    30    1
@<TRIPOS>SUBSTRUCTURE
     1 RES1        1 GROUP             0 ****  ****    0  
@<TRIPOS>MOLECULE
ligand_31
    39    41     1     0     0
SMALL
USER_CHARGES
****
Generated from the CSD

@<TRIPOS>ATOM
     1 C1      81.7652  43.0666  50.6929   C.3       1 RES1   0.0000
     2 O2      81.7858  41.8036  51.3593   O.3       1 RES1   0.0000
     3 C3      82.9145  41.0684  51.2939   C.2       1 RES1   0.0000
     4 C4      82.9261  39.8871  52.0381   C.2       1 RES1   0.0000
     5 C5      84.1217  39.1925  52.1445   C.2       1 RES1   0.0000
     6 C6      85.2730  39.6408  51.4876   C.2       1 RES1   0.0000
     7 C7      86.5529  38.8792  51.6762   C.2       1 RES1   0.0000
     8 C8      86.5911  37.5440  51.2480   C.2       1 RES1   0.0000
     9 C9      87.7269  36.7657  51.4333   C.2       1 RES1   0.0000
    10 C10     88.8696  37.3036  52.0232   C.2       1 RES1   0.0000
    11 C11     90.1039  36.4930  52.2582   C.2       1 RES1   0.0000
    12 O12     90.8775  36.7634  53.1751   O.2       1 RES1   0.0000
    13 N13     90.2996  35.4410  51.4416   N.am      1 RES1   0.0000
    14 C14     91.4057  34.4922  51.5164   C.3       1 RES1   0.0000
    15 C15     92.2589  34.5733  50.1828   C.3       1 RES1   0.0000
    16 O16     92.8410  35.8534  50.0243   O.3       1 RES1   0.0000
    17 C17     91.0145  33.0533  51.9627   C.3       1 RES1   0.0000
    18 C18     90.0807  32.4008  50.9285   C.3       1 RES1   0.0000
    19 C19     92.2686  32.1804  52.1178   C.3       1 RES1   0.0000
    20 C20     90.2878  33.1112  53.3152   C.3       1 RES1   0.0000
    21 C21     88.8598  38.6355  52.4311   C.2       1 RES1   0.0000
    22 C22     87.7094  39.4156  52.2838   C.2       1 RES1   0.0000
    23 C23     87.7727  40.7912  52.8831   C.2       1 RES1   0.0000
    24 O24     86.8899  41.1974  53.6345   O.co2     1 RES1   0.0000
    25 O25     88.8019  41.5239  52.5181   O.co2     1 RES1  -1.0000
    26 C26     85.1115  40.8257  50.6959   C.2       1 RES1   0.0000
    27 C27     86.2492  41.3134  49.8420   C.2       1 RES1   0.0000
    28 O28     87.3161  40.7063  49.8298   O.2       1 RES1   0.0000
    29 N29     86.0841  42.5082  49.2212   N.am      1 RES1   0.0000
    30 C30     87.0401  43.2575  48.4839   C.2       1 RES1   0.0000
    31 C31     88.4056  43.2320  48.7552   C.2       1 RES1   0.0000
    32 C32     89.2937  43.9296  47.9508   C.2       1 RES1   0.0000
    33 C33     88.8341  44.6935  46.8767   C.2       1 RES1   0.0000
    34 C34     89.7893  45.3998  45.9472   C.2       1 RES1   0.0000
    35 N35     89.3385  45.5624  44.6426   N.pl3     1 RES1   0.0000
    36 N36     90.9208  45.8348  46.4258   N.pl3     1 RES1   1.0000
    37 C37     87.4597  44.7724  46.6549   C.2       1 RES1   0.0000
    38 C38     86.5716  44.0628  47.4498   C.2       1 RES1   0.0000
    39 N39     83.9690  41.5298  50.6191   N.2       1 RES1   0.0000
@<TRIPOS>BOND
     1     1     2    1
     2     2     3    1
     3     3     4    2
     4     4     5    1
     5     5     6    2
     6     6     7    1
     7     7     8    2
     8     8     9    1
     9     9    10    2
    10    10    11    1
    11    11    12    2
    12    11    13   am
    13    13    14    1
    14    14    15    1
    15    15    16    1
    16    14    17    1
    17    17    18    1
    18    17    19    1
    19    17    20    1
    20    10    21    1
    21    21    22    2
    22    22    23    1
    23    23    24    2
    24    23    25    1
    25     6    26    1
    26    26    27    1
    27    27    28    2
    28    27    29   am
    29    29    30    1
    30    30    31    2
    31    31    32    1
    32    32    33    2
    33    33    34    1
    34    34    35    1
    35    34    36    2
    36    33    37    1
    37    37    38    2
    38    26    39    2
    39    39     3    1
    40    22     7    1
    41    38    30    1
@<TRIPOS>SUBSTRUCTURE
     1 RES1        1 GROUP             0 ****  ****    0  
@<TRIPOS>MOLECULE
ligand_32
    39    41     1     0     0
SMALL
USER_CHARGES
****
Generated from the CSD

@<TRIPOS>ATOM
     1 C1      81.1385  41.8263  49.7410   C.3       1 RES1   0.0000
     2 O2      82.3114  42.3205  50.3888   O.3       1 RES1   0.0000
     3 C3      83.2551  41.4315  50.7601   C.2       1 RES1   0.0000
     4 C4      84.4265  41.9643  51.3017   C.2       1 RES1   0.0000
     5 C5      85.4910  41.1055  51.5310   C.2       1 RES1   0.0000
     6 C6      85.3778  39.7360  51.2676   C.2       1 RES1   0.0000
     7 C7      86.5760  38.8585  51.4867   C.2       1 RES1   0.0000
     8 C8      87.1269  38.8101  52.7758   C.2       1 RES1   0.0000
     9 C9      88.2632  38.0559  53.0401   C.2       1 RES1   0.0000
    10 C10     88.8672  37.3028  52.0346   C.2       1 RES1   0.0000
    11 C11     90.1024  36.4949  52.2745   C.2       1 RES1   0.0000
    12 O12     90.9308  36.8344  53.1174   O.2       1 RES1   0.0000
    13 N13     90.2371  35.3688  51.5494   N.am      1 RES1   0.0000
    14 C14     91.3498  34.4280  51.6265   C.3       1 RES1   0.0000
    15 C15     92.0938  34.3780  50.2276   C.3       1 RES1   0.0000
    16 O16     92.6556  35.6352  49.9011   O.3       1 RES1   0.0000
    17 C17     91.0020  33.0398  52.2385   C.3       1 RES1   0.0000
    18 C18     89.9919  32.2940  51.3493   C.3       1 RES1   0.0000
    19 C19     92.2684  32.1819  52.3764   C.3       1 RES1   0.0000
    20 C20     90.3848  33.2296  53.6328   C.3       1 RES1   0.0000
    21 C21     88.3192  37.3173  50.7539   C.2       1 RES1   0.0000
    22 C22     87.1987  38.1028  50.4691   C.2       1 RES1   0.0000
    23 C23     86.7813  38.1455  49.0270   C.2       1 RES1   0.0000
    24 O24     86.5834  39.2143  48.4550   O.co2     1 RES1   0.0000
    25 O25     86.6098  36.9765  48.4497   O.co2     1 RES1  -1.0000
    26 C26     84.0991  39.3030  50.7832   C.2       1 RES1   0.0000
    27 C27     83.8289  37.8352  50.5989   C.2       1 RES1   0.0000
    28 O28     83.7119  37.1017  51.5763   O.2       1 RES1   0.0000
    29 N29     83.8691  37.3569  49.3302   N.am      1 RES1   0.0000
    30 C30     83.7912  36.0066  48.8948   C.2       1 RES1   0.0000
    31 C31     83.6626  34.9285  49.7665   C.2       1 RES1   0.0000
    32 C32     83.5177  33.6409  49.2731   C.2       1 RES1   0.0000
    33 C33     83.5296  33.3985  47.8984   C.2       1 RES1   0.0000
    34 C34     83.3006  32.0157  47.3409   C.2       1 RES1   0.0000
    35 N35     83.9966  31.7222  46.1743   N.pl3     1 RES1   0.0000
    36 N36     82.5226  31.1991  47.9940   N.pl3     1 RES1   1.0000
    37 C37     83.7311  34.4737  47.0339   C.2       1 RES1   0.0000
    38 C38     83.8611  35.7641  47.5260   C.2       1 RES1   0.0000
    39 N39     83.0746  40.1319  50.5179   N.2       1 RES1   0.0000
@<TRIPOS>BOND
     1     1     2    1
     2     2     3    1
     3     3     4    2
     4     4     5    1
     5     5     6    2
     6     6     7    1
     7     7     8    2
     8     8     9    1
     9     9    10    2
    10    10    11    1
    11    11    12    2
    12    11    13   am
    13    13    14    1
    14    14    15    1
    15    15    16    1
    16    14    17    1
    17    17    18    1
    18    17    19    1
    19    17    20    1
    20    10    21    1
    21    21    22    2
    22    22    23    1
    23    23    24    2
    24    23    25    1
    25     6    26    1
    26    26    27    1
    27    27    28    2
    28    27    29   am
    29    29    30    1
    30    30    31    2
    31    31    32    1
    32    32    33    2
    33    33    34    1
    34    34    35    1
    35    34    36    2
    36    33    37    1
    37    37    38    2
    38    26    39    2
    39    39     3    1
    40    22     7    1
    41    38    30    1
@<TRIPOS>SUBSTRUCTURE
     1 RES1        1 GROUP             0 ****  ****    0  
@<TRIPOS>MOLECULE
ligand_33
    39    41     1     0     0
SMALL
USER_CHARGES
****
Generated from the CSD

@<TRIPOS>ATOM
     1 C1      80.7755  41.4766  50.4356   C.3       1 RES1   0.0000
     2 O2      82.0863  41.8691  50.0266   O.3       1 RES1   0.0000
     3 C3      83.1377  41.1791  50.5135   C.2       1 RES1   0.0000
     4 C4      84.3929  41.5322  50.0143   C.2       1 RES1   0.0000
     5 C5      85.4778  40.7357  50.3488   C.2       1 RES1   0.0000
     6 C6      85.3250  39.6348  51.1987   C.2       1 RES1   0.0000
     7 C7      86.5222  38.7769  51.4891   C.2       1 RES1   0.0000
     8 C8      87.6371  39.3858  52.0837   C.2       1 RES1   0.0000
     9 C9      88.7960  38.6632  52.3380   C.2       1 RES1   0.0000
    10 C10     88.8681  37.3044  52.0355   C.2       1 RES1   0.0000
    11 C11     90.1038  36.4973  52.2752   C.2       1 RES1   0.0000
    12 O12     90.8744  36.7712  53.1934   O.2       1 RES1   0.0000
    13 N13     90.3041  35.4443  51.4609   N.am      1 RES1   0.0000
    14 C14     91.3972  34.4824  51.5571   C.3       1 RES1   0.0000
    15 C15     92.2789  34.5555  50.2418   C.3       1 RES1   0.0000
    16 O16     92.8791  35.8291  50.0976   O.3       1 RES1   0.0000
    17 C17     90.9801  33.0475  51.9926   C.3       1 RES1   0.0000
    18 C18     90.0606  32.4075  50.9380   C.3       1 RES1   0.0000
    19 C19     92.2204  32.1598  52.1724   C.3       1 RES1   0.0000
    20 C20     90.2259  33.1119  53.3298   C.3       1 RES1   0.0000
    21 C21     87.7617  36.6758  51.4686   C.2       1 RES1   0.0000
    22 C22     86.6047  37.4027  51.1739   C.2       1 RES1   0.0000
    23 C23     85.5310  36.6511  50.4407   C.2       1 RES1   0.0000
    24 O24     85.0194  37.1079  49.4216   O.co2     1 RES1   0.0000
    25 O25     85.1623  35.5116  50.9837   O.co2     1 RES1  -1.0000
    26 C26     83.9993  39.4222  51.7029   C.2       1 RES1   0.0000
    27 C27     83.7541  38.3509  52.7294   C.2       1 RES1   0.0000
    28 O28     84.1730  38.4867  53.8753   O.2       1 RES1   0.0000
    29 N29     83.1917  37.1967  52.2917   N.am      1 RES1   0.0000
    30 C30     82.9840  35.9894  53.0116   C.2       1 RES1   0.0000
    31 C31     83.3602  35.8178  54.3412   C.2       1 RES1   0.0000
    32 C32     83.0623  34.6391  55.0079   C.2       1 RES1   0.0000
    33 C33     82.4100  33.5939  54.3517   C.2       1 RES1   0.0000
    34 C34     82.0128  32.3337  55.0793   C.2       1 RES1   0.0000
    35 N35     82.0601  31.1696  54.3215   N.pl3     1 RES1   0.0000
    36 N36     81.7026  32.4124  56.3426   N.pl3     1 RES1   1.0000
    37 C37     82.1010  33.7452  53.0004   C.2       1 RES1   0.0000
    38 C38     82.3851  34.9297  52.3367   C.2       1 RES1   0.0000
    39 N39     82.9330  40.1621  51.3526   N.2       1 RES1   0.0000
@<TRIPOS>BOND
     1     1     2    1
     2     2     3    1
     3     3     4    2
     4     4     5    1
     5     5     6    2
     6     6     7    1
     7     7     8    2
     8     8     9    1
     9     9    10    2
    10    10    11    1
    11    11    12    2
    12    11    13   am
    13    13    14    1
    14    14    15    1
    15    15    16    1
    16    14    17    1
    17    17    18    1
    18    17    19    1
    19    17    20    1
    20    10    21    1
    21    21    22    2
    22    22    23    1
    23    23    24    2
    24    23    25    1
    25     6    26    1
    26    26    27    1
    27    27    28    2
    28    27    29   am
    29    29    30    1
    30    30    31    2
    31    31    32    1
    32    32    33    2
    33    33    34    1
    34    34    35    1
    35    34    36    2
    36    33    37    1
    37    37    38    2
    38    26    39    2
    39    39     3    1
    40    22     7    1
    41    38    30    1
@<TRIPOS>SUBSTRUCTURE
     1 RES1        1 GROUP             0 ****  ****    0  
@<TRIPOS>MOLECULE
ligand_34
    39    41     1     0     0
SMALL
USER_CHARGES
****
Generated from the CSD

@<TRIPOS>ATOM
     1 C1      81.4023  42.7168  51.3875   C.3       1 RES1   0.0000
     2 O2      81.5608  41.3523  50.9971   O.3       1 RES1   0.0000
     3 C3      82.7971  40.8160  51.0473   C.2       1 RES1   0.0000
     4 C4      82.8925  39.4550  50.7506   C.2       1 RES1   0.0000
     5 C5      84.1086  38.8228  50.9623   C.2       1 RES1   0.0000
     6 C6      85.2202  39.5396  51.4187   C.2       1 RES1   0.0000
     7 C7      86.4991  38.7975  51.6785   C.2       1 RES1   0.0000
     8 C8      87.0841  38.1039  50.6089   C.2       1 RES1   0.0000
     9 C9      88.2423  37.3580  50.7882   C.2       1 RES1   0.0000
    10 C10     88.8696  37.3056  52.0319   C.2       1 RES1   0.0000
    11 C11     90.1053  36.4980  52.2698   C.2       1 RES1   0.0000
    12 O12     90.9160  36.8163  53.1378   O.2       1 RES1   0.0000
    13 N13     90.2605  35.3954  51.5133   N.am      1 RES1   0.0000
    14 C14     91.3682  34.4492  51.5949   C.3       1 RES1   0.0000
    15 C15     92.1558  34.4420  50.2192   C.3       1 RES1   0.0000
    16 O16     92.7296  35.7076  49.9509   O.3       1 RES1   0.0000
    17 C17     90.9983  33.0430  52.1504   C.3       1 RES1   0.0000
    18 C18     90.0160  32.3290  51.2058   C.3       1 RES1   0.0000
    19 C19     92.2581  32.1775  52.3012   C.3       1 RES1   0.0000
    20 C20     90.3370  33.1898  53.5296   C.3       1 RES1   0.0000
    21 C21     88.3181  38.0093  53.1002   C.2       1 RES1   0.0000
    22 C22     87.1322  38.7316  52.9391   C.2       1 RES1   0.0000
    23 C23     86.5607  39.3349  54.1901   C.2       1 RES1   0.0000
    24 O24     85.3835  39.1642  54.4965   O.co2     1 RES1   0.0000
    25 O25     87.3887  40.0750  54.8944   O.co2     1 RES1  -1.0000
    26 C26     85.0116  40.9448  51.6155   C.2       1 RES1   0.0000
    27 C27     86.1744  41.8291  51.9724   C.2       1 RES1   0.0000
    28 O28     87.0447  42.0699  51.1408   O.2       1 RES1   0.0000
    29 N29     86.2809  42.2118  53.2695   N.am      1 RES1   0.0000
    30 C30     87.3433  42.9179  53.8954   C.2       1 RES1   0.0000
    31 C31     88.4897  43.3294  53.2208   C.2       1 RES1   0.0000
    32 C32     89.4563  44.0794  53.8732   C.2       1 RES1   0.0000
    33 C33     89.3137  44.4079  55.2224   C.2       1 RES1   0.0000
    34 C34     90.3177  45.2836  55.9298   C.2       1 RES1   0.0000
    35 N35     90.5250  44.9863  57.2715   N.pl3     1 RES1   0.0000
    36 N36     90.9360  46.2045  55.2455   N.pl3     1 RES1   1.0000
    37 C37     88.1982  43.9311  55.9100   C.2       1 RES1   0.0000
    38 C38     87.2234  43.1936  55.2544   C.2       1 RES1   0.0000
    39 N39     83.8274  41.5600  51.4538   N.2       1 RES1   0.0000
@<TRIPOS>BOND
     1     1     2    1
     2     2     3    1
     3     3     4    2
     4     4     5    1
     5     5     6    2
     6     6     7    1
     7     7     8    2
     8     8     9    1
     9     9    10    2
    10    10    11    1
    11    11    12    2
    12    11    13   am
    13    13    14    1
    14    14    15    1
    15    15    16    1
    16    14    17    1
    17    17    18    1
    18    17    19    1
    19    17    20    1
    20    10    21    1
    21    21    22    2
    22    22    23    1
    23    23    24    2
    24    23    25    1
    25     6    26    1
    26    26    27    1
    27    27    28    2
    28    27    29   am
    29    29    30    1
    30    30    31    2
    31    31    32    1
    32    32    33    2
    33    33    34    1
    34    34    35    1
    35    34    36    2
    36    33    37    1
    37    37    38    2
    38    26    39    2
    39    39     3    1
    40    22     7    1
    41    38    30    1
@<TRIPOS>SUBSTRUCTURE
     1 RES1        1 GROUP             0 ****  ****    0  
@<TRIPOS>MOLECULE
ligand_35
    39    41     1     0     0
SMALL
USER_CHARGES
****
Generated from the CSD

@<TRIPOS>ATOM
     1 C1      81.7652  43.0666  50.6929   C.3       1 RES1   0.0000
     2 O2      81.7858  41.8036  51.3593   O.3       1 RES1   0.0000
     3 C3      82.9145  41.0684  51.2939   C.2       1 RES1   0.0000
     4 C4      82.9261  39.8871  52.0381   C.2       1 RES1   0.0000
     5 C5      84.1217  39.1925  52.1445   C.2       1 RES1   0.0000
     6 C6      85.2730  39.6408  51.4876   C.2       1 RES1   0.0000
     7 C7      86.5529  38.8792  51.6762   C.2       1 RES1   0.0000
     8 C8      86.5739  37.5280  51.3003   C.2       1 RES1   0.0000
     9 C9      87.7095  36.7505  51.4896   C.2       1 RES1   0.0000
    10 C10     88.8687  37.3039  52.0310   C.2       1 RES1   0.0000
    11 C11     90.1039  36.4956  52.2690   C.2       1 RES1   0.0000
    12 O12     90.8998  36.7964  53.1566   O.2       1 RES1   0.0000
    13 N13     90.2751  35.4116  51.4895   N.am      1 RES1   0.0000
    14 C14     91.3774  34.4593  51.5760   C.3       1 RES1   0.0000
    15 C15     92.2003  34.4835  50.2213   C.3       1 RES1   0.0000
    16 O16     92.7850  35.7531  49.9998   O.3       1 RES1   0.0000
    17 C17     90.9887  33.0413  52.0864   C.3       1 RES1   0.0000
    18 C18     90.0288  32.3548  51.0993   C.3       1 RES1   0.0000
    19 C19     92.2414  32.1674  52.2478   C.3       1 RES1   0.0000
    20 C20     90.2925  33.1561  53.4514   C.3       1 RES1   0.0000
    21 C21     88.8756  38.6510  52.3861   C.2       1 RES1   0.0000
    22 C22     87.7262  39.4318  52.2350   C.2       1 RES1   0.0000
    23 C23     87.8110  40.8296  52.7779   C.2       1 RES1   0.0000
    24 O24     86.9474  41.2711  53.5316   O.co2     1 RES1   0.0000
    25 O25     88.8364  41.5401  52.3620   O.co2     1 RES1  -1.0000
    26 C26     85.1115  40.8257  50.6959   C.2       1 RES1   0.0000
    27 C27     86.2492  41.3134  49.8420   C.2       1 RES1   0.0000
    28 O28     86.5838  40.6849  48.8420   O.2       1 RES1   0.0000
    29 N29     86.9581  42.3720  50.3078   N.am      1 RES1   0.0000
    30 C30     88.1504  42.9354  49.7787   C.2       1 RES1   0.0000
    31 C31     88.7931  42.4405  48.6469   C.2       1 RES1   0.0000
    32 C32     89.9127  43.0818  48.1394   C.2       1 RES1   0.0000
    33 C33     90.4335  44.2132  48.7696   C.2       1 RES1   0.0000
    34 C34     91.6058  44.9666  48.1920   C.2       1 RES1   0.0000
    35 N35     91.6357  46.3270  48.4746   N.pl3     1 RES1   0.0000
    36 N36     92.5070  44.3037  47.5234   N.pl3     1 RES1   1.0000
    37 C37     89.8277  44.6604  49.9431   C.2       1 RES1   0.0000
    38 C38     88.6986  44.0286  50.4432   C.2       1 RES1   0.0000
    39 N39     83.9690  41.5298  50.6191   N.2       1 RES1   0.0000
@<TRIPOS>BOND
     1     1     2    1
     2     2     3    1
     3     3     4    2
     4     4     5    1
     5     5     6    2
     6     6     7    1
     7     7     8    2
     8     8     9    1
     9     9    10    2
    10    10    11    1
    11    11    12    2
    12    11    13   am
    13    13    14    1
    14    14    15    1
    15    15    16    1
    16    14    17    1
    17    17    18    1
    18    17    19    1
    19    17    20    1
    20    10    21    1
    21    21    22    2
    22    22    23    1
    23    23    24    2
    24    23    25    1
    25     6    26    1
    26    26    27    1
    27    27    28    2
    28    27    29   am
    29    29    30    1
    30    30    31    2
    31    31    32    1
    32    32    33    2
    33    33    34    1
    34    34    35    1
    35    34    36    2
    36    33    37    1
    37    37    38    2
    38    26    39    2
    39    39     3    1
    40    22     7    1
    41    38    30    1
@<TRIPOS>SUBSTRUCTURE
     1 RES1        1 GROUP             0 ****  ****    0  
@<TRIPOS>MOLECULE
ligand_36
    39    41     1     0     0
SMALL
USER_CHARGES
****
Generated from the CSD

@<TRIPOS>ATOM
     1 C1      82.2233  43.4310  50.2341   C.3       1 RES1   0.0000
     2 O2      82.1449  42.2564  51.0427   O.3       1 RES1   0.0000
     3 C3      83.1812  41.3939  51.0135   C.2       1 RES1   0.0000
     4 C4      83.1073  40.3096  51.8900   C.2       1 RES1   0.0000
     5 C5      84.2244  39.4988  52.0235   C.2       1 RES1   0.0000
     6 C6      85.3778  39.7360  51.2676   C.2       1 RES1   0.0000
     7 C7      86.5760  38.8585  51.4867   C.2       1 RES1   0.0000
     8 C8      87.1708  38.8654  52.7570   C.2       1 RES1   0.0000
     9 C9      88.3097  38.1138  53.0176   C.2       1 RES1   0.0000
    10 C10     88.8726  37.3087  52.0286   C.2       1 RES1   0.0000
    11 C11     90.1090  36.5014  52.2639   C.2       1 RES1   0.0000
    12 O12     90.9689  36.8722  53.0609   O.2       1 RES1   0.0000
    13 N13     90.2097  35.3412  51.5887   N.am      1 RES1   0.0000
    14 C14     91.3171  34.3946  51.6719   C.3       1 RES1   0.0000
    15 C15     92.0115  34.2720  50.2522   C.3       1 RES1   0.0000
    16 O16     92.5711  35.5072  49.8473   O.3       1 RES1   0.0000
    17 C17     90.9800  33.0401  52.3605   C.3       1 RES1   0.0000
    18 C18     89.9341  32.2626  51.5427   C.3       1 RES1   0.0000
    19 C19     92.2438  32.1779  52.4955   C.3       1 RES1   0.0000
    20 C20     90.4128  33.3010  53.7645   C.3       1 RES1   0.0000
    21 C21     88.2808  37.2683  50.7682   C.2       1 RES1   0.0000
    22 C22     87.1572  38.0501  50.4852   C.2       1 RES1   0.0000
    23 C23     86.6904  38.0290  49.0578   C.2       1 RES1   0.0000
    24 O24     85.4967  37.9417  48.7817   O.co2     1 RES1   0.0000
    25 O25     87.6394  38.0705  48.1484   O.co2     1 RES1  -1.0000
    26 C26     85.3007  40.8357  50.3502   C.2       1 RES1   0.0000
    27 C27     86.4334  41.0914  49.3948   C.2       1 RES1   0.0000
    28 O28     87.4791  41.5928  49.7975   O.2       1 RES1   0.0000
    29 N29     86.1866  40.8811  48.0777   N.am      1 RES1   0.0000
    30 C30     87.0211  41.1779  46.9665   C.2       1 RES1   0.0000
    31 C31     88.2765  41.7676  47.0892   C.2       1 RES1   0.0000
    32 C32     89.0718  41.9633  45.9705   C.2       1 RES1   0.0000
    33 C33     88.6175  41.6032  44.7007   C.2       1 RES1   0.0000
    34 C34     89.4957  41.7409  43.4820   C.2       1 RES1   0.0000
    35 N35     88.8317  42.0602  42.3036   N.pl3     1 RES1   0.0000
    36 N36     90.7837  41.5978  43.6201   N.pl3     1 RES1   1.0000
    37 C37     87.3309  41.0800  44.5769   C.2       1 RES1   0.0000
    38 C38     86.5404  40.8698  45.6972   C.2       1 RES1   0.0000
    39 N39     84.2390  41.6532  50.2426   N.2       1 RES1   0.0000
@<TRIPOS>BOND
     1     1     2    1
     2     2     3    1
     3     3     4    2
     4     4     5    1
     5     5     6    2
     6     6     7    1
     7     7     8    2
     8     8     9    1
     9     9    10    2
    10    10    11    1
    11    11    12    2
    12    11    13   am
    13    13    14    1
    14    14    15    1
    15    15    16    1
    16    14    17    1
    17    17    18    1
    18    17    19    1
    19    17    20    1
    20    10    21    1
    21    21    22    2
    22    22    23    1
    23    23    24    2
    24    23    25    1
    25     6    26    1
    26    26    27    1
    27    27    28    2
    28    27    29   am
    29    29    30    1
    30    30    31    2
    31    31    32    1
    32    32    33    2
    33    33    34    1
    34    34    35    1
    35    34    36    2
    36    33    37    1
    37    37    38    2
    38    26    39    2
    39    39     3    1
    40    22     7    1
    41    38    30    1
@<TRIPOS>SUBSTRUCTURE
     1 RES1        1 GROUP             0 ****  ****    0  
@<TRIPOS>MOLECULE
ligand_37
    39    41     1     0     0
SMALL
USER_CHARGES
****
Generated from the CSD

@<TRIPOS>ATOM
     1 C1      81.8730  42.5851  49.1859   C.3       1 RES1   0.0000
     2 O2      82.2664  42.2897  50.5266   O.3       1 RES1   0.0000
     3 C3      83.2001  41.3359  50.7198   C.2       1 RES1   0.0000
     4 C4      83.6259  41.1460  52.0359   C.2       1 RES1   0.0000
     5 C5      84.7069  40.3065  52.2591   C.2       1 RES1   0.0000
     6 C6      85.3250  39.6348  51.1987   C.2       1 RES1   0.0000
     7 C7      86.5222  38.7769  51.4891   C.2       1 RES1   0.0000
     8 C8      87.6630  39.3993  52.0168   C.2       1 RES1   0.0000
     9 C9      88.8221  38.6753  52.2661   C.2       1 RES1   0.0000
    10 C10     88.8695  37.3031  52.0257   C.2       1 RES1   0.0000
    11 C11     90.1040  36.4931  52.2618   C.2       1 RES1   0.0000
    12 O12     90.9083  36.8004  53.1397   O.2       1 RES1   0.0000
    13 N13     90.2653  35.4006  51.4921   N.am      1 RES1   0.0000
    14 C14     91.3507  34.4310  51.5970   C.3       1 RES1   0.0000
    15 C15     92.1879  34.4315  50.2508   C.3       1 RES1   0.0000
    16 O16     92.7960  35.6895  50.0263   O.3       1 RES1   0.0000
    17 C17     90.9335  33.0234  52.1137   C.3       1 RES1   0.0000
    18 C18     89.9721  32.3457  51.1219   C.3       1 RES1   0.0000
    19 C19     92.1697  32.1301  52.2941   C.3       1 RES1   0.0000
    20 C20     90.2257  33.1598  53.4707   C.3       1 RES1   0.0000
    21 C21     87.7379  36.6622  51.5263   C.2       1 RES1   0.0000
    22 C22     86.5794  37.3886  51.2365   C.2       1 RES1   0.0000
    23 C23     85.4735  36.6166  50.5757   C.2       1 RES1   0.0000
    24 O24     84.3050  36.7538  50.9287   O.co2     1 RES1   0.0000
    25 O25     85.8493  35.7733  49.6393   O.co2     1 RES1  -1.0000
    26 C26     84.7469  39.8570  49.9051   C.2       1 RES1   0.0000
    27 C27     85.2480  39.0787  48.7200   C.2       1 RES1   0.0000
    28 O28     86.3271  39.3614  48.2075   O.2       1 RES1   0.0000
    29 N29     84.3979  38.1730  48.1748   N.am      1 RES1   0.0000
    30 C30     84.5608  37.4186  46.9818   C.2       1 RES1   0.0000
    31 C31     85.6795  37.5213  46.1591   C.2       1 RES1   0.0000
    32 C32     85.8103  36.7028  45.0477   C.2       1 RES1   0.0000
    33 C33     84.8116  35.7856  44.7160   C.2       1 RES1   0.0000
    34 C34     84.9687  34.8367  43.5539   C.2       1 RES1   0.0000
    35 N35     84.3051  33.6225  43.6840   N.pl3     1 RES1   0.0000
    36 N36     85.6595  35.2244  42.5190   N.pl3     1 RES1   1.0000
    37 C37     83.6617  35.7389  45.5032   C.2       1 RES1   0.0000
    38 C38     83.5366  36.5468  46.6239   C.2       1 RES1   0.0000
    39 N39     83.7265  40.7003  49.6714   N.2       1 RES1   0.0000
@<TRIPOS>BOND
     1     1     2    1
     2     2     3    1
     3     3     4    2
     4     4     5    1
     5     5     6    2
     6     6     7    1
     7     7     8    2
     8     8     9    1
     9     9    10    2
    10    10    11    1
    11    11    12    2
    12    11    13   am
    13    13    14    1
    14    14    15    1
    15    15    16    1
    16    14    17    1
    17    17    18    1
    18    17    19    1
    19    17    20    1
    20    10    21    1
    21    21    22    2
    22    22    23    1
    23    23    24    2
    24    23    25    1
    25     6    26    1
    26    26    27    1
    27    27    28    2
    28    27    29   am
    29    29    30    1
    30    30    31    2
    31    31    32    1
    32    32    33    2
    33    33    34    1
    34    34    35    1
    35    34    36    2
    36    33    37    1
    37    37    38    2
    38    26    39    2
    39    39     3    1
    40    22     7    1
    41    38    30    1
@<TRIPOS>SUBSTRUCTURE
     1 RES1        1 GROUP             0 ****  ****    0  
@<TRIPOS>MOLECULE
ligand_38
    39    41     1     0     0
SMALL
USER_CHARGES
****
Generated from the CSD

@<TRIPOS>ATOM
     1 C1      80.4965  40.9952  50.9290   C.3       1 RES1   0.0000
     2 O2      81.7298  41.4147  50.3437   O.3       1 RES1   0.0000
     3 C3      82.8706  40.8538  50.7939   C.2       1 RES1   0.0000
     4 C4      84.0428  41.2201  50.1297   C.2       1 RES1   0.0000
     5 C5      85.2100  40.5374  50.4379   C.2       1 RES1   0.0000
     6 C6      85.2202  39.5396  51.4187   C.2       1 RES1   0.0000
     7 C7      86.4991  38.7975  51.6785   C.2       1 RES1   0.0000
     8 C8      87.0452  38.0440  50.6291   C.2       1 RES1   0.0000
     9 C9      88.2011  37.2953  50.8122   C.2       1 RES1   0.0000
    10 C10     88.8646  37.2992  52.0381   C.2       1 RES1   0.0000
    11 C11     90.0991  36.4911  52.2806   C.2       1 RES1   0.0000
    12 O12     90.9382  36.8438  53.1074   O.2       1 RES1   0.0000
    13 N13     90.2213  35.3501  51.5769   N.am      1 RES1   0.0000
    14 C14     91.3218  34.3969  51.6743   C.3       1 RES1   0.0000
    15 C15     92.0684  34.3117  50.2785   C.3       1 RES1   0.0000
    16 O16     92.6467  35.5555  49.9302   O.3       1 RES1   0.0000
    17 C17     90.9549  33.0248  52.3109   C.3       1 RES1   0.0000
    18 C18     89.9378  32.2753  51.4329   C.3       1 RES1   0.0000
    19 C19     92.2100  32.1538  52.4682   C.3       1 RES1   0.0000
    20 C20     90.3366  33.2482  53.6997   C.3       1 RES1   0.0000
    21 C21     88.3520  38.0624  53.0847   C.2       1 RES1   0.0000
    22 C22     87.1689  38.7887  52.9217   C.2       1 RES1   0.0000
    23 C23     86.6407  39.4610  54.1565   C.2       1 RES1   0.0000
    24 O24     86.2098  40.6107  54.1181   O.co2     1 RES1   0.0000
    25 O25     86.7106  38.7541  55.2631   O.co2     1 RES1  -1.0000
    26 C26     83.9682  39.3088  52.0791   C.2       1 RES1   0.0000
    27 C27     83.9015  38.3561  53.2406   C.2       1 RES1   0.0000
    28 O28     83.9425  37.1444  53.0481   O.2       1 RES1   0.0000
    29 N29     83.6511  38.8912  54.4617   N.am      1 RES1   0.0000
    30 C30     83.3977  38.2145  55.6851   C.2       1 RES1   0.0000
    31 C31     83.3628  36.8272  55.7984   C.2       1 RES1   0.0000
    32 C32     83.1833  36.2288  57.0362   C.2       1 RES1   0.0000
    33 C33     83.0032  37.0034  58.1834   C.2       1 RES1   0.0000
    34 C34     82.8794  36.3725  59.5479   C.2       1 RES1   0.0000
    35 N35     82.0404  37.0355  60.4356   N.pl3     1 RES1   0.0000
    36 N36     83.5144  35.2586  59.7817   N.pl3     1 RES1   1.0000
    37 C37     82.9671  38.3911  58.0515   C.2       1 RES1   0.0000
    38 C38     83.1617  38.9909  56.8160   C.2       1 RES1   0.0000
    39 N39     82.8221  39.9347  51.7599   N.2       1 RES1   0.0000
@<TRIPOS>BOND
     1     1     2    1
     2     2     3    1
     3     3     4    2
     4     4     5    1
     5     5     6    2
     6     6     7    1
     7     7     8    2
     8     8     9    1
     9     9    10    2
    10    10    11    1
    11    11    12    2
    12    11    13   am
    13    13    14    1
    14    14    15    1
    15    15    16    1
    16    14    17    1
    17    17    18    1
    18    17    19    1
    19    17    20    1
    20    10    21    1
    21    21    22    2
    22    22    23    1
    23    23    24    2
    24    23    25    1
    25     6    26    1
    26    26    27    1
    27    27    28    2
    28    27    29   am
    29    29    30    1
    30    30    31    2
    31    31    32    1
    32    32    33    2
    33    33    34    1
    34    34    35    1
    35    34    36    2
    36    33    37    1
    37    37    38    2
    38    26    39    2
    39    39     3    1
    40    22     7    1
    41    38    30    1
@<TRIPOS>SUBSTRUCTURE
     1 RES1        1 GROUP             0 ****  ****    0  
@<TRIPOS>MOLECULE
ligand_39
    39    41     1     0     0
SMALL
USER_CHARGES
****
Generated from the CSD

@<TRIPOS>ATOM
     1 C1      80.8468  41.8410  51.9772   C.3       1 RES1   0.0000
     2 O2      81.6082  41.3814  50.8598   O.3       1 RES1   0.0000
     3 C3      82.8517  40.9118  51.0875   C.2       1 RES1   0.0000
     4 C4      83.5242  40.3837  49.9838   C.2       1 RES1   0.0000
     5 C5      84.7275  39.7297  50.2022   C.2       1 RES1   0.0000
     6 C6      85.2730  39.6408  51.4876   C.2       1 RES1   0.0000
     7 C7      86.5529  38.8792  51.6762   C.2       1 RES1   0.0000
     8 C8      86.5532  37.5104  51.3698   C.2       1 RES1   0.0000
     9 C9      87.6888  36.7342  51.5642   C.2       1 RES1   0.0000
    10 C10     88.8678  37.3049  52.0411   C.2       1 RES1   0.0000
    11 C11     90.1042  36.4995  52.2828   C.2       1 RES1   0.0000
    12 O12     90.9295  36.8392  53.1286   O.2       1 RES1   0.0000
    13 N13     90.2435  35.3751  51.5559   N.am      1 RES1   0.0000
    14 C14     91.3416  34.4195  51.6576   C.3       1 RES1   0.0000
    15 C15     92.1216  34.3664  50.2786   C.3       1 RES1   0.0000
    16 O16     92.7077  35.6178  49.9732   O.3       1 RES1   0.0000
    17 C17     90.9599  33.0332  52.2533   C.3       1 RES1   0.0000
    18 C18     89.9643  32.3045  51.3340   C.3       1 RES1   0.0000
    19 C19     92.2111  32.1583  52.4205   C.3       1 RES1   0.0000
    20 C20     90.3083  33.2245  53.6316   C.3       1 RES1   0.0000
    21 C21     88.8948  38.6682  52.3261   C.2       1 RES1   0.0000
    22 C22     87.7465  39.4499  52.1700   C.2       1 RES1   0.0000
    23 C23     87.8574  40.8728  52.6375   C.2       1 RES1   0.0000
    24 O24     87.4011  41.7976  51.9701   O.co2     1 RES1   0.0000
    25 O25     88.5006  41.0507  53.7706   O.co2     1 RES1  -1.0000
    26 C26     84.5219  40.2875  52.5243   C.2       1 RES1   0.0000
    27 C27     85.0870  40.3688  53.9154   C.2       1 RES1   0.0000
    28 O28     85.0942  39.3762  54.6377   O.2       1 RES1   0.0000
    29 N29     85.4402  41.5989  54.3650   N.am      1 RES1   0.0000
    30 C30     85.8582  41.9735  55.6704   C.2       1 RES1   0.0000
    31 C31     85.9592  41.0738  56.7283   C.2       1 RES1   0.0000
    32 C32     86.4442  41.4897  57.9588   C.2       1 RES1   0.0000
    33 C33     86.8092  42.8206  58.1687   C.2       1 RES1   0.0000
    34 C34     87.4068  43.2761  59.4766   C.2       1 RES1   0.0000
    35 N35     88.2811  44.3528  59.3878   N.pl3     1 RES1   0.0000
    36 N36     87.0413  42.6755  60.5740   N.pl3     1 RES1   1.0000
    37 C37     86.6374  43.7309  57.1265   C.2       1 RES1   0.0000
    38 C38     86.1665  43.3128  55.8906   C.2       1 RES1   0.0000
    39 N39     83.3346  40.8875  52.3311   N.2       1 RES1   0.0000
@<TRIPOS>BOND
     1     1     2    1
     2     2     3    1
     3     3     4    2
     4     4     5    1
     5     5     6    2
     6     6     7    1
     7     7     8    2
     8     8     9    1
     9     9    10    2
    10    10    11    1
    11    11    12    2
    12    11    13   am
    13    13    14    1
    14    14    15    1
    15    15    16    1
    16    14    17    1
    17    17    18    1
    18    17    19    1
    19    17    20    1
    20    10    21    1
    21    21    22    2
    22    22    23    1
    23    23    24    2
    24    23    25    1
    25     6    26    1
    26    26    27    1
    27    27    28    2
    28    27    29   am
    29    29    30    1
    30    30    31    2
    31    31    32    1
    32    32    33    2
    33    33    34    1
    34    34    35    1
    35    34    36    2
    36    33    37    1
    37    37    38    2
    38    26    39    2
    39    39     3    1
    40    22     7    1
    41    38    30    1
@<TRIPOS>SUBSTRUCTURE
     1 RES1        1 GROUP             0 ****  ****    0  
@<TRIPOS>MOLECULE
ligand_40
    39    41     1     0     0
SMALL
USER_CHARGES
****
Generated from the CSD

@<TRIPOS>ATOM
     1 C1      81.1385  41.8263  49.7410   C.3       1 RES1   0.0000
     2 O2      82.3114  42.3205  50.3888   O.3       1 RES1   0.0000
     3 C3      83.2551  41.4315  50.7601   C.2       1 RES1   0.0000
     4 C4      84.4265  41.9643  51.3017   C.2       1 RES1   0.0000
     5 C5      85.4910  41.1055  51.5310   C.2       1 RES1   0.0000
     6 C6      85.3778  39.7360  51.2676   C.2       1 RES1   0.0000
     7 C7      86.5760  38.8585  51.4867   C.2       1 RES1   0.0000
     8 C8      87.0707  38.7378  52.7937   C.2       1 RES1   0.0000
     9 C9      88.2036  37.9801  53.0625   C.2       1 RES1   0.0000
    10 C10     88.8601  37.2948  52.0415   C.2       1 RES1   0.0000
    11 C11     90.0935  36.4859  52.2871   C.2       1 RES1   0.0000
    12 O12     90.8801  36.7819  53.1847   O.2       1 RES1   0.0000
    13 N13     90.2736  35.4069  51.5027   N.am      1 RES1   0.0000
    14 C14     91.3935  34.4741  51.5724   C.3       1 RES1   0.0000
    15 C15     92.1980  34.5158  50.2072   C.3       1 RES1   0.0000
    16 O16     92.7585  35.7956  49.9819   O.3       1 RES1   0.0000
    17 C17     91.0367  33.0482  52.0844   C.3       1 RES1   0.0000
    18 C18     90.0747  32.3478  51.1091   C.3       1 RES1   0.0000
    19 C19     92.3064  32.1957  52.2256   C.3       1 RES1   0.0000
    20 C20     90.3581  33.1476  53.4594   C.3       1 RES1   0.0000
    21 C21     88.3684  37.3812  50.7410   C.2       1 RES1   0.0000
    22 C22     87.2517  38.1716  50.4543   C.2       1 RES1   0.0000
    23 C23     86.8971  38.2970  49.0003   C.2       1 RES1   0.0000
    24 O24     86.7830  37.3036  48.2869   O.co2     1 RES1   0.0000
    25 O25     86.7606  39.5258  48.5521   O.co2     1 RES1  -1.0000
    26 C26     84.0991  39.3030  50.7832   C.2       1 RES1   0.0000
    27 C27     83.8289  37.8352  50.5989   C.2       1 RES1   0.0000
    28 O28     84.2921  37.2392  49.6309   O.2       1 RES1   0.0000
    29 N29     82.9487  37.2595  51.4556   N.am      1 RES1   0.0000
    30 C30     82.4115  35.9446  51.4152   C.2       1 RES1   0.0000
    31 C31     82.7291  35.0192  50.4245   C.2       1 RES1   0.0000
    32 C32     82.2274  33.7280  50.4840   C.2       1 RES1   0.0000
    33 C33     81.3720  33.3423  51.5174   C.2       1 RES1   0.0000
    34 C34     80.8746  31.9234  51.6394   C.2       1 RES1   0.0000
    35 N35     79.5909  31.7856  52.1538   N.pl3     1 RES1   0.0000
    36 N36     81.6421  30.9541  51.2270   N.pl3     1 RES1   1.0000
    37 C37     81.0008  34.2947  52.4657   C.2       1 RES1   0.0000
    38 C38     81.5142  35.5824  52.4156   C.2       1 RES1   0.0000
    39 N39     83.0746  40.1319  50.5179   N.2       1 RES1   0.0000
@<TRIPOS>BOND
     1     1     2    1
     2     2     3    1
     3     3     4    2
     4     4     5    1
     5     5     6    2
     6     6     7    1
     7     7     8    2
     8     8     9    1
     9     9    10    2
    10    10    11    1
    11    11    12    2
    12    11    13   am
    13    13    14    1
    14    14    15    1
    15    15    16    1
    16    14    17    1
    17    17    18    1
    18    17    19    1
    19    17    20    1
    20    10    21    1
    21    21    22    2
    22    22    23    1
    23    23    24    2
    24    23    25    1
    25     6    26    1
    26    26    27    1
    27    27    28    2
    28    27    29   am
    29    29    30    1
    30    30    31    2
    31    31    32    1
    32    32    33    2
    33    33    34    1
    34    34    35    1
    35    34    36    2
    36    33    37    1
    37    37    38    2
    38    26    39    2
    39    39     3    1
    40    22     7    1
    41    38    30    1
@<TRIPOS>SUBSTRUCTURE
     1 RES1        1 GROUP             0 ****  ****    0  
@<TRIPOS>MOLECULE
ligand_41
    39    41     1     0     0
SMALL
USER_CHARGES
****
Generated from the CSD

@<TRIPOS>ATOM
     1 C1      80.7755  41.4766  50.4356   C.3       1 RES1   0.0000
     2 O2      82.0863  41.8691  50.0266   O.3       1 RES1   0.0000
     3 C3      83.1377  41.1791  50.5135   C.2       1 RES1   0.0000
     4 C4      84.3929  41.5322  50.0143   C.2       1 RES1   0.0000
     5 C5      85.4778  40.7357  50.3488   C.2       1 RES1   0.0000
     6 C6      85.3250  39.6348  51.1987   C.2       1 RES1   0.0000
     7 C7      86.5222  38.7769  51.4891   C.2       1 RES1   0.0000
     8 C8      87.6010  39.3636  52.1669   C.2       1 RES1   0.0000
     9 C9      88.7593  38.6423  52.4277   C.2       1 RES1   0.0000
    10 C10     88.8657  37.3053  52.0480   C.2       1 RES1   0.0000
    11 C11     90.1028  36.5017  52.2925   C.2       1 RES1   0.0000
    12 O12     90.8295  36.7304  53.2577   O.2       1 RES1   0.0000
    13 N13     90.3538  35.5020  51.4268   N.am      1 RES1   0.0000
    14 C14     91.4567  34.5505  51.5130   C.3       1 RES1   0.0000
    15 C15     92.3921  34.7136  50.2436   C.3       1 RES1   0.0000
    16 O16     92.9785  36.0009  50.2015   O.3       1 RES1   0.0000
    17 C17     91.0440  33.0868  51.8444   C.3       1 RES1   0.0000
    18 C18     90.1793  32.4993  50.7156   C.3       1 RES1   0.0000
    19 C19     92.2893  32.2059  52.0238   C.3       1 RES1   0.0000
    20 C20     90.2339  33.0612  53.1498   C.3       1 RES1   0.0000
    21 C21     87.7945  36.6975  51.3971   C.2       1 RES1   0.0000
    22 C22     86.6398  37.4255  51.0963   C.2       1 RES1   0.0000
    23 C23     85.6103  36.7052  50.2736   C.2       1 RES1   0.0000
    24 O24     85.2146  35.5862  50.5899   O.co2     1 RES1   0.0000
    25 O25     85.2044  37.3342  49.1925   O.co2     1 RES1  -1.0000
    26 C26     83.9993  39.4222  51.7029   C.2       1 RES1   0.0000
    27 C27     83.7541  38.3509  52.7294   C.2       1 RES1   0.0000
    28 O28     83.7136  37.1711  52.3926   O.2       1 RES1   0.0000
    29 N29     83.4417  38.7611  53.9841   N.am      1 RES1   0.0000
    30 C30     83.0267  37.9728  55.0910   C.2       1 RES1   0.0000
    31 C31     82.8663  36.5911  55.0282   C.2       1 RES1   0.0000
    32 C32     82.5300  35.8717  56.1648   C.2       1 RES1   0.0000
    33 C33     82.3157  36.5204  57.3820   C.2       1 RES1   0.0000
    34 C34     82.0210  35.7488  58.6442   C.2       1 RES1   0.0000
    35 N35     81.1657  36.3789  59.5403   N.pl3     1 RES1   0.0000
    36 N36     82.5382  34.5609  58.7860   N.pl3     1 RES1   1.0000
    37 C37     82.4074  37.9112  57.4210   C.2       1 RES1   0.0000
    38 C38     82.7585  38.6304  56.2881   C.2       1 RES1   0.0000
    39 N39     82.9330  40.1621  51.3526   N.2       1 RES1   0.0000
@<TRIPOS>BOND
     1     1     2    1
     2     2     3    1
     3     3     4    2
     4     4     5    1
     5     5     6    2
     6     6     7    1
     7     7     8    2
     8     8     9    1
     9     9    10    2
    10    10    11    1
    11    11    12    2
    12    11    13   am
    13    13    14    1
    14    14    15    1
    15    15    16    1
    16    14    17    1
    17    17    18    1
    18    17    19    1
    19    17    20    1
    20    10    21    1
    21    21    22    2
    22    22    23    1
    23    23    24    2
    24    23    25    1
    25     6    26    1
    26    26    27    1
    27    27    28    2
    28    27    29   am
    29    29    30    1
    30    30    31    2
    31    31    32    1
    32    32    33    2
    33    33    34    1
    34    34    35    1
    35    34    36    2
    36    33    37    1
    37    37    38    2
    38    26    39    2
    39    39     3    1
    40    22     7    1
    41    38    30    1
@<TRIPOS>SUBSTRUCTURE
     1 RES1        1 GROUP             0 ****  ****    0  
@<TRIPOS>MOLECULE
ligand_42
    39    41     1     0     0
SMALL
USER_CHARGES
****
Generated from the CSD

@<TRIPOS>ATOM
     1 C1      81.4023  42.7168  51.3875   C.3       1 RES1   0.0000
     2 O2      81.5608  41.3523  50.9971   O.3       1 RES1   0.0000
     3 C3      82.7971  40.8160  51.0473   C.2       1 RES1   0.0000
     4 C4      82.8925  39.4550  50.7506   C.2       1 RES1   0.0000
     5 C5      84.1086  38.8228  50.9623   C.2       1 RES1   0.0000
     6 C6      85.2202  39.5396  51.4187   C.2       1 RES1   0.0000
     7 C7      86.4991  38.7975  51.6785   C.2       1 RES1   0.0000
     8 C8      87.1325  38.1806  50.5897   C.2       1 RES1   0.0000
     9 C9      88.2938  37.4384  50.7644   C.2       1 RES1   0.0000
    10 C10     88.8759  37.3140  52.0249   C.2       1 RES1   0.0000
    11 C11     90.1134  36.5075  52.2570   C.2       1 RES1   0.0000
    12 O12     90.8876  36.7795  53.1728   O.2       1 RES1   0.0000
    13 N13     90.3113  35.4570  51.4389   N.am      1 RES1   0.0000
    14 C14     91.4287  34.5207  51.5015   C.3       1 RES1   0.0000
    15 C15     92.2653  34.6101  50.1580   C.3       1 RES1   0.0000
    16 O16     92.8317  35.8964  49.9920   O.3       1 RES1   0.0000
    17 C17     91.0590  33.0779  51.9535   C.3       1 RES1   0.0000
    18 C18     90.1200  32.4143  50.9312   C.3       1 RES1   0.0000
    19 C19     92.3245  32.2190  52.0940   C.3       1 RES1   0.0000
    20 C20     90.3481  33.1289  53.3147   C.3       1 RES1   0.0000
    21 C21     88.2759  37.9415  53.1143   C.2       1 RES1   0.0000
    22 C22     87.0867  38.6587  52.9552   C.2       1 RES1   0.0000
    23 C23     86.4613  39.1740  54.2197   C.2       1 RES1   0.0000
    24 O24     87.1183  39.8122  55.0382   O.co2     1 RES1   0.0000
    25 O25     85.1961  38.8621  54.3967   O.co2     1 RES1  -1.0000
    26 C26     85.0116  40.9448  51.6155   C.2       1 RES1   0.0000
    27 C27     86.1744  41.8291  51.9724   C.2       1 RES1   0.0000
    28 O28     86.6203  41.8307  53.1162   O.2       1 RES1   0.0000
    29 N29     86.5929  42.7067  51.0265   N.am      1 RES1   0.0000
    30 C30     87.5597  43.7407  51.1500   C.2       1 RES1   0.0000
    31 C31     88.2407  44.0131  52.3335   C.2       1 RES1   0.0000
    32 C32     89.2257  44.9884  52.3675   C.2       1 RES1   0.0000
    33 C33     89.5300  45.7345  51.2276   C.2       1 RES1   0.0000
    34 C34     90.6471  46.7481  51.2254   C.2       1 RES1   0.0000
    35 N35     90.4367  47.8629  50.4225   N.pl3     1 RES1   0.0000
    36 N36     91.6840  46.5377  51.9863   N.pl3     1 RES1   1.0000
    37 C37     88.7942  45.5059  50.0655   C.2       1 RES1   0.0000
    38 C38     87.8191  44.5201  50.0264   C.2       1 RES1   0.0000
    39 N39     83.8274  41.5600  51.4538   N.2       1 RES1   0.0000
@<TRIPOS>BOND
     1     1     2    1
     2     2     3    1
     3     3     4    2
     4     4     5    1
     5     5     6    2
     6     6     7    1
     7     7     8    2
     8     8     9    1
     9     9    10    2
    10    10    11    1
    11    11    12    2
    12    11    13   am
    13    13    14    1
    14    14    15    1
    15    15    16    1
    16    14    17    1
    17    17    18    1
    18    17    19    1
    19    17    20    1
    20    10    21    1
    21    21    22    2
    22    22    23    1
    23    23    24    2
    24    23    25    1
    25     6    26    1
    26    26    27    1
    27    27    28    2
    28    27    29   am
    29    29    30    1
    30    30    31    2
    31    31    32    1
    32    32    33    2
    33    33    34    1
    34    34    35    1
    35    34    36    2
    36    33    37    1
    37    37    38    2
    38    26    39    2
    39    39     3    1
    40    22     7    1
    41    38    30    1
@<TRIPOS>SUBSTRUCTURE
     1 RES1        1 GROUP             0 ****  ****    0  
@<TRIPOS>MOLECULE
ligand_43
    39    41     1     0     0
SMALL
USER_CHARGES
****
Generated from the CSD

@<TRIPOS>ATOM
     1 C1      81.7652  43.0666  50.6929   C.3       1 RES1   0.0000
     2 O2      81.7858  41.8036  51.3593   O.3       1 RES1   0.0000
     3 C3      82.9145  41.0684  51.2939   C.2       1 RES1   0.0000
     4 C4      82.9261  39.8871  52.0381   C.2       1 RES1   0.0000
     5 C5      84.1217  39.1925  52.1445   C.2       1 RES1   0.0000
     6 C6      85.2730  39.6408  51.4876   C.2       1 RES1   0.0000
     7 C7      86.5529  38.8792  51.6762   C.2       1 RES1   0.0000
     8 C8      86.6022  37.5548  51.2167   C.2       1 RES1   0.0000
     9 C9      87.7380  36.7761  51.3995   C.2       1 RES1   0.0000
    10 C10     88.8703  37.3035  52.0185   C.2       1 RES1   0.0000
    11 C11     90.1041  36.4917  52.2517   C.2       1 RES1   0.0000
    12 O12     90.8635  36.7425  53.1857   O.2       1 RES1   0.0000
    13 N13     90.3153  35.4603  51.4128   N.am      1 RES1   0.0000
    14 C14     91.4237  34.5137  51.4807   C.3       1 RES1   0.0000
    15 C15     92.2956  34.6297  50.1619   C.3       1 RES1   0.0000
    16 O16     92.8756  35.9151  50.0429   O.3       1 RES1   0.0000
    17 C17     91.0316  33.0631  51.8867   C.3       1 RES1   0.0000
    18 C18     90.1145  32.4328  50.8242   C.3       1 RES1   0.0000
    19 C19     92.2865  32.1908  52.0382   C.3       1 RES1   0.0000
    20 C20     90.2860  33.0860  53.2300   C.3       1 RES1   0.0000
    21 C21     88.8497  38.6252  52.4580   C.2       1 RES1   0.0000
    22 C22     87.6986  39.4048  52.3130   C.2       1 RES1   0.0000
    23 C23     87.7483  40.7658  52.9460   C.2       1 RES1   0.0000
    24 O24     88.6866  41.5300  52.7350   O.co2     1 RES1   0.0000
    25 O25     86.7526  41.0533  53.7555   O.co2     1 RES1  -1.0000
    26 C26     85.1115  40.8257  50.6959   C.2       1 RES1   0.0000
    27 C27     86.2492  41.3134  49.8420   C.2       1 RES1   0.0000
    28 O28     87.1987  41.8988  50.3545   O.2       1 RES1   0.0000
    29 N29     86.1000  41.2051  48.4980   N.am      1 RES1   0.0000
    30 C30     86.9445  41.7126  47.4741   C.2       1 RES1   0.0000
    31 C31     88.1031  42.4412  47.7299   C.2       1 RES1   0.0000
    32 C32     88.9225  42.8447  46.6867   C.2       1 RES1   0.0000
    33 C33     88.5861  42.5563  45.3630   C.2       1 RES1   0.0000
    34 C34     89.5004  42.9227  44.2206   C.2       1 RES1   0.0000
    35 N35     89.4296  42.0884  43.1113   N.pl3     1 RES1   0.0000
    36 N36     90.2415  43.9892  44.3301   N.pl3     1 RES1   1.0000
    37 C37     87.3879  41.8894  45.1102   C.2       1 RES1   0.0000
    38 C38     86.5751  41.4721  46.1539   C.2       1 RES1   0.0000
    39 N39     83.9690  41.5298  50.6191   N.2       1 RES1   0.0000
@<TRIPOS>BOND
     1     1     2    1
     2     2     3    1
     3     3     4    2
     4     4     5    1
     5     5     6    2
     6     6     7    1
     7     7     8    2
     8     8     9    1
     9     9    10    2
    10    10    11    1
    11    11    12    2
    12    11    13   am
    13    13    14    1
    14    14    15    1
    15    15    16    1
    16    14    17    1
    17    17    18    1
    18    17    19    1
    19    17    20    1
    20    10    21    1
    21    21    22    2
    22    22    23    1
    23    23    24    2
    24    23    25    1
    25     6    26    1
    26    26    27    1
    27    27    28    2
    28    27    29   am
    29    29    30    1
    30    30    31    2
    31    31    32    1
    32    32    33    2
    33    33    34    1
    34    34    35    1
    35    34    36    2
    36    33    37    1
    37    37    38    2
    38    26    39    2
    39    39     3    1
    40    22     7    1
    41    38    30    1
@<TRIPOS>SUBSTRUCTURE
     1 RES1        1 GROUP             0 ****  ****    0  
@<TRIPOS>MOLECULE
ligand_44
    39    41     1     0     0
SMALL
USER_CHARGES
****
Generated from the CSD

@<TRIPOS>ATOM
     1 C1      81.9494  43.3297  51.3262   C.3       1 RES1   0.0000
     2 O2      81.9309  41.9464  50.9717   O.3       1 RES1   0.0000
     3 C3      83.0992  41.2728  50.9771   C.2       1 RES1   0.0000
     4 C4      83.0234  39.9027  50.7192   C.2       1 RES1   0.0000
     5 C5      84.1693  39.1404  50.8899   C.2       1 RES1   0.0000
     6 C6      85.3778  39.7360  51.2676   C.2       1 RES1   0.0000
     7 C7      86.5760  38.8585  51.4867   C.2       1 RES1   0.0000
     8 C8      87.0885  38.7610  52.7887   C.2       1 RES1   0.0000
     9 C9      88.2226  38.0044  53.0562   C.2       1 RES1   0.0000
    10 C10     88.8624  37.2974  52.0394   C.2       1 RES1   0.0000
    11 C11     90.0964  36.4889  52.2832   C.2       1 RES1   0.0000
    12 O12     90.8967  36.7993  53.1636   O.2       1 RES1   0.0000
    13 N13     90.2615  35.3941  51.5175   N.am      1 RES1   0.0000
    14 C14     91.3789  34.4584  51.5899   C.3       1 RES1   0.0000
    15 C15     92.1646  34.4705  50.2131   C.3       1 RES1   0.0000
    16 O16     92.7251  35.7440  49.9545   O.3       1 RES1   0.0000
    17 C17     91.0239  33.0441  52.1343   C.3       1 RES1   0.0000
    18 C18     90.0476  32.3280  51.1851   C.3       1 RES1   0.0000
    19 C19     92.2925  32.1902  52.2764   C.3       1 RES1   0.0000
    20 C20     90.3629  33.1729  53.5154   C.3       1 RES1   0.0000
    21 C21     88.3528  37.3607  50.7445   C.2       1 RES1   0.0000
    22 C22     87.2349  38.1496  50.4583   C.2       1 RES1   0.0000
    23 C23     86.8604  38.2486  49.0073   C.2       1 RES1   0.0000
    24 O24     86.6736  39.3388  48.4730   O.co2     1 RES1   0.0000
    25 O25     86.7129  37.1031  48.3785   O.co2     1 RES1  -1.0000
    26 C26     85.3410  41.1604  51.4301   C.2       1 RES1   0.0000
    27 C27     86.6140  41.9138  51.7006   C.2       1 RES1   0.0000
    28 O28     87.6797  41.3117  51.7934   O.2       1 RES1   0.0000
    29 N29     86.4990  43.2371  51.9759   N.am      1 RES1   0.0000
    30 C30     87.5126  44.1418  52.3921   C.2       1 RES1   0.0000
    31 C31     88.8486  44.0167  52.0204   C.2       1 RES1   0.0000
    32 C32     89.7752  44.9755  52.4005   C.2       1 RES1   0.0000
    33 C33     89.3935  46.0639  53.1868   C.2       1 RES1   0.0000
    34 C34     90.3706  47.1545  53.5490   C.2       1 RES1   0.0000
    35 N35     90.1811  47.7313  54.7992   N.pl3     1 RES1   0.0000
    36 N36     91.3239  47.4443  52.7090   N.pl3     1 RES1   1.0000
    37 C37     88.0691  46.1443  53.6154   C.2       1 RES1   0.0000
    38 C38     87.1382  45.1936  53.2232   C.2       1 RES1   0.0000
    39 N39     84.2274  41.9035  51.3082   N.2       1 RES1   0.0000
@<TRIPOS>BOND
     1     1     2    1
     2     2     3    1
     3     3     4    2
     4     4     5    1
     5     5     6    2
     6     6     7    1
     7     7     8    2
     8     8     9    1
     9     9    10    2
    10    10    11    1
    11    11    12    2
    12    11    13   am
    13    13    14    1
    14    14    15    1
    15    15    16    1
    16    14    17    1
    17    17    18    1
    18    17    19    1
    19    17    20    1
    20    10    21    1
    21    21    22    2
    22    22    23    1
    23    23    24    2
    24    23    25    1
    25     6    26    1
    26    26    27    1
    27    27    28    2
    28    27    29   am
    29    29    30    1
    30    30    31    2
    31    31    32    1
    32    32    33    2
    33    33    34    1
    34    34    35    1
    35    34    36    2
    36    33    37    1
    37    37    38    2
    38    26    39    2
    39    39     3    1
    40    22     7    1
    41    38    30    1
@<TRIPOS>SUBSTRUCTURE
     1 RES1        1 GROUP             0 ****  ****    0  
@<TRIPOS>MOLECULE
ligand_45
    39    41     1     0     0
SMALL
USER_CHARGES
****
Generated from the CSD

@<TRIPOS>ATOM
     1 C1      81.9494  43.3297  51.3262   C.3       1 RES1   0.0000
     2 O2      81.9309  41.9464  50.9717   O.3       1 RES1   0.0000
     3 C3      83.0992  41.2728  50.9771   C.2       1 RES1   0.0000
     4 C4      83.0234  39.9027  50.7192   C.2       1 RES1   0.0000
     5 C5      84.1693  39.1404  50.8899   C.2       1 RES1   0.0000
     6 C6      85.3778  39.7360  51.2676   C.2       1 RES1   0.0000
     7 C7      86.5760  38.8585  51.4867   C.2       1 RES1   0.0000
     8 C8      87.0884  38.7608  52.7888   C.2       1 RES1   0.0000
     9 C9      88.2224  38.0042  53.0563   C.2       1 RES1   0.0000
    10 C10     88.8624  37.2974  52.0394   C.2       1 RES1   0.0000
    11 C11     90.0963  36.4888  52.2832   C.2       1 RES1   0.0000
    12 O12     90.8967  36.7993  53.1636   O.2       1 RES1   0.0000
    13 N13     90.2615  35.3941  51.5176   N.am      1 RES1   0.0000
    14 C14     91.3789  34.4584  51.5899   C.3       1 RES1   0.0000
    15 C15     92.1644  34.4705  50.2130   C.3       1 RES1   0.0000
    16 O16     92.7249  35.7440  49.9543   O.3       1 RES1   0.0000
    17 C17     91.0240  33.0442  52.1344   C.3       1 RES1   0.0000
    18 C18     90.0477  32.3279  51.1853   C.3       1 RES1   0.0000
    19 C19     92.2927  32.1903  52.2765   C.3       1 RES1   0.0000
    20 C20     90.3632  33.1729  53.5156   C.3       1 RES1   0.0000
    21 C21     88.3529  37.3609  50.7444   C.2       1 RES1   0.0000
    22 C22     87.2350  38.1498  50.4583   C.2       1 RES1   0.0000
    23 C23     86.8607  38.2490  49.0072   C.2       1 RES1   0.0000
    24 O24     86.6739  39.3393  48.4731   O.co2     1 RES1   0.0000
    25 O25     86.7133  37.1036  48.3782   O.co2     1 RES1  -1.0000
    26 C26     85.3410  41.1604  51.4301   C.2       1 RES1   0.0000
    27 C27     86.6140  41.9138  51.7006   C.2       1 RES1   0.0000
    28 O28     87.6797  41.3117  51.7932   O.2       1 RES1   0.0000
    29 N29     86.4990  43.2371  51.9761   N.am      1 RES1   0.0000
    30 C30     87.5104  44.1395  52.4024   C.2       1 RES1   0.0000
    31 C31     88.6044  43.7533  53.1723   C.2       1 RES1   0.0000
    32 C32     89.5948  44.6691  53.4930   C.2       1 RES1   0.0000
    33 C33     89.4982  45.9984  53.0781   C.2       1 RES1   0.0000
    34 C34     90.5996  46.9913  53.3544   C.2       1 RES1   0.0000
    35 N35     90.7264  48.0135  52.4213   N.pl3     1 RES1   0.0000
    36 N36     91.3089  46.8527  54.4389   N.pl3     1 RES1   1.0000
    37 C37     88.3647  46.3945  52.3692   C.2       1 RES1   0.0000
    38 C38     87.3807  45.4757  52.0350   C.2       1 RES1   0.0000
    39 N39     84.2274  41.9035  51.3082   N.2       1 RES1   0.0000
@<TRIPOS>BOND
     1     1     2    1
     2     2     3    1
     3     3     4    2
     4     4     5    1
     5     5     6    2
     6     6     7    1
     7     7     8    2
     8     8     9    1
     9     9    10    2
    10    10    11    1
    11    11    12    2
    12    11    13   am
    13    13    14    1
    14    14    15    1
    15    15    16    1
    16    14    17    1
    17    17    18    1
    18    17    19    1
    19    17    20    1
    20    10    21    1
    21    21    22    2
    22    22    23    1
    23    23    24    2
    24    23    25    1
    25     6    26    1
    26    26    27    1
    27    27    28    2
    28    27    29   am
    29    29    30    1
    30    30    31    2
    31    31    32    1
    32    32    33    2
    33    33    34    1
    34    34    35    1
    35    34    36    2
    36    33    37    1
    37    37    38    2
    38    26    39    2
    39    39     3    1
    40    22     7    1
    41    38    30    1
@<TRIPOS>SUBSTRUCTURE
     1 RES1        1 GROUP             0 ****  ****    0  
@<TRIPOS>MOLECULE
ligand_46
    39    41     1     0     0
SMALL
USER_CHARGES
****
Generated from the CSD

@<TRIPOS>ATOM
     1 C1      82.1771  43.2904  50.0155   C.3       1 RES1   0.0000
     2 O2      82.0625  42.0923  50.7843   O.3       1 RES1   0.0000
     3 C3      83.1175  41.2529  50.8148   C.2       1 RES1   0.0000
     4 C4      82.9999  40.1432  51.6540   C.2       1 RES1   0.0000
     5 C5      84.1215  39.3526  51.8543   C.2       1 RES1   0.0000
     6 C6      85.3250  39.6348  51.1987   C.2       1 RES1   0.0000
     7 C7      86.5222  38.7769  51.4891   C.2       1 RES1   0.0000
     8 C8      87.6131  39.3714  52.1401   C.2       1 RES1   0.0000
     9 C9      88.7717  38.6498  52.3988   C.2       1 RES1   0.0000
    10 C10     88.8666  37.3051  52.0439   C.2       1 RES1   0.0000
    11 C11     90.1032  36.5004  52.2868   C.2       1 RES1   0.0000
    12 O12     90.8449  36.7448  53.2366   O.2       1 RES1   0.0000
    13 N13     90.3369  35.4821  51.4380   N.am      1 RES1   0.0000
    14 C14     91.4373  34.5279  51.5267   C.3       1 RES1   0.0000
    15 C15     92.3536  34.6612  50.2400   C.3       1 RES1   0.0000
    16 O16     92.9429  35.9455  50.1617   O.3       1 RES1   0.0000
    17 C17     91.0241  33.0731  51.8944   C.3       1 RES1   0.0000
    18 C18     90.1415  32.4656  50.7902   C.3       1 RES1   0.0000
    19 C19     92.2687  32.1914  52.0747   C.3       1 RES1   0.0000
    20 C20     90.2323  33.0777  53.2112   C.3       1 RES1   0.0000
    21 C21     87.7835  36.6899  51.4201   C.2       1 RES1   0.0000
    22 C22     86.6280  37.4175  51.1213   C.2       1 RES1   0.0000
    23 C23     85.5837  36.6863  50.3274   C.2       1 RES1   0.0000
    24 O24     85.0988  37.1783  49.3116   O.co2     1 RES1   0.0000
    25 O25     85.2092  35.5237  50.8147   O.co2     1 RES1  -1.0000
    26 C26     85.2949  40.7578  50.3071   C.2       1 RES1   0.0000
    27 C27     86.4931  41.0637  49.4515   C.2       1 RES1   0.0000
    28 O28     87.4980  40.3623  49.5233   O.2       1 RES1   0.0000
    29 N29     86.4559  42.2108  48.7284   N.am      1 RES1   0.0000
    30 C30     87.4918  42.7973  47.9527   C.2       1 RES1   0.0000
    31 C31     88.4775  42.0550  47.3075   C.2       1 RES1   0.0000
    32 C32     89.4172  42.6843  46.5053   C.2       1 RES1   0.0000
    33 C33     89.4120  44.0721  46.3553   C.2       1 RES1   0.0000
    34 C34     90.3795  44.7675  45.4303   C.2       1 RES1   0.0000
    35 N35     90.7973  46.0267  45.8445   N.pl3     1 RES1   0.0000
    36 N36     90.7797  44.1423  44.3591   N.pl3     1 RES1   1.0000
    37 C37     88.4668  44.8151  47.0616   C.2       1 RES1   0.0000
    38 C38     87.5170  44.1853  47.8524   C.2       1 RES1   0.0000
    39 N39     84.2264  41.5556  50.1372   N.2       1 RES1   0.0000
@<TRIPOS>BOND
     1     1     2    1
     2     2     3    1
     3     3     4    2
     4     4     5    1
     5     5     6    2
     6     6     7    1
     7     7     8    2
     8     8     9    1
     9     9    10    2
    10    10    11    1
    11    11    12    2
    12    11    13   am
    13    13    14    1
    14    14    15    1
    15    15    16    1
    16    14    17    1
    17    17    18    1
    18    17    19    1
    19    17    20    1
    20    10    21    1
    21    21    22    2
    22    22    23    1
    23    23    24    2
    24    23    25    1
    25     6    26    1
    26    26    27    1
    27    27    28    2
    28    27    29   am
    29    29    30    1
    30    30    31    2
    31    31    32    1
    32    32    33    2
    33    33    34    1
    34    34    35    1
    35    34    36    2
    36    33    37    1
    37    37    38    2
    38    26    39    2
    39    39     3    1
    40    22     7    1
    41    38    30    1
@<TRIPOS>SUBSTRUCTURE
     1 RES1        1 GROUP             0 ****  ****    0  
@<TRIPOS>MOLECULE
ligand_47
    39    41     1     0     0
SMALL
USER_CHARGES
****
Generated from the CSD

@<TRIPOS>ATOM
     1 C1      82.1771  43.2904  50.0155   C.3       1 RES1   0.0000
     2 O2      82.0625  42.0923  50.7843   O.3       1 RES1   0.0000
     3 C3      83.1175  41.2529  50.8148   C.2       1 RES1   0.0000
     4 C4      82.9999  40.1432  51.6540   C.2       1 RES1   0.0000
     5 C5      84.1215  39.3526  51.8543   C.2       1 RES1   0.0000
     6 C6      85.3250  39.6348  51.1987   C.2       1 RES1   0.0000
     7 C7      86.5222  38.7769  51.4891   C.2       1 RES1   0.0000
     8 C8      87.6130  39.3714  52.1402   C.2       1 RES1   0.0000
     9 C9      88.7716  38.6497  52.3989   C.2       1 RES1   0.0000
    10 C10     88.8666  37.3051  52.0439   C.2       1 RES1   0.0000
    11 C11     90.1032  36.5004  52.2869   C.2       1 RES1   0.0000
    12 O12     90.8448  36.7447  53.2368   O.2       1 RES1   0.0000
    13 N13     90.3370  35.4823  51.4379   N.am      1 RES1   0.0000
    14 C14     91.4375  34.5281  51.5266   C.3       1 RES1   0.0000
    15 C15     92.3539  34.6616  50.2400   C.3       1 RES1   0.0000
    16 O16     92.9431  35.9459  50.1620   O.3       1 RES1   0.0000
    17 C17     91.0242  33.0731  51.8940   C.3       1 RES1   0.0000
    18 C18     90.1418  32.4658  50.7896   C.3       1 RES1   0.0000
    19 C19     92.2688  32.1915  52.0743   C.3       1 RES1   0.0000
    20 C20     90.2322  33.0776  53.2107   C.3       1 RES1   0.0000
    21 C21     87.7836  36.6899  51.4200   C.2       1 RES1   0.0000
    22 C22     86.6281  37.4175  51.1212   C.2       1 RES1   0.0000
    23 C23     85.5839  36.6864  50.3271   C.2       1 RES1   0.0000
    24 O24     85.0991  37.1785  49.3113   O.co2     1 RES1   0.0000
    25 O25     85.2094  35.5238  50.8142   O.co2     1 RES1  -1.0000
    26 C26     85.2949  40.7578  50.3071   C.2       1 RES1   0.0000
    27 C27     86.4931  41.0637  49.4515   C.2       1 RES1   0.0000
    28 O28     87.4980  40.3623  49.5233   O.2       1 RES1   0.0000
    29 N29     86.4559  42.2109  48.7285   N.am      1 RES1   0.0000
    30 C30     87.4951  42.8028  47.9612   C.2       1 RES1   0.0000
    31 C31     88.8455  42.6741  48.2752   C.2       1 RES1   0.0000
    32 C32     89.8137  43.2153  47.4432   C.2       1 RES1   0.0000
    33 C33     89.4530  43.9240  46.2960   C.2       1 RES1   0.0000
    34 C34     90.4918  44.4569  45.3408   C.2       1 RES1   0.0000
    35 N35     90.0874  44.5504  44.0144   N.pl3     1 RES1   0.0000
    36 N36     91.6489  44.8230  45.8158   N.pl3     1 RES1   1.0000
    37 C37     88.0977  44.1107  46.0267   C.2       1 RES1   0.0000
    38 C38     87.1286  43.5569  46.8502   C.2       1 RES1   0.0000
    39 N39     84.2264  41.5556  50.1372   N.2       1 RES1   0.0000
@<TRIPOS>BOND
     1     1     2    1
     2     2     3    1
     3     3     4    2
     4     4     5    1
     5     5     6    2
     6     6     7    1
     7     7     8    2
     8     8     9    1
     9     9    10    2
    10    10    11    1
    11    11    12    2
    12    11    13   am
    13    13    14    1
    14    14    15    1
    15    15    16    1
    16    14    17    1
    17    17    18    1
    18    17    19    1
    19    17    20    1
    20    10    21    1
    21    21    22    2
    22    22    23    1
    23    23    24    2
    24    23    25    1
    25     6    26    1
    26    26    27    1
    27    27    28    2
    28    27    29   am
    29    29    30    1
    30    30    31    2
    31    31    32    1
    32    32    33    2
    33    33    34    1
    34    34    35    1
    35    34    36    2
    36    33    37    1
    37    37    38    2
    38    26    39    2
    39    39     3    1
    40    22     7    1
    41    38    30    1
@<TRIPOS>SUBSTRUCTURE
     1 RES1        1 GROUP             0 ****  ****    0  
@<TRIPOS>MOLECULE
ligand_48
    39    41     1     0     0
SMALL
USER_CHARGES
****
Generated from the CSD

@<TRIPOS>ATOM
     1 C1      80.7751  41.0934  49.8378   C.3       1 RES1   0.0000
     2 O2      81.9096  41.7471  50.4081   O.3       1 RES1   0.0000
     3 C3      82.9391  40.9838  50.8276   C.2       1 RES1   0.0000
     4 C4      84.0664  41.6664  51.2889   C.2       1 RES1   0.0000
     5 C5      85.2105  40.9315  51.5609   C.2       1 RES1   0.0000
     6 C6      85.2202  39.5396  51.4187   C.2       1 RES1   0.0000
     7 C7      86.4991  38.7975  51.6785   C.2       1 RES1   0.0000
     8 C8      87.1177  38.1569  50.5949   C.2       1 RES1   0.0000
     9 C9      88.2780  37.4135  50.7710   C.2       1 RES1   0.0000
    10 C10     88.8739  37.3114  52.0270   C.2       1 RES1   0.0000
    11 C11     90.1109  36.5045  52.2608   C.2       1 RES1   0.0000
    12 O12     90.8963  36.7910  53.1625   O.2       1 RES1   0.0000
    13 N13     90.2956  35.4377  51.4610   N.am      1 RES1   0.0000
    14 C14     91.4100  34.4981  51.5293   C.3       1 RES1   0.0000
    15 C15     92.2319  34.5582  50.1752   C.3       1 RES1   0.0000
    16 O16     92.8004  35.8391  49.9776   O.3       1 RES1   0.0000
    17 C17     91.0397  33.0658  52.0131   C.3       1 RES1   0.0000
    18 C18     90.0880  32.3860  51.0135   C.3       1 RES1   0.0000
    19 C19     92.3034  32.2051  52.1576   C.3       1 RES1   0.0000
    20 C20     90.3428  33.1460  53.3802   C.3       1 RES1   0.0000
    21 C21     88.2887  37.9624  53.1106   C.2       1 RES1   0.0000
    22 C22     87.1006  38.6811  52.9509   C.2       1 RES1   0.0000
    23 C23     86.4916  39.2235  54.2121   C.2       1 RES1   0.0000
    24 O24     85.3091  39.0281  54.4809   O.co2     1 RES1   0.0000
    25 O25     87.2938  39.9402  54.9685   O.co2     1 RES1  -1.0000
    26 C26     83.9781  38.9512  51.0089   C.2       1 RES1   0.0000
    27 C27     83.8421  37.4545  50.9583   C.2       1 RES1   0.0000
    28 O28     84.7930  36.7379  51.2569   O.2       1 RES1   0.0000
    29 N29     82.6922  36.9585  50.4367   N.am      1 RES1   0.0000
    30 C30     82.3653  35.6053  50.1526   C.2       1 RES1   0.0000
    31 C31     82.8669  34.5288  50.8796   C.2       1 RES1   0.0000
    32 C32     82.4503  33.2368  50.5973   C.2       1 RES1   0.0000
    33 C33     81.5475  32.9888  49.5620   C.2       1 RES1   0.0000
    34 C34     81.0270  31.5999  49.2872   C.2       1 RES1   0.0000
    35 N35     80.7741  31.3134  47.9509   N.pl3     1 RES1   0.0000
    36 N36     80.8943  30.7730  50.2857   N.pl3     1 RES1   1.0000
    37 C37     81.1051  34.0637  48.7918   C.2       1 RES1   0.0000
    38 C38     81.5096  35.3582  49.0830   C.2       1 RES1   0.0000
    39 N39     82.8757  39.6569  50.7024   N.2       1 RES1   0.0000
@<TRIPOS>BOND
     1     1     2    1
     2     2     3    1
     3     3     4    2
     4     4     5    1
     5     5     6    2
     6     6     7    1
     7     7     8    2
     8     8     9    1
     9     9    10    2
    10    10    11    1
    11    11    12    2
    12    11    13   am
    13    13    14    1
    14    14    15    1
    15    15    16    1
    16    14    17    1
    17    17    18    1
    18    17    19    1
    19    17    20    1
    20    10    21    1
    21    21    22    2
    22    22    23    1
    23    23    24    2
    24    23    25    1
    25     6    26    1
    26    26    27    1
    27    27    28    2
    28    27    29   am
    29    29    30    1
    30    30    31    2
    31    31    32    1
    32    32    33    2
    33    33    34    1
    34    34    35    1
    35    34    36    2
    36    33    37    1
    37    37    38    2
    38    26    39    2
    39    39     3    1
    40    22     7    1
    41    38    30    1
@<TRIPOS>SUBSTRUCTURE
     1 RES1        1 GROUP             0 ****  ****    0  
@<TRIPOS>MOLECULE
ligand_49
    39    41     1     0     0
SMALL
USER_CHARGES
****
Generated from the CSD

@<TRIPOS>ATOM
     1 C1      80.7751  41.0934  49.8378   C.3       1 RES1   0.0000
     2 O2      81.9096  41.7471  50.4081   O.3       1 RES1   0.0000
     3 C3      82.9391  40.9838  50.8276   C.2       1 RES1   0.0000
     4 C4      84.0664  41.6664  51.2889   C.2       1 RES1   0.0000
     5 C5      85.2105  40.9315  51.5609   C.2       1 RES1   0.0000
     6 C6      85.2202  39.5396  51.4187   C.2       1 RES1   0.0000
     7 C7      86.4991  38.7975  51.6785   C.2       1 RES1   0.0000
     8 C8      87.1177  38.1569  50.5949   C.2       1 RES1   0.0000
     9 C9      88.2780  37.4135  50.7710   C.2       1 RES1   0.0000
    10 C10     88.8739  37.3114  52.0270   C.2       1 RES1   0.0000
    11 C11     90.1109  36.5045  52.2608   C.2       1 RES1   0.0000
    12 O12     90.8964  36.7911  53.1624   O.2       1 RES1   0.0000
    13 N13     90.2955  35.4376  51.4611   N.am      1 RES1   0.0000
    14 C14     91.4099  34.4980  51.5294   C.3       1 RES1   0.0000
    15 C15     92.2318  34.5580  50.1752   C.3       1 RES1   0.0000
    16 O16     92.8003  35.8388  49.9775   O.3       1 RES1   0.0000
    17 C17     91.0396  33.0658  52.0134   C.3       1 RES1   0.0000
    18 C18     90.0878  32.3859  51.0139   C.3       1 RES1   0.0000
    19 C19     92.3034  32.2050  52.1578   C.3       1 RES1   0.0000
    20 C20     90.3429  33.1461  53.3805   C.3       1 RES1   0.0000
    21 C21     88.2888  37.9625  53.1106   C.2       1 RES1   0.0000
    22 C22     87.1006  38.6812  52.9509   C.2       1 RES1   0.0000
    23 C23     86.4917  39.2236  54.2121   C.2       1 RES1   0.0000
    24 O24     85.3091  39.0282  54.4810   O.co2     1 RES1   0.0000
    25 O25     87.2939  39.9404  54.9685   O.co2     1 RES1  -1.0000
    26 C26     83.9781  38.9512  51.0089   C.2       1 RES1   0.0000
    27 C27     83.8421  37.4545  50.9583   C.2       1 RES1   0.0000
    28 O28     84.7930  36.7379  51.2570   O.2       1 RES1   0.0000
    29 N29     82.6922  36.9585  50.4367   N.am      1 RES1   0.0000
    30 C30     82.3693  35.6064  50.1427   C.2       1 RES1   0.0000
    31 C31     83.3174  34.6581  49.7679   C.2       1 RES1   0.0000
    32 C32     82.9468  33.3373  49.5664   C.2       1 RES1   0.0000
    33 C33     81.6154  32.9413  49.7042   C.2       1 RES1   0.0000
    34 C34     81.2048  31.4969  49.5607   C.2       1 RES1   0.0000
    35 N35     80.0927  31.1184  50.3035   N.pl3     1 RES1   0.0000
    36 N36     81.8739  30.7350  48.7420   N.pl3     1 RES1   1.0000
    37 C37     80.6601  33.9102  50.0091   C.2       1 RES1   0.0000
    38 C38     81.0322  35.2289  50.2256   C.2       1 RES1   0.0000
    39 N39     82.8757  39.6569  50.7024   N.2       1 RES1   0.0000
@<TRIPOS>BOND
     1     1     2    1
     2     2     3    1
     3     3     4    2
     4     4     5    1
     5     5     6    2
     6     6     7    1
     7     7     8    2
     8     8     9    1
     9     9    10    2
    10    10    11    1
    11    11    12    2
    12    11    13   am
    13    13    14    1
    14    14    15    1
    15    15    16    1
    16    14    17    1
    17    17    18    1
    18    17    19    1
    19    17    20    1
    20    10    21    1
    21    21    22    2
    22    22    23    1
    23    23    24    2
    24    23    25    1
    25     6    26    1
    26    26    27    1
    27    27    28    2
    28    27    29   am
    29    29    30    1
    30    30    31    2
    31    31    32    1
    32    32    33    2
    33    33    34    1
    34    34    35    1
    35    34    36    2
    36    33    37    1
    37    37    38    2
    38    26    39    2
    39    39     3    1
    40    22     7    1
    41    38    30    1
@<TRIPOS>SUBSTRUCTURE
     1 RES1        1 GROUP             0 ****  ****    0  
@<TRIPOS>MOLECULE
ligand_50
    39    41     1     0     0
SMALL
USER_CHARGES
****
Generated from the CSD

@<TRIPOS>ATOM
     1 C1      80.5474  41.1327  51.1486   C.3       1 RES1   0.0000
     2 O2      81.7779  41.6012  50.5955   O.3       1 RES1   0.0000
     3 C3      82.9208  41.0037  50.9900   C.2       1 RES1   0.0000
     4 C4      84.0899  41.4259  50.3541   C.2       1 RES1   0.0000
     5 C5      85.2583  40.7193  50.5965   C.2       1 RES1   0.0000
     6 C6      85.2730  39.6408  51.4876   C.2       1 RES1   0.0000
     7 C7      86.5529  38.8792  51.6762   C.2       1 RES1   0.0000
     8 C8      86.5931  37.5460  51.2422   C.2       1 RES1   0.0000
     9 C9      87.7289  36.7676  51.4270   C.2       1 RES1   0.0000
    10 C10     88.8697  37.3035  52.0223   C.2       1 RES1   0.0000
    11 C11     90.1040  36.4928  52.2570   C.2       1 RES1   0.0000
    12 O12     90.8731  36.7574  53.1792   O.2       1 RES1   0.0000
    13 N13     90.3046  35.4469  51.4336   N.am      1 RES1   0.0000
    14 C14     91.4104  34.4978  51.5077   C.3       1 RES1   0.0000
    15 C15     92.2712  34.5890  50.1797   C.3       1 RES1   0.0000
    16 O16     92.8534  35.8707  50.0337   O.3       1 RES1   0.0000
    17 C17     91.0171  33.0555  51.9410   C.3       1 RES1   0.0000
    18 C18     90.0900  32.4102  50.8963   C.3       1 RES1   0.0000
    19 C19     92.2706  32.1819  52.0975   C.3       1 RES1   0.0000
    20 C20     90.2819  33.1033  53.2894   C.3       1 RES1   0.0000
    21 C21     88.8580  38.6337  52.4361   C.2       1 RES1   0.0000
    22 C22     87.7074  39.4137  52.2892   C.2       1 RES1   0.0000
    23 C23     87.7682  40.7866  52.8948   C.2       1 RES1   0.0000
    24 O24     86.8832  41.1889  53.6457   O.co2     1 RES1   0.0000
    25 O25     88.7980  41.5216  52.5358   O.co2     1 RES1  -1.0000
    26 C26     84.0242  39.3538  52.1319   C.2       1 RES1   0.0000
    27 C27     83.9630  38.3046  53.2074   C.2       1 RES1   0.0000
    28 O28     84.9755  37.6883  53.5266   O.2       1 RES1   0.0000
    29 N29     82.7344  37.9836  53.6845   N.am      1 RES1   0.0000
    30 C30     82.3847  36.9481  54.5925   C.2       1 RES1   0.0000
    31 C31     83.2368  36.4889  55.5933   C.2       1 RES1   0.0000
    32 C32     82.8068  35.5260  56.4935   C.2       1 RES1   0.0000
    33 C33     81.5269  34.9779  56.3941   C.2       1 RES1   0.0000
    34 C34     81.0154  33.9837  57.4067   C.2       1 RES1   0.0000
    35 N35     80.1546  33.0143  56.9058   N.pl3     1 RES1   0.0000
    36 N36     81.4360  34.0717  58.6371   N.pl3     1 RES1   1.0000
    37 C37     80.7051  35.3900  55.3457   C.2       1 RES1   0.0000
    38 C38     81.1289  36.3642  54.4538   C.2       1 RES1   0.0000
    39 N39     82.8768  40.0048  51.8735   N.2       1 RES1   0.0000
@<TRIPOS>BOND
     1     1     2    1
     2     2     3    1
     3     3     4    2
     4     4     5    1
     5     5     6    2
     6     6     7    1
     7     7     8    2
     8     8     9    1
     9     9    10    2
    10    10    11    1
    11    11    12    2
    12    11    13   am
    13    13    14    1
    14    14    15    1
    15    15    16    1
    16    14    17    1
    17    17    18    1
    18    17    19    1
    19    17    20    1
    20    10    21    1
    21    21    22    2
    22    22    23    1
    23    23    24    2
    24    23    25    1
    25     6    26    1
    26    26    27    1
    27    27    28    2
    28    27    29   am
    29    29    30    1
    30    30    31    2
    31    31    32    1
    32    32    33    2
    33    33    34    1
    34    34    35    1
    35    34    36    2
    36    33    37    1
    37    37    38    2
    38    26    39    2
    39    39     3    1
    40    22     7    1
    41    38    30    1
@<TRIPOS>SUBSTRUCTURE
     1 RES1        1 GROUP             0 ****  ****    0  
@<TRIPOS>MOLECULE
ligand_51
    39    41     1     0     0
SMALL
USER_CHARGES
****
Generated from the CSD

@<TRIPOS>ATOM
     1 C1      80.5474  41.1327  51.1486   C.3       1 RES1   0.0000
     2 O2      81.7779  41.6012  50.5955   O.3       1 RES1   0.0000
     3 C3      82.9208  41.0037  50.9900   C.2       1 RES1   0.0000
     4 C4      84.0899  41.4259  50.3541   C.2       1 RES1   0.0000
     5 C5      85.2583  40.7193  50.5965   C.2       1 RES1   0.0000
     6 C6      85.2730  39.6408  51.4876   C.2       1 RES1   0.0000
     7 C7      86.5529  38.8792  51.6762   C.2       1 RES1   0.0000
     8 C8      86.5931  37.5460  51.2422   C.2       1 RES1   0.0000
     9 C9      87.7289  36.7676  51.4270   C.2       1 RES1   0.0000
    10 C10     88.8697  37.3035  52.0223   C.2       1 RES1   0.0000
    11 C11     90.1040  36.4928  52.2570   C.2       1 RES1   0.0000
    12 O12     90.8731  36.7574  53.1792   O.2       1 RES1   0.0000
    13 N13     90.3045  35.4469  51.4337   N.am      1 RES1   0.0000
    14 C14     91.4104  34.4978  51.5077   C.3       1 RES1   0.0000
    15 C15     92.2711  34.5890  50.1797   C.3       1 RES1   0.0000
    16 O16     92.8533  35.8706  50.0337   O.3       1 RES1   0.0000
    17 C17     91.0171  33.0555  51.9411   C.3       1 RES1   0.0000
    18 C18     90.0900  32.4102  50.8965   C.3       1 RES1   0.0000
    19 C19     92.2706  32.1819  52.0976   C.3       1 RES1   0.0000
    20 C20     90.2820  33.1033  53.2895   C.3       1 RES1   0.0000
    21 C21     88.8580  38.6337  52.4361   C.2       1 RES1   0.0000
    22 C22     87.7074  39.4137  52.2892   C.2       1 RES1   0.0000
    23 C23     87.7682  40.7867  52.8948   C.2       1 RES1   0.0000
    24 O24     86.8832  41.1889  53.6457   O.co2     1 RES1   0.0000
    25 O25     88.7980  41.5216  52.5358   O.co2     1 RES1  -1.0000
    26 C26     84.0242  39.3538  52.1319   C.2       1 RES1   0.0000
    27 C27     83.9630  38.3046  53.2074   C.2       1 RES1   0.0000
    28 O28     84.9756  37.6883  53.5267   O.2       1 RES1   0.0000
    29 N29     82.7344  37.9836  53.6845   N.am      1 RES1   0.0000
    30 C30     82.3833  36.9413  54.5842   C.2       1 RES1   0.0000
    31 C31     83.0750  35.7356  54.6647   C.2       1 RES1   0.0000
    32 C32     82.7261  34.7890  55.6159   C.2       1 RES1   0.0000
    33 C33     81.6583  35.0130  56.4866   C.2       1 RES1   0.0000
    34 C34     81.3100  34.0281  57.5747   C.2       1 RES1   0.0000
    35 N35     80.7292  34.5784  58.7111   N.pl3     1 RES1   0.0000
    36 N36     81.5309  32.7608  57.3653   N.pl3     1 RES1   1.0000
    37 C37     80.9249  36.1912  56.3523   C.2       1 RES1   0.0000
    38 C38     81.2825  37.1454  55.4112   C.2       1 RES1   0.0000
    39 N39     82.8768  40.0048  51.8735   N.2       1 RES1   0.0000
@<TRIPOS>BOND
     1     1     2    1
     2     2     3    1
     3     3     4    2
     4     4     5    1
     5     5     6    2
     6     6     7    1
     7     7     8    2
     8     8     9    1
     9     9    10    2
    10    10    11    1
    11    11    12    2
    12    11    13   am
    13    13    14    1
    14    14    15    1
    15    15    16    1
    16    14    17    1
    17    17    18    1
    18    17    19    1
    19    17    20    1
    20    10    21    1
    21    21    22    2
    22    22    23    1
    23    23    24    2
    24    23    25    1
    25     6    26    1
    26    26    27    1
    27    27    28    2
    28    27    29   am
    29    29    30    1
    30    30    31    2
    31    31    32    1
    32    32    33    2
    33    33    34    1
    34    34    35    1
    35    34    36    2
    36    33    37    1
    37    37    38    2
    38    26    39    2
    39    39     3    1
    40    22     7    1
    41    38    30    1
@<TRIPOS>SUBSTRUCTURE
     1 RES1        1 GROUP             0 ****  ****    0  
@<TRIPOS>MOLECULE
ligand_52
    39    41     1     0     0
SMALL
USER_CHARGES
****
Generated from the CSD

@<TRIPOS>ATOM
     1 C1      81.1385  41.8263  49.7410   C.3       1 RES1   0.0000
     2 O2      82.3114  42.3205  50.3888   O.3       1 RES1   0.0000
     3 C3      83.2551  41.4315  50.7601   C.2       1 RES1   0.0000
     4 C4      84.4265  41.9643  51.3017   C.2       1 RES1   0.0000
     5 C5      85.4910  41.1055  51.5310   C.2       1 RES1   0.0000
     6 C6      85.3778  39.7360  51.2676   C.2       1 RES1   0.0000
     7 C7      86.5760  38.8585  51.4867   C.2       1 RES1   0.0000
     8 C8      87.0992  38.7748  52.7854   C.2       1 RES1   0.0000
     9 C9      88.2339  38.0189  53.0520   C.2       1 RES1   0.0000
    10 C10     88.8638  37.2989  52.0381   C.2       1 RES1   0.0000
    11 C11     90.0981  36.4906  52.2808   C.2       1 RES1   0.0000
    12 O12     90.9057  36.8086  53.1517   O.2       1 RES1   0.0000
    13 N13     90.2553  35.3877  51.5253   N.am      1 RES1   0.0000
    14 C14     91.3714  34.4505  51.5989   C.3       1 RES1   0.0000
    15 C15     92.1465  34.4467  50.2161   C.3       1 RES1   0.0000
    16 O16     92.7081  35.7161  49.9403   O.3       1 RES1   0.0000
    17 C17     91.0179  33.0427  52.1607   C.3       1 RES1   0.0000
    18 C18     90.0323  32.3190  51.2270   C.3       1 RES1   0.0000
    19 C19     92.2858  32.1875  52.3013   C.3       1 RES1   0.0000
    20 C20     90.3686  33.1871  53.5458   C.3       1 RES1   0.0000
    21 C21     88.3434  37.3485  50.7468   C.2       1 RES1   0.0000
    22 C22     87.2248  38.1365  50.4610   C.2       1 RES1   0.0000
    23 C23     86.8383  38.2197  49.0121   C.2       1 RES1   0.0000
    24 O24     85.9346  38.9628  48.6380   O.co2     1 RES1   0.0000
    25 O25     87.5003  37.4247  48.2003   O.co2     1 RES1  -1.0000
    26 C26     84.0991  39.3030  50.7832   C.2       1 RES1   0.0000
    27 C27     83.8289  37.8352  50.5989   C.2       1 RES1   0.0000
    28 O28     84.2943  37.0181  51.3881   O.2       1 RES1   0.0000
    29 N29     83.1865  37.4659  49.4627   N.am      1 RES1   0.0000
    30 C30     82.9381  36.1536  48.9777   C.2       1 RES1   0.0000
    31 C31     83.3537  35.0021  49.6411   C.2       1 RES1   0.0000
    32 C32     83.0149  33.7498  49.1518   C.2       1 RES1   0.0000
    33 C33     82.2802  33.6201  47.9720   C.2       1 RES1   0.0000
    34 C34     81.8399  32.2700  47.4633   C.2       1 RES1   0.0000
    35 N35     80.6596  32.2672  46.7295   N.pl3     1 RES1   0.0000
    36 N36     82.5951  31.2350  47.7021   N.pl3     1 RES1   1.0000
    37 C37     81.9296  34.7756  47.2748   C.2       1 RES1   0.0000
    38 C38     82.2551  36.0292  47.7714   C.2       1 RES1   0.0000
    39 N39     83.0746  40.1319  50.5179   N.2       1 RES1   0.0000
@<TRIPOS>BOND
     1     1     2    1
     2     2     3    1
     3     3     4    2
     4     4     5    1
     5     5     6    2
     6     6     7    1
     7     7     8    2
     8     8     9    1
     9     9    10    2
    10    10    11    1
    11    11    12    2
    12    11    13   am
    13    13    14    1
    14    14    15    1
    15    15    16    1
    16    14    17    1
    17    17    18    1
    18    17    19    1
    19    17    20    1
    20    10    21    1
    21    21    22    2
    22    22    23    1
    23    23    24    2
    24    23    25    1
    25     6    26    1
    26    26    27    1
    27    27    28    2
    28    27    29   am
    29    29    30    1
    30    30    31    2
    31    31    32    1
    32    32    33    2
    33    33    34    1
    34    34    35    1
    35    34    36    2
    36    33    37    1
    37    37    38    2
    38    26    39    2
    39    39     3    1
    40    22     7    1
    41    38    30    1
@<TRIPOS>SUBSTRUCTURE
     1 RES1        1 GROUP             0 ****  ****    0  
@<TRIPOS>MOLECULE
ligand_53
    39    41     1     0     0
SMALL
USER_CHARGES
****
Generated from the CSD

@<TRIPOS>ATOM
     1 C1      80.7755  41.4766  50.4356   C.3       1 RES1   0.0000
     2 O2      82.0863  41.8691  50.0266   O.3       1 RES1   0.0000
     3 C3      83.1377  41.1791  50.5135   C.2       1 RES1   0.0000
     4 C4      84.3929  41.5322  50.0143   C.2       1 RES1   0.0000
     5 C5      85.4778  40.7357  50.3488   C.2       1 RES1   0.0000
     6 C6      85.3250  39.6348  51.1987   C.2       1 RES1   0.0000
     7 C7      86.5222  38.7769  51.4891   C.2       1 RES1   0.0000
     8 C8      87.6202  39.3759  52.1239   C.2       1 RES1   0.0000
     9 C9      88.7789  38.6539  52.3813   C.2       1 RES1   0.0000
    10 C10     88.8670  37.3049  52.0415   C.2       1 RES1   0.0000
    11 C11     90.1034  36.4995  52.2834   C.2       1 RES1   0.0000
    12 O12     90.8537  36.7529  53.2241   O.2       1 RES1   0.0000
    13 N13     90.3272  35.4708  51.4446   N.am      1 RES1   0.0000
    14 C14     91.4252  34.5141  51.5358   C.3       1 RES1   0.0000
    15 C15     92.3318  34.6295  50.2405   C.3       1 RES1   0.0000
    16 O16     92.9252  35.9106  50.1432   O.3       1 RES1   0.0000
    17 C17     91.0101  33.0649  51.9233   C.3       1 RES1   0.0000
    18 C18     90.1162  32.4480  50.8336   C.3       1 RES1   0.0000
    19 C19     92.2532  32.1810  52.1032   C.3       1 RES1   0.0000
    20 C20     90.2294  33.0872  53.2465   C.3       1 RES1   0.0000
    21 C21     87.7771  36.6856  51.4341   C.2       1 RES1   0.0000
    22 C22     86.6211  37.4130  51.1364   C.2       1 RES1   0.0000
    23 C23     85.5681  36.6756  50.3599   C.2       1 RES1   0.0000
    24 O24     84.5581  37.2480  49.9586   O.co2     1 RES1   0.0000
    25 O25     85.7877  35.3913  50.1816   O.co2     1 RES1  -1.0000
    26 C26     83.9993  39.4222  51.7029   C.2       1 RES1   0.0000
    27 C27     83.7541  38.3509  52.7294   C.2       1 RES1   0.0000
    28 O28     84.5910  38.1263  53.5990   O.2       1 RES1   0.0000
    29 N29     82.6579  37.5712  52.5550   N.am      1 RES1   0.0000
    30 C30     82.2757  36.4127  53.2836   C.2       1 RES1   0.0000
    31 C31     83.0262  35.8869  54.3320   C.2       1 RES1   0.0000
    32 C32     82.5600  34.7964  55.0503   C.2       1 RES1   0.0000
    33 C33     81.3488  34.1879  54.7170   C.2       1 RES1   0.0000
    34 C34     80.7902  33.0477  55.5314   C.2       1 RES1   0.0000
    35 N35     79.4038  32.9511  55.5465   N.pl3     1 RES1   0.0000
    36 N36     81.6208  32.2292  56.1133   N.pl3     1 RES1   1.0000
    37 C37     80.6379  34.6749  53.6207   C.2       1 RES1   0.0000
    38 C38     81.0960  35.7750  52.9108   C.2       1 RES1   0.0000
    39 N39     82.9330  40.1621  51.3526   N.2       1 RES1   0.0000
@<TRIPOS>BOND
     1     1     2    1
     2     2     3    1
     3     3     4    2
     4     4     5    1
     5     5     6    2
     6     6     7    1
     7     7     8    2
     8     8     9    1
     9     9    10    2
    10    10    11    1
    11    11    12    2
    12    11    13   am
    13    13    14    1
    14    14    15    1
    15    15    16    1
    16    14    17    1
    17    17    18    1
    18    17    19    1
    19    17    20    1
    20    10    21    1
    21    21    22    2
    22    22    23    1
    23    23    24    2
    24    23    25    1
    25     6    26    1
    26    26    27    1
    27    27    28    2
    28    27    29   am
    29    29    30    1
    30    30    31    2
    31    31    32    1
    32    32    33    2
    33    33    34    1
    34    34    35    1
    35    34    36    2
    36    33    37    1
    37    37    38    2
    38    26    39    2
    39    39     3    1
    40    22     7    1
    41    38    30    1
@<TRIPOS>SUBSTRUCTURE
     1 RES1        1 GROUP             0 ****  ****    0  
@<TRIPOS>MOLECULE
ligand_54
    39    41     1     0     0
SMALL
USER_CHARGES
****
Generated from the CSD

@<TRIPOS>ATOM
     1 C1      81.4023  42.7168  51.3875   C.3       1 RES1   0.0000
     2 O2      81.5608  41.3523  50.9971   O.3       1 RES1   0.0000
     3 C3      82.7971  40.8160  51.0473   C.2       1 RES1   0.0000
     4 C4      82.8925  39.4550  50.7506   C.2       1 RES1   0.0000
     5 C5      84.1086  38.8228  50.9623   C.2       1 RES1   0.0000
     6 C6      85.2202  39.5396  51.4187   C.2       1 RES1   0.0000
     7 C7      86.4991  38.7975  51.6785   C.2       1 RES1   0.0000
     8 C8      87.1070  38.1400  50.5990   C.2       1 RES1   0.0000
     9 C9      88.2667  37.3958  50.7761   C.2       1 RES1   0.0000
    10 C10     88.8725  37.3095  52.0285   C.2       1 RES1   0.0000
    11 C11     90.1091  36.5024  52.2636   C.2       1 RES1   0.0000
    12 O12     90.9028  36.7994  53.1545   O.2       1 RES1   0.0000
    13 N13     90.2841  35.4237  51.4776   N.am      1 RES1   0.0000
    14 C14     91.3964  34.4820  51.5501   C.3       1 RES1   0.0000
    15 C15     92.2070  34.5204  50.1883   C.3       1 RES1   0.0000
    16 O16     92.7780  35.7964  49.9679   O.3       1 RES1   0.0000
    17 C17     91.0263  33.0579  52.0574   C.3       1 RES1   0.0000
    18 C18     90.0636  32.3668  51.0762   C.3       1 RES1   0.0000
    19 C19     92.2888  32.1954  52.2027   C.3       1 RES1   0.0000
    20 C20     90.3421  33.1596  53.4295   C.3       1 RES1   0.0000
    21 C21     88.2980  37.9774  53.1076   C.2       1 RES1   0.0000
    22 C22     87.1106  38.6973  52.9475   C.2       1 RES1   0.0000
    23 C23     86.5135  39.2591  54.2059   C.2       1 RES1   0.0000
    24 O24     85.4210  39.8205  54.1943   O.co2     1 RES1   0.0000
    25 O25     87.2517  39.1409  55.2877   O.co2     1 RES1  -1.0000
    26 C26     85.0116  40.9448  51.6155   C.2       1 RES1   0.0000
    27 C27     86.1744  41.8291  51.9724   C.2       1 RES1   0.0000
    28 O28     87.2820  41.6181  51.4869   O.2       1 RES1   0.0000
    29 N29     85.9697  42.7518  52.9454   N.am      1 RES1   0.0000
    30 C30     86.9225  43.6031  53.5670   C.2       1 RES1   0.0000
    31 C31     88.2776  43.5961  53.2468   C.2       1 RES1   0.0000
    32 C32     89.1427  44.5039  53.8383   C.2       1 RES1   0.0000
    33 C33     88.6788  45.4177  54.7860   C.2       1 RES1   0.0000
    34 C34     89.5892  46.4602  55.3860   C.2       1 RES1   0.0000
    35 N35     88.9675  47.6424  55.7700   N.pl3     1 RES1   0.0000
    36 N36     90.8515  46.1746  55.5389   N.pl3     1 RES1   1.0000
    37 C37     87.3349  45.3709  55.1548   C.2       1 RES1   0.0000
    38 C38     86.4656  44.4732  54.5526   C.2       1 RES1   0.0000
    39 N39     83.8274  41.5600  51.4538   N.2       1 RES1   0.0000
@<TRIPOS>BOND
     1     1     2    1
     2     2     3    1
     3     3     4    2
     4     4     5    1
     5     5     6    2
     6     6     7    1
     7     7     8    2
     8     8     9    1
     9     9    10    2
    10    10    11    1
    11    11    12    2
    12    11    13   am
    13    13    14    1
    14    14    15    1
    15    15    16    1
    16    14    17    1
    17    17    18    1
    18    17    19    1
    19    17    20    1
    20    10    21    1
    21    21    22    2
    22    22    23    1
    23    23    24    2
    24    23    25    1
    25     6    26    1
    26    26    27    1
    27    27    28    2
    28    27    29   am
    29    29    30    1
    30    30    31    2
    31    31    32    1
    32    32    33    2
    33    33    34    1
    34    34    35    1
    35    34    36    2
    36    33    37    1
    37    37    38    2
    38    26    39    2
    39    39     3    1
    40    22     7    1
    41    38    30    1
@<TRIPOS>SUBSTRUCTURE
     1 RES1        1 GROUP             0 ****  ****    0  
@<TRIPOS>MOLECULE
ligand_55
    39    41     1     0     0
SMALL
USER_CHARGES
****
Generated from the CSD

@<TRIPOS>ATOM
     1 C1      80.7455  41.2358  50.6116   C.3       1 RES1   0.0000
     2 O2      81.9309  41.9464  50.9717   O.3       1 RES1   0.0000
     3 C3      83.0992  41.2728  50.9771   C.2       1 RES1   0.0000
     4 C4      83.0234  39.9027  50.7192   C.2       1 RES1   0.0000
     5 C5      84.1693  39.1404  50.8899   C.2       1 RES1   0.0000
     6 C6      85.3778  39.7360  51.2676   C.2       1 RES1   0.0000
     7 C7      86.5760  38.8585  51.4867   C.2       1 RES1   0.0000
     8 C8      87.1018  38.7780  52.7846   C.2       1 RES1   0.0000
     9 C9      88.2366  38.0223  53.0510   C.2       1 RES1   0.0000
    10 C10     88.8641  37.2993  52.0378   C.2       1 RES1   0.0000
    11 C11     90.0985  36.4910  52.2802   C.2       1 RES1   0.0000
    12 O12     90.9073  36.8102  53.1496   O.2       1 RES1   0.0000
    13 N13     90.2545  35.3868  51.5263   N.am      1 RES1   0.0000
    14 C14     91.3705  34.4496  51.5999   C.3       1 RES1   0.0000
    15 C15     92.1436  34.4433  50.2160   C.3       1 RES1   0.0000
    16 O16     92.7083  35.7111  49.9390   O.3       1 RES1   0.0000
    17 C17     91.0175  33.0428  52.1646   C.3       1 RES1   0.0000
    18 C18     90.0268  32.3196  51.2357   C.3       1 RES1   0.0000
    19 C19     92.2848  32.1859  52.3004   C.3       1 RES1   0.0000
    20 C20     90.3743  33.1894  53.5523   C.3       1 RES1   0.0000
    21 C21     88.3412  37.3456  50.7474   C.2       1 RES1   0.0000
    22 C22     87.2224  38.1333  50.4617   C.2       1 RES1   0.0000
    23 C23     86.8331  38.2128  49.0134   C.2       1 RES1   0.0000
    24 O24     85.9309  38.9575  48.6386   O.co2     1 RES1   0.0000
    25 O25     87.4908  37.4129  48.2029   O.co2     1 RES1  -1.0000
    26 C26     85.3410  41.1604  51.4301   C.2       1 RES1   0.0000
    27 C27     86.6140  41.9138  51.7006   C.2       1 RES1   0.0000
    28 O28     87.4576  42.0374  50.8174   O.2       1 RES1   0.0000
    29 N29     86.8357  42.3080  52.9796   N.am      1 RES1   0.0000
    30 C30     88.0062  42.8961  53.5300   C.2       1 RES1   0.0000
    31 C31     89.1565  43.1488  52.7872   C.2       1 RES1   0.0000
    32 C32     90.2387  43.7927  53.3674   C.2       1 RES1   0.0000
    33 C33     90.2075  44.1700  54.7109   C.2       1 RES1   0.0000
    34 C34     91.3448  44.9356  55.3402   C.2       1 RES1   0.0000
    35 N35     91.5857  44.6490  56.6787   N.pl3     1 RES1   0.0000
    36 N36     92.0315  45.7577  54.5979   N.pl3     1 RES1   1.0000
    37 C37     89.0808  43.8492  55.4672   C.2       1 RES1   0.0000
    38 C38     87.9917  43.2186  54.8839   C.2       1 RES1   0.0000
    39 N39     84.2274  41.9035  51.3082   N.2       1 RES1   0.0000
@<TRIPOS>BOND
     1     1     2    1
     2     2     3    1
     3     3     4    2
     4     4     5    1
     5     5     6    2
     6     6     7    1
     7     7     8    2
     8     8     9    1
     9     9    10    2
    10    10    11    1
    11    11    12    2
    12    11    13   am
    13    13    14    1
    14    14    15    1
    15    15    16    1
    16    14    17    1
    17    17    18    1
    18    17    19    1
    19    17    20    1
    20    10    21    1
    21    21    22    2
    22    22    23    1
    23    23    24    2
    24    23    25    1
    25     6    26    1
    26    26    27    1
    27    27    28    2
    28    27    29   am
    29    29    30    1
    30    30    31    2
    31    31    32    1
    32    32    33    2
    33    33    34    1
    34    34    35    1
    35    34    36    2
    36    33    37    1
    37    37    38    2
    38    26    39    2
    39    39     3    1
    40    22     7    1
    41    38    30    1
@<TRIPOS>SUBSTRUCTURE
     1 RES1        1 GROUP             0 ****  ****    0  
@<TRIPOS>MOLECULE
ligand_56
    39    41     1     0     0
SMALL
USER_CHARGES
****
Generated from the CSD

@<TRIPOS>ATOM
     1 C1      80.7454  41.2357  50.6121   C.3       1 RES1   0.0000
     2 O2      81.9309  41.9464  50.9717   O.3       1 RES1   0.0000
     3 C3      83.0992  41.2728  50.9771   C.2       1 RES1   0.0000
     4 C4      83.0234  39.9027  50.7192   C.2       1 RES1   0.0000
     5 C5      84.1693  39.1404  50.8899   C.2       1 RES1   0.0000
     6 C6      85.3778  39.7360  51.2676   C.2       1 RES1   0.0000
     7 C7      86.5760  38.8585  51.4867   C.2       1 RES1   0.0000
     8 C8      87.1011  38.7771  52.7848   C.2       1 RES1   0.0000
     9 C9      88.2359  38.0214  53.0513   C.2       1 RES1   0.0000
    10 C10     88.8640  37.2992  52.0379   C.2       1 RES1   0.0000
    11 C11     90.0983  36.4909  52.2804   C.2       1 RES1   0.0000
    12 O12     90.9065  36.8094  53.1507   O.2       1 RES1   0.0000
    13 N13     90.2551  35.3875  51.5254   N.am      1 RES1   0.0000
    14 C14     91.3711  34.4503  51.5990   C.3       1 RES1   0.0000
    15 C15     92.1455  34.4455  50.2158   C.3       1 RES1   0.0000
    16 O16     92.7098  35.7138  49.9404   O.3       1 RES1   0.0000
    17 C17     91.0178  33.0429  52.1619   C.3       1 RES1   0.0000
    18 C18     90.0286  32.3203  51.2311   C.3       1 RES1   0.0000
    19 C19     92.2852  32.1862  52.2986   C.3       1 RES1   0.0000
    20 C20     90.3728  33.1880  53.5490   C.3       1 RES1   0.0000
    21 C21     88.3418  37.3464  50.7472   C.2       1 RES1   0.0000
    22 C22     87.2231  38.1342  50.4615   C.2       1 RES1   0.0000
    23 C23     86.8345  38.2147  49.0130   C.2       1 RES1   0.0000
    24 O24     85.9326  38.9596  48.6383   O.co2     1 RES1   0.0000
    25 O25     87.4928  37.4154  48.2023   O.co2     1 RES1  -1.0000
    26 C26     85.3410  41.1604  51.4301   C.2       1 RES1   0.0000
    27 C27     86.6140  41.9138  51.7006   C.2       1 RES1   0.0000
    28 O28     87.1301  41.8740  52.8138   O.2       1 RES1   0.0000
    29 N29     87.0641  42.7339  50.7183   N.am      1 RES1   0.0000
    30 C30     88.1426  43.6577  50.7670   C.2       1 RES1   0.0000
    31 C31     88.9199  43.8662  51.9032   C.2       1 RES1   0.0000
    32 C32     90.0046  44.7288  51.8624   C.2       1 RES1   0.0000
    33 C33     90.3178  45.4260  50.6944   C.2       1 RES1   0.0000
    34 C34     91.5356  46.3120  50.6089   C.2       1 RES1   0.0000
    35 N35     91.3981  47.4353  49.8020   N.pl3     1 RES1   0.0000
    36 N36     92.5883  45.9973  51.3098   N.pl3     1 RES1   1.0000
    37 C37     89.4922  45.2672  49.5820   C.2       1 RES1   0.0000
    38 C38     88.4157  44.3931  49.6172   C.2       1 RES1   0.0000
    39 N39     84.2274  41.9035  51.3082   N.2       1 RES1   0.0000
@<TRIPOS>BOND
     1     1     2    1
     2     2     3    1
     3     3     4    2
     4     4     5    1
     5     5     6    2
     6     6     7    1
     7     7     8    2
     8     8     9    1
     9     9    10    2
    10    10    11    1
    11    11    12    2
    12    11    13   am
    13    13    14    1
    14    14    15    1
    15    15    16    1
    16    14    17    1
    17    17    18    1
    18    17    19    1
    19    17    20    1
    20    10    21    1
    21    21    22    2
    22    22    23    1
    23    23    24    2
    24    23    25    1
    25     6    26    1
    26    26    27    1
    27    27    28    2
    28    27    29   am
    29    29    30    1
    30    30    31    2
    31    31    32    1
    32    32    33    2
    33    33    34    1
    34    34    35    1
    35    34    36    2
    36    33    37    1
    37    37    38    2
    38    26    39    2
    39    39     3    1
    40    22     7    1
    41    38    30    1
@<TRIPOS>SUBSTRUCTURE
     1 RES1        1 GROUP             0 ****  ****    0  
@<TRIPOS>MOLECULE
ligand_57
    39    41     1     0     0
SMALL
USER_CHARGES
****
Generated from the CSD

@<TRIPOS>ATOM
     1 C1      80.8942  41.7327  51.5229   C.3       1 RES1   0.0000
     2 O2      82.0625  42.0923  50.7843   O.3       1 RES1   0.0000
     3 C3      83.1175  41.2529  50.8148   C.2       1 RES1   0.0000
     4 C4      82.9999  40.1432  51.6540   C.2       1 RES1   0.0000
     5 C5      84.1215  39.3526  51.8543   C.2       1 RES1   0.0000
     6 C6      85.3250  39.6348  51.1987   C.2       1 RES1   0.0000
     7 C7      86.5222  38.7769  51.4891   C.2       1 RES1   0.0000
     8 C8      87.6209  39.3763  52.1222   C.2       1 RES1   0.0000
     9 C9      88.7796  38.6544  52.3795   C.2       1 RES1   0.0000
    10 C10     88.8671  37.3049  52.0412   C.2       1 RES1   0.0000
    11 C11     90.1034  36.4995  52.2831   C.2       1 RES1   0.0000
    12 O12     90.8557  36.7549  53.2216   O.2       1 RES1   0.0000
    13 N13     90.3250  35.4683  51.4467   N.am      1 RES1   0.0000
    14 C14     91.4225  34.5110  51.5385   C.3       1 RES1   0.0000
    15 C15     92.3268  34.6222  50.2412   C.3       1 RES1   0.0000
    16 O16     92.9234  35.9016  50.1409   O.3       1 RES1   0.0000
    17 C17     91.0073  33.0632  51.9309   C.3       1 RES1   0.0000
    18 C18     90.1077  32.4453  50.8465   C.3       1 RES1   0.0000
    19 C19     92.2499  32.1780  52.1071   C.3       1 RES1   0.0000
    20 C20     90.2325  33.0894  53.2576   C.3       1 RES1   0.0000
    21 C21     87.7764  36.6851  51.4355   C.2       1 RES1   0.0000
    22 C22     86.6204  37.4125  51.1380   C.2       1 RES1   0.0000
    23 C23     85.5665  36.6745  50.3633   C.2       1 RES1   0.0000
    24 O24     84.5576  37.2473  49.9598   O.co2     1 RES1   0.0000
    25 O25     85.7840  35.3893  50.1891   O.co2     1 RES1  -1.0000
    26 C26     85.2949  40.7578  50.3071   C.2       1 RES1   0.0000
    27 C27     86.4931  41.0637  49.4515   C.2       1 RES1   0.0000
    28 O28     86.7855  40.3280  48.5134   O.2       1 RES1   0.0000
    29 N29     87.2927  42.0828  49.8544   N.am      1 RES1   0.0000
    30 C30     88.5483  42.4810  49.3217   C.2       1 RES1   0.0000
    31 C31     89.1689  41.8300  48.2588   C.2       1 RES1   0.0000
    32 C32     90.3594  42.3143  47.7385   C.2       1 RES1   0.0000
    33 C33     90.9721  43.4413  48.2889   C.2       1 RES1   0.0000
    34 C34     92.2278  44.0256  47.6912   C.2       1 RES1   0.0000
    35 N35     93.1109  44.5938  48.6016   N.pl3     1 RES1   0.0000
    36 N36     92.4146  43.9233  46.4055   N.pl3     1 RES1   1.0000
    37 C37     90.3823  44.0452  49.3987   C.2       1 RES1   0.0000
    38 C38     89.1836  43.5705  49.9105   C.2       1 RES1   0.0000
    39 N39     84.2264  41.5556  50.1372   N.2       1 RES1   0.0000
@<TRIPOS>BOND
     1     1     2    1
     2     2     3    1
     3     3     4    2
     4     4     5    1
     5     5     6    2
     6     6     7    1
     7     7     8    2
     8     8     9    1
     9     9    10    2
    10    10    11    1
    11    11    12    2
    12    11    13   am
    13    13    14    1
    14    14    15    1
    15    15    16    1
    16    14    17    1
    17    17    18    1
    18    17    19    1
    19    17    20    1
    20    10    21    1
    21    21    22    2
    22    22    23    1
    23    23    24    2
    24    23    25    1
    25     6    26    1
    26    26    27    1
    27    27    28    2
    28    27    29   am
    29    29    30    1
    30    30    31    2
    31    31    32    1
    32    32    33    2
    33    33    34    1
    34    34    35    1
    35    34    36    2
    36    33    37    1
    37    37    38    2
    38    26    39    2
    39    39     3    1
    40    22     7    1
    41    38    30    1
@<TRIPOS>SUBSTRUCTURE
     1 RES1        1 GROUP             0 ****  ****    0  
@<TRIPOS>MOLECULE
ligand_58
    39    41     1     0     0
SMALL
USER_CHARGES
****
Generated from the CSD

@<TRIPOS>ATOM
     1 C1      80.8942  41.7327  51.5229   C.3       1 RES1   0.0000
     2 O2      82.0625  42.0923  50.7843   O.3       1 RES1   0.0000
     3 C3      83.1175  41.2529  50.8148   C.2       1 RES1   0.0000
     4 C4      82.9999  40.1432  51.6540   C.2       1 RES1   0.0000
     5 C5      84.1215  39.3526  51.8543   C.2       1 RES1   0.0000
     6 C6      85.3250  39.6348  51.1987   C.2       1 RES1   0.0000
     7 C7      86.5222  38.7769  51.4891   C.2       1 RES1   0.0000
     8 C8      87.6209  39.3763  52.1222   C.2       1 RES1   0.0000
     9 C9      88.7796  38.6544  52.3795   C.2       1 RES1   0.0000
    10 C10     88.8671  37.3049  52.0412   C.2       1 RES1   0.0000
    11 C11     90.1034  36.4995  52.2831   C.2       1 RES1   0.0000
    12 O12     90.8557  36.7549  53.2216   O.2       1 RES1   0.0000
    13 N13     90.3250  35.4683  51.4467   N.am      1 RES1   0.0000
    14 C14     91.4225  34.5110  51.5385   C.3       1 RES1   0.0000
    15 C15     92.3268  34.6222  50.2412   C.3       1 RES1   0.0000
    16 O16     92.9234  35.9016  50.1409   O.3       1 RES1   0.0000
    17 C17     91.0073  33.0632  51.9309   C.3       1 RES1   0.0000
    18 C18     90.1077  32.4453  50.8465   C.3       1 RES1   0.0000
    19 C19     92.2499  32.1780  52.1071   C.3       1 RES1   0.0000
    20 C20     90.2325  33.0894  53.2576   C.3       1 RES1   0.0000
    21 C21     87.7764  36.6851  51.4355   C.2       1 RES1   0.0000
    22 C22     86.6204  37.4125  51.1380   C.2       1 RES1   0.0000
    23 C23     85.5665  36.6745  50.3633   C.2       1 RES1   0.0000
    24 O24     84.5576  37.2473  49.9598   O.co2     1 RES1   0.0000
    25 O25     85.7840  35.3893  50.1891   O.co2     1 RES1  -1.0000
    26 C26     85.2949  40.7578  50.3071   C.2       1 RES1   0.0000
    27 C27     86.4931  41.0637  49.4515   C.2       1 RES1   0.0000
    28 O28     87.4908  41.5784  49.9481   O.2       1 RES1   0.0000
    29 N29     86.3566  40.8817  48.1142   N.am      1 RES1   0.0000
    30 C30     87.2674  41.2289  47.0803   C.2       1 RES1   0.0000
    31 C31     88.4899  41.8523  47.3160   C.2       1 RES1   0.0000
    32 C32     89.3655  42.0975  46.2692   C.2       1 RES1   0.0000
    33 C33     89.0255  41.7538  44.9597   C.2       1 RES1   0.0000
    34 C34     89.9936  41.9457  43.8189   C.2       1 RES1   0.0000
    35 N35     89.4161  42.2733  42.5979   N.pl3     1 RES1   0.0000
    36 N36     91.2702  41.8369  44.0570   N.pl3     1 RES1   1.0000
    37 C37     87.7700  41.1958  44.7218   C.2       1 RES1   0.0000
    38 C38     86.8995  40.9363  45.7702   C.2       1 RES1   0.0000
    39 N39     84.2264  41.5556  50.1372   N.2       1 RES1   0.0000
@<TRIPOS>BOND
     1     1     2    1
     2     2     3    1
     3     3     4    2
     4     4     5    1
     5     5     6    2
     6     6     7    1
     7     7     8    2
     8     8     9    1
     9     9    10    2
    10    10    11    1
    11    11    12    2
    12    11    13   am
    13    13    14    1
    14    14    15    1
    15    15    16    1
    16    14    17    1
    17    17    18    1
    18    17    19    1
    19    17    20    1
    20    10    21    1
    21    21    22    2
    22    22    23    1
    23    23    24    2
    24    23    25    1
    25     6    26    1
    26    26    27    1
    27    27    28    2
    28    27    29   am
    29    29    30    1
    30    30    31    2
    31    31    32    1
    32    32    33    2
    33    33    34    1
    34    34    35    1
    35    34    36    2
    36    33    37    1
    37    37    38    2
    38    26    39    2
    39    39     3    1
    40    22     7    1
    41    38    30    1
@<TRIPOS>SUBSTRUCTURE
     1 RES1        1 GROUP             0 ****  ****    0  
@<TRIPOS>MOLECULE
ligand_59
    39    41     1     0     0
SMALL
USER_CHARGES
****
Generated from the CSD

@<TRIPOS>ATOM
     1 C1      82.0144  43.1631  50.5623   C.3       1 RES1   0.0000
     2 O2      81.9096  41.7471  50.4081   O.3       1 RES1   0.0000
     3 C3      82.9391  40.9838  50.8276   C.2       1 RES1   0.0000
     4 C4      84.0664  41.6664  51.2889   C.2       1 RES1   0.0000
     5 C5      85.2105  40.9315  51.5609   C.2       1 RES1   0.0000
     6 C6      85.2202  39.5396  51.4187   C.2       1 RES1   0.0000
     7 C7      86.4991  38.7975  51.6785   C.2       1 RES1   0.0000
     8 C8      87.1055  38.1375  50.5996   C.2       1 RES1   0.0000
     9 C9      88.2650  37.3931  50.7769   C.2       1 RES1   0.0000
    10 C10     88.8723  37.3092  52.0288   C.2       1 RES1   0.0000
    11 C11     90.1088  36.5021  52.2640   C.2       1 RES1   0.0000
    12 O12     90.9034  36.8002  53.1539   O.2       1 RES1   0.0000
    13 N13     90.2828  35.4221  51.4796   N.am      1 RES1   0.0000
    14 C14     91.3948  34.4800  51.5527   C.3       1 RES1   0.0000
    15 C15     92.2046  34.5160  50.1904   C.3       1 RES1   0.0000
    16 O16     92.7799  35.7901  49.9700   O.3       1 RES1   0.0000
    17 C17     91.0243  33.0568  52.0623   C.3       1 RES1   0.0000
    18 C18     90.0562  32.3670  51.0855   C.3       1 RES1   0.0000
    19 C19     92.2858  32.1922  52.2028   C.3       1 RES1   0.0000
    20 C20     90.3460  33.1605  53.4372   C.3       1 RES1   0.0000
    21 C21     88.2994  37.9796  53.1072   C.2       1 RES1   0.0000
    22 C22     87.1121  38.6997  52.9470   C.2       1 RES1   0.0000
    23 C23     86.5168  39.2643  54.2049   C.2       1 RES1   0.0000
    24 O24     85.4254  39.8278  54.1931   O.co2     1 RES1   0.0000
    25 O25     87.2553  39.1463  55.2865   O.co2     1 RES1  -1.0000
    26 C26     83.9781  38.9512  51.0089   C.2       1 RES1   0.0000
    27 C27     83.8421  37.4545  50.9583   C.2       1 RES1   0.0000
    28 O28     83.8069  36.8024  51.9978   O.2       1 RES1   0.0000
    29 N29     83.9088  36.8717  49.7351   N.am      1 RES1   0.0000
    30 C30     83.9559  35.4870  49.4202   C.2       1 RES1   0.0000
    31 C31     83.9514  34.4831  50.3850   C.2       1 RES1   0.0000
    32 C32     83.9244  33.1488  50.0088   C.2       1 RES1   0.0000
    33 C33     83.9332  32.7878  48.6605   C.2       1 RES1   0.0000
    34 C34     83.8307  31.3454  48.2311   C.2       1 RES1   0.0000
    35 N35     84.5294  31.0181  47.0751   N.pl3     1 RES1   0.0000
    36 N36     83.1498  30.5187  48.9737   N.pl3     1 RES1   1.0000
    37 C37     84.0108  33.7966  47.7010   C.2       1 RES1   0.0000
    38 C38     84.0225  35.1320  48.0761   C.2       1 RES1   0.0000
    39 N39     82.8757  39.6569  50.7024   N.2       1 RES1   0.0000
@<TRIPOS>BOND
     1     1     2    1
     2     2     3    1
     3     3     4    2
     4     4     5    1
     5     5     6    2
     6     6     7    1
     7     7     8    2
     8     8     9    1
     9     9    10    2
    10    10    11    1
    11    11    12    2
    12    11    13   am
    13    13    14    1
    14    14    15    1
    15    15    16    1
    16    14    17    1
    17    17    18    1
    18    17    19    1
    19    17    20    1
    20    10    21    1
    21    21    22    2
    22    22    23    1
    23    23    24    2
    24    23    25    1
    25     6    26    1
    26    26    27    1
    27    27    28    2
    28    27    29   am
    29    29    30    1
    30    30    31    2
    31    31    32    1
    32    32    33    2
    33    33    34    1
    34    34    35    1
    35    34    36    2
    36    33    37    1
    37    37    38    2
    38    26    39    2
    39    39     3    1
    40    22     7    1
    41    38    30    1
@<TRIPOS>SUBSTRUCTURE
     1 RES1        1 GROUP             0 ****  ****    0  
@<TRIPOS>MOLECULE
ligand_60
    39    41     1     0     0
SMALL
USER_CHARGES
****
Generated from the CSD

@<TRIPOS>ATOM
     1 C1      82.0143  43.1630  50.5627   C.3       1 RES1   0.0000
     2 O2      81.9096  41.7471  50.4081   O.3       1 RES1   0.0000
     3 C3      82.9391  40.9838  50.8276   C.2       1 RES1   0.0000
     4 C4      84.0664  41.6664  51.2889   C.2       1 RES1   0.0000
     5 C5      85.2105  40.9315  51.5609   C.2       1 RES1   0.0000
     6 C6      85.2202  39.5396  51.4187   C.2       1 RES1   0.0000
     7 C7      86.4991  38.7975  51.6785   C.2       1 RES1   0.0000
     8 C8      87.1057  38.1379  50.5995   C.2       1 RES1   0.0000
     9 C9      88.2653  37.3936  50.7767   C.2       1 RES1   0.0000
    10 C10     88.8724  37.3093  52.0287   C.2       1 RES1   0.0000
    11 C11     90.1089  36.5021  52.2640   C.2       1 RES1   0.0000
    12 O12     90.9032  36.7999  53.1542   O.2       1 RES1   0.0000
    13 N13     90.2832  35.4226  51.4790   N.am      1 RES1   0.0000
    14 C14     91.3952  34.4805  51.5520   C.3       1 RES1   0.0000
    15 C15     92.2056  34.5173  50.1901   C.3       1 RES1   0.0000
    16 O16     92.7810  35.7915  49.9708   O.3       1 RES1   0.0000
    17 C17     91.0245  33.0570  52.0607   C.3       1 RES1   0.0000
    18 C18     90.0568  32.3677  51.0832   C.3       1 RES1   0.0000
    19 C19     92.2860  32.1923  52.2011   C.3       1 RES1   0.0000
    20 C20     90.3459  33.1599  53.4354   C.3       1 RES1   0.0000
    21 C21     88.2992  37.9792  53.1072   C.2       1 RES1   0.0000
    22 C22     87.1118  38.6992  52.9471   C.2       1 RES1   0.0000
    23 C23     86.5162  39.2634  54.2050   C.2       1 RES1   0.0000
    24 O24     85.4249  39.8272  54.1932   O.co2     1 RES1   0.0000
    25 O25     87.2543  39.1446  55.2869   O.co2     1 RES1  -1.0000
    26 C26     83.9781  38.9512  51.0089   C.2       1 RES1   0.0000
    27 C27     83.8421  37.4545  50.9583   C.2       1 RES1   0.0000
    28 O28     84.3600  36.8183  50.0450   O.2       1 RES1   0.0000
    29 N29     83.0152  36.8808  51.8677   N.am      1 RES1   0.0000
    30 C30     82.5981  35.5248  51.9473   C.2       1 RES1   0.0000
    31 C31     82.9981  34.5474  51.0398   C.2       1 RES1   0.0000
    32 C32     82.6141  33.2269  51.2166   C.2       1 RES1   0.0000
    33 C33     81.7960  32.8592  52.2862   C.2       1 RES1   0.0000
    34 C34     81.4278  31.4179  52.5364   C.2       1 RES1   0.0000
    35 N35     80.1614  31.2120  53.0705   N.pl3     1 RES1   0.0000
    36 N36     82.2793  30.4885  52.2053   N.pl3     1 RES1   1.0000
    37 C37     81.3403  33.8548  53.1495   C.2       1 RES1   0.0000
    38 C38     81.7362  35.1737  52.9822   C.2       1 RES1   0.0000
    39 N39     82.8757  39.6569  50.7024   N.2       1 RES1   0.0000
@<TRIPOS>BOND
     1     1     2    1
     2     2     3    1
     3     3     4    2
     4     4     5    1
     5     5     6    2
     6     6     7    1
     7     7     8    2
     8     8     9    1
     9     9    10    2
    10    10    11    1
    11    11    12    2
    12    11    13   am
    13    13    14    1
    14    14    15    1
    15    15    16    1
    16    14    17    1
    17    17    18    1
    18    17    19    1
    19    17    20    1
    20    10    21    1
    21    21    22    2
    22    22    23    1
    23    23    24    2
    24    23    25    1
    25     6    26    1
    26    26    27    1
    27    27    28    2
    28    27    29   am
    29    29    30    1
    30    30    31    2
    31    31    32    1
    32    32    33    2
    33    33    34    1
    34    34    35    1
    35    34    36    2
    36    33    37    1
    37    37    38    2
    38    26    39    2
    39    39     3    1
    40    22     7    1
    41    38    30    1
@<TRIPOS>SUBSTRUCTURE
     1 RES1        1 GROUP             0 ****  ****    0  
@<TRIPOS>MOLECULE
ligand_61
    39    41     1     0     0
SMALL
USER_CHARGES
****
Generated from the CSD

@<TRIPOS>ATOM
     1 C1      81.8672  42.6673  49.6494   C.3       1 RES1   0.0000
     2 O2      81.7779  41.6012  50.5955   O.3       1 RES1   0.0000
     3 C3      82.9208  41.0037  50.9900   C.2       1 RES1   0.0000
     4 C4      84.0899  41.4259  50.3541   C.2       1 RES1   0.0000
     5 C5      85.2583  40.7193  50.5965   C.2       1 RES1   0.0000
     6 C6      85.2730  39.6408  51.4876   C.2       1 RES1   0.0000
     7 C7      86.5529  38.8792  51.6762   C.2       1 RES1   0.0000
     8 C8      86.5855  37.5387  51.2646   C.2       1 RES1   0.0000
     9 C9      87.7212  36.7606  51.4511   C.2       1 RES1   0.0000
    10 C10     88.8693  37.3037  52.0257   C.2       1 RES1   0.0000
    11 C11     90.1039  36.4938  52.2617   C.2       1 RES1   0.0000
    12 O12     90.8856  36.7751  53.1681   O.2       1 RES1   0.0000
    13 N13     90.2906  35.4301  51.4581   N.am      1 RES1   0.0000
    14 C14     91.3957  34.4805  51.5363   C.3       1 RES1   0.0000
    15 C15     92.2370  34.5415  50.1941   C.3       1 RES1   0.0000
    16 O16     92.8230  35.8171  50.0144   O.3       1 RES1   0.0000
    17 C17     91.0064  33.0487  52.0062   C.3       1 RES1   0.0000
    18 C18     90.0586  32.3851  50.9921   C.3       1 RES1   0.0000
    19 C19     92.2600  32.1745  52.1579   C.3       1 RES1   0.0000
    20 C20     90.2961  33.1264  53.3665   C.3       1 RES1   0.0000
    21 C21     88.8650  38.6406  52.4169   C.2       1 RES1   0.0000
    22 C22     87.7148  39.4210  52.2683   C.2       1 RES1   0.0000
    23 C23     87.7851  40.8039  52.8499   C.2       1 RES1   0.0000
    24 O24     86.7996  41.5369  52.8649   O.co2     1 RES1   0.0000
    25 O25     88.9657  41.1744  53.2951   O.co2     1 RES1  -1.0000
    26 C26     84.0242  39.3538  52.1319   C.2       1 RES1   0.0000
    27 C27     83.9630  38.3046  53.2074   C.2       1 RES1   0.0000
    28 O28     84.4789  38.5118  54.3018   O.2       1 RES1   0.0000
    29 N29     83.4518  37.0970  52.8603   N.am      1 RES1   0.0000
    30 C30     83.4141  35.9024  53.6287   C.2       1 RES1   0.0000
    31 C31     83.9400  35.8033  54.9141   C.2       1 RES1   0.0000
    32 C32     83.8050  34.6289  55.6386   C.2       1 RES1   0.0000
    33 C33     83.1691  33.5173  55.0830   C.2       1 RES1   0.0000
    34 C34     82.9482  32.2563  55.8808   C.2       1 RES1   0.0000
    35 N35     83.0047  31.0742  55.1521   N.pl3     1 RES1   0.0000
    36 N36     82.7673  32.3542  57.1677   N.pl3     1 RES1   1.0000
    37 C37     82.7089  33.6004  53.7694   C.2       1 RES1   0.0000
    38 C38     82.8302  34.7796  53.0491   C.2       1 RES1   0.0000
    39 N39     82.8768  40.0048  51.8735   N.2       1 RES1   0.0000
@<TRIPOS>BOND
     1     1     2    1
     2     2     3    1
     3     3     4    2
     4     4     5    1
     5     5     6    2
     6     6     7    1
     7     7     8    2
     8     8     9    1
     9     9    10    2
    10    10    11    1
    11    11    12    2
    12    11    13   am
    13    13    14    1
    14    14    15    1
    15    15    16    1
    16    14    17    1
    17    17    18    1
    18    17    19    1
    19    17    20    1
    20    10    21    1
    21    21    22    2
    22    22    23    1
    23    23    24    2
    24    23    25    1
    25     6    26    1
    26    26    27    1
    27    27    28    2
    28    27    29   am
    29    29    30    1
    30    30    31    2
    31    31    32    1
    32    32    33    2
    33    33    34    1
    34    34    35    1
    35    34    36    2
    36    33    37    1
    37    37    38    2
    38    26    39    2
    39    39     3    1
    40    22     7    1
    41    38    30    1
@<TRIPOS>SUBSTRUCTURE
     1 RES1        1 GROUP             0 ****  ****    0  
@<TRIPOS>MOLECULE
ligand_62
    39    41     1     0     0
SMALL
USER_CHARGES
****
Generated from the CSD

@<TRIPOS>ATOM
     1 C1      81.8672  42.6673  49.6494   C.3       1 RES1   0.0000
     2 O2      81.7779  41.6012  50.5955   O.3       1 RES1   0.0000
     3 C3      82.9208  41.0037  50.9900   C.2       1 RES1   0.0000
     4 C4      84.0899  41.4259  50.3541   C.2       1 RES1   0.0000
     5 C5      85.2583  40.7193  50.5965   C.2       1 RES1   0.0000
     6 C6      85.2730  39.6408  51.4876   C.2       1 RES1   0.0000
     7 C7      86.5529  38.8792  51.6762   C.2       1 RES1   0.0000
     8 C8      86.5855  37.5387  51.2645   C.2       1 RES1   0.0000
     9 C9      87.7212  36.7606  51.4510   C.2       1 RES1   0.0000
    10 C10     88.8693  37.3037  52.0257   C.2       1 RES1   0.0000
    11 C11     90.1039  36.4938  52.2617   C.2       1 RES1   0.0000
    12 O12     90.8856  36.7751  53.1681   O.2       1 RES1   0.0000
    13 N13     90.2906  35.4301  51.4581   N.am      1 RES1   0.0000
    14 C14     91.3958  34.4805  51.5363   C.3       1 RES1   0.0000
    15 C15     92.2371  34.5415  50.1941   C.3       1 RES1   0.0000
    16 O16     92.8230  35.8172  50.0144   O.3       1 RES1   0.0000
    17 C17     91.0064  33.0487  52.0062   C.3       1 RES1   0.0000
    18 C18     90.0586  32.3851  50.9920   C.3       1 RES1   0.0000
    19 C19     92.2601  32.1746  52.1578   C.3       1 RES1   0.0000
    20 C20     90.2961  33.1264  53.3664   C.3       1 RES1   0.0000
    21 C21     88.8650  38.6406  52.4169   C.2       1 RES1   0.0000
    22 C22     87.7148  39.4210  52.2684   C.2       1 RES1   0.0000
    23 C23     87.7851  40.8039  52.8500   C.2       1 RES1   0.0000
    24 O24     86.7995  41.5369  52.8650   O.co2     1 RES1   0.0000
    25 O25     88.9657  41.1744  53.2952   O.co2     1 RES1  -1.0000
    26 C26     84.0242  39.3538  52.1319   C.2       1 RES1   0.0000
    27 C27     83.9630  38.3046  53.2074   C.2       1 RES1   0.0000
    28 O28     83.9993  37.1139  52.9107   O.2       1 RES1   0.0000
    29 N29     83.7226  38.7329  54.4718   N.am      1 RES1   0.0000
    30 C30     83.4730  37.9538  55.6336   C.2       1 RES1   0.0000
    31 C31     83.4269  36.5622  55.6254   C.2       1 RES1   0.0000
    32 C32     83.2519  35.8593  56.8076   C.2       1 RES1   0.0000
    33 C33     83.0877  36.5320  58.0196   C.2       1 RES1   0.0000
    34 C34     82.9693  35.7850  59.3248   C.2       1 RES1   0.0000
    35 N35     82.1429  36.3744  60.2742   N.pl3     1 RES1   0.0000
    36 N36     83.5965  34.6501  59.4549   N.pl3     1 RES1   1.0000
    37 C37     83.0627  37.9261  58.0099   C.2       1 RES1   0.0000
    38 C38     83.2527  38.6301  56.8299   C.2       1 RES1   0.0000
    39 N39     82.8768  40.0048  51.8735   N.2       1 RES1   0.0000
@<TRIPOS>BOND
     1     1     2    1
     2     2     3    1
     3     3     4    2
     4     4     5    1
     5     5     6    2
     6     6     7    1
     7     7     8    2
     8     8     9    1
     9     9    10    2
    10    10    11    1
    11    11    12    2
    12    11    13   am
    13    13    14    1
    14    14    15    1
    15    15    16    1
    16    14    17    1
    17    17    18    1
    18    17    19    1
    19    17    20    1
    20    10    21    1
    21    21    22    2
    22    22    23    1
    23    23    24    2
    24    23    25    1
    25     6    26    1
    26    26    27    1
    27    27    28    2
    28    27    29   am
    29    29    30    1
    30    30    31    2
    31    31    32    1
    32    32    33    2
    33    33    34    1
    34    34    35    1
    35    34    36    2
    36    33    37    1
    37    37    38    2
    38    26    39    2
    39    39     3    1
    40    22     7    1
    41    38    30    1
@<TRIPOS>SUBSTRUCTURE
     1 RES1        1 GROUP             0 ****  ****    0  
@<TRIPOS>MOLECULE
ligand_63
    39    41     1     0     0
SMALL
USER_CHARGES
****
Generated from the CSD

@<TRIPOS>ATOM
     1 C1      81.9494  43.3297  51.3262   C.3       1 RES1   0.0000
     2 O2      81.9309  41.9464  50.9717   O.3       1 RES1   0.0000
     3 C3      83.0992  41.2728  50.9771   C.2       1 RES1   0.0000
     4 C4      83.0234  39.9027  50.7192   C.2       1 RES1   0.0000
     5 C5      84.1693  39.1404  50.8899   C.2       1 RES1   0.0000
     6 C6      85.3778  39.7360  51.2676   C.2       1 RES1   0.0000
     7 C7      86.5760  38.8585  51.4867   C.2       1 RES1   0.0000
     8 C8      87.1015  38.7777  52.7847   C.2       1 RES1   0.0000
     9 C9      88.2364  38.0220  53.0511   C.2       1 RES1   0.0000
    10 C10     88.8640  37.2992  52.0378   C.2       1 RES1   0.0000
    11 C11     90.0984  36.4910  52.2803   C.2       1 RES1   0.0000
    12 O12     90.9081  36.8111  53.1486   O.2       1 RES1   0.0000
    13 N13     90.2535  35.3857  51.5277   N.am      1 RES1   0.0000
    14 C14     91.3691  34.4481  51.6018   C.3       1 RES1   0.0000
    15 C15     92.1415  34.4398  50.2176   C.3       1 RES1   0.0000
    16 O16     92.7028  35.7082  49.9366   O.3       1 RES1   0.0000
    17 C17     91.0158  33.0421  52.1684   C.3       1 RES1   0.0000
    18 C18     90.0286  32.3160  51.2383   C.3       1 RES1   0.0000
    19 C19     92.2836  32.1868  52.3097   C.3       1 RES1   0.0000
    20 C20     90.3686  33.1910  53.5540   C.3       1 RES1   0.0000
    21 C21     88.3414  37.3459  50.7473   C.2       1 RES1   0.0000
    22 C22     87.2226  38.1337  50.4616   C.2       1 RES1   0.0000
    23 C23     86.8336  38.2135  49.0132   C.2       1 RES1   0.0000
    24 O24     85.9268  38.9530  48.6395   O.co2     1 RES1   0.0000
    25 O25     87.4971  37.4197  48.2015   O.co2     1 RES1  -1.0000
    26 C26     85.3410  41.1604  51.4301   C.2       1 RES1   0.0000
    27 C27     86.6140  41.9138  51.7006   C.2       1 RES1   0.0000
    28 O28     87.4576  42.0374  50.8174   O.2       1 RES1   0.0000
    29 N29     86.8357  42.3080  52.9796   N.am      1 RES1   0.0000
    30 C30     88.0035  42.9030  53.5283   C.2       1 RES1   0.0000
    31 C31     88.7380  42.3317  54.5640   C.2       1 RES1   0.0000
    32 C32     89.9101  42.9274  55.0043   C.2       1 RES1   0.0000
    33 C33     90.3574  44.1235  54.4408   C.2       1 RES1   0.0000
    34 C34     91.6665  44.7480  54.8553   C.2       1 RES1   0.0000
    35 N35     92.3055  45.4963  53.8738   N.pl3     1 RES1   0.0000
    36 N36     92.0767  44.5844  56.0815   N.pl3     1 RES1   1.0000
    37 C37     89.5790  44.7274  53.4540   C.2       1 RES1   0.0000
    38 C38     88.4142  44.1245  53.0025   C.2       1 RES1   0.0000
    39 N39     84.2274  41.9035  51.3082   N.2       1 RES1   0.0000
@<TRIPOS>BOND
     1     1     2    1
     2     2     3    1
     3     3     4    2
     4     4     5    1
     5     5     6    2
     6     6     7    1
     7     7     8    2
     8     8     9    1
     9     9    10    2
    10    10    11    1
    11    11    12    2
    12    11    13   am
    13    13    14    1
    14    14    15    1
    15    15    16    1
    16    14    17    1
    17    17    18    1
    18    17    19    1
    19    17    20    1
    20    10    21    1
    21    21    22    2
    22    22    23    1
    23    23    24    2
    24    23    25    1
    25     6    26    1
    26    26    27    1
    27    27    28    2
    28    27    29   am
    29    29    30    1
    30    30    31    2
    31    31    32    1
    32    32    33    2
    33    33    34    1
    34    34    35    1
    35    34    36    2
    36    33    37    1
    37    37    38    2
    38    26    39    2
    39    39     3    1
    40    22     7    1
    41    38    30    1
@<TRIPOS>SUBSTRUCTURE
     1 RES1        1 GROUP             0 ****  ****    0  
@<TRIPOS>MOLECULE
ligand_64
    39    41     1     0     0
SMALL
USER_CHARGES
****
Generated from the CSD

@<TRIPOS>ATOM
     1 C1      81.9494  43.3297  51.3262   C.3       1 RES1   0.0000
     2 O2      81.9309  41.9464  50.9717   O.3       1 RES1   0.0000
     3 C3      83.0992  41.2728  50.9771   C.2       1 RES1   0.0000
     4 C4      83.0234  39.9027  50.7192   C.2       1 RES1   0.0000
     5 C5      84.1693  39.1404  50.8899   C.2       1 RES1   0.0000
     6 C6      85.3778  39.7360  51.2676   C.2       1 RES1   0.0000
     7 C7      86.5760  38.8585  51.4867   C.2       1 RES1   0.0000
     8 C8      87.1015  38.7776  52.7847   C.2       1 RES1   0.0000
     9 C9      88.2363  38.0219  53.0511   C.2       1 RES1   0.0000
    10 C10     88.8640  37.2992  52.0378   C.2       1 RES1   0.0000
    11 C11     90.0984  36.4910  52.2803   C.2       1 RES1   0.0000
    12 O12     90.9082  36.8112  53.1485   O.2       1 RES1   0.0000
    13 N13     90.2534  35.3856  51.5279   N.am      1 RES1   0.0000
    14 C14     91.3691  34.4481  51.6019   C.3       1 RES1   0.0000
    15 C15     92.1413  34.4396  50.2175   C.3       1 RES1   0.0000
    16 O16     92.7024  35.7080  49.9363   O.3       1 RES1   0.0000
    17 C17     91.0160  33.0421  52.1687   C.3       1 RES1   0.0000
    18 C18     90.0286  32.3159  51.2388   C.3       1 RES1   0.0000
    19 C19     92.2838  32.1869  52.3099   C.3       1 RES1   0.0000
    20 C20     90.3689  33.1911  53.5544   C.3       1 RES1   0.0000
    21 C21     88.3415  37.3460  50.7473   C.2       1 RES1   0.0000
    22 C22     87.2227  38.1337  50.4616   C.2       1 RES1   0.0000
    23 C23     86.8337  38.2136  49.0132   C.2       1 RES1   0.0000
    24 O24     85.9269  38.9531  48.6395   O.co2     1 RES1   0.0000
    25 O25     87.4972  37.4198  48.2015   O.co2     1 RES1  -1.0000
    26 C26     85.3410  41.1604  51.4301   C.2       1 RES1   0.0000
    27 C27     86.6140  41.9138  51.7006   C.2       1 RES1   0.0000
    28 O28     87.1301  41.8740  52.8138   O.2       1 RES1   0.0000
    29 N29     87.0641  42.7339  50.7183   N.am      1 RES1   0.0000
    30 C30     88.1472  43.6525  50.7647   C.2       1 RES1   0.0000
    31 C31     87.9987  45.0208  50.5540   C.2       1 RES1   0.0000
    32 C32     89.0846  45.8727  50.6861   C.2       1 RES1   0.0000
    33 C33     90.3492  45.3726  51.0008   C.2       1 RES1   0.0000
    34 C34     91.5263  46.2899  51.2203   C.2       1 RES1   0.0000
    35 N35     92.4915  45.8181  52.1021   N.pl3     1 RES1   0.0000
    36 N36     91.5787  47.4100  50.5560   N.pl3     1 RES1   1.0000
    37 C37     90.5050  43.9939  51.1392   C.2       1 RES1   0.0000
    38 C38     89.4163  43.1423  51.0221   C.2       1 RES1   0.0000
    39 N39     84.2274  41.9035  51.3082   N.2       1 RES1   0.0000
@<TRIPOS>BOND
     1     1     2    1
     2     2     3    1
     3     3     4    2
     4     4     5    1
     5     5     6    2
     6     6     7    1
     7     7     8    2
     8     8     9    1
     9     9    10    2
    10    10    11    1
    11    11    12    2
    12    11    13   am
    13    13    14    1
    14    14    15    1
    15    15    16    1
    16    14    17    1
    17    17    18    1
    18    17    19    1
    19    17    20    1
    20    10    21    1
    21    21    22    2
    22    22    23    1
    23    23    24    2
    24    23    25    1
    25     6    26    1
    26    26    27    1
    27    27    28    2
    28    27    29   am
    29    29    30    1
    30    30    31    2
    31    31    32    1
    32    32    33    2
    33    33    34    1
    34    34    35    1
    35    34    36    2
    36    33    37    1
    37    37    38    2
    38    26    39    2
    39    39     3    1
    40    22     7    1
    41    38    30    1
@<TRIPOS>SUBSTRUCTURE
     1 RES1        1 GROUP             0 ****  ****    0  
@<TRIPOS>MOLECULE
ligand_65
    39    41     1     0     0
SMALL
USER_CHARGES
****
Generated from the CSD

@<TRIPOS>ATOM
     1 C1      82.1771  43.2904  50.0155   C.3       1 RES1   0.0000
     2 O2      82.0625  42.0923  50.7843   O.3       1 RES1   0.0000
     3 C3      83.1175  41.2529  50.8148   C.2       1 RES1   0.0000
     4 C4      82.9999  40.1432  51.6540   C.2       1 RES1   0.0000
     5 C5      84.1215  39.3526  51.8543   C.2       1 RES1   0.0000
     6 C6      85.3250  39.6348  51.1987   C.2       1 RES1   0.0000
     7 C7      86.5222  38.7769  51.4891   C.2       1 RES1   0.0000
     8 C8      87.6212  39.3765  52.1215   C.2       1 RES1   0.0000
     9 C9      88.7799  38.6545  52.3788   C.2       1 RES1   0.0000
    10 C10     88.8671  37.3049  52.0411   C.2       1 RES1   0.0000
    11 C11     90.1034  36.4994  52.2830   C.2       1 RES1   0.0000
    12 O12     90.8547  36.7537  53.2226   O.2       1 RES1   0.0000
    13 N13     90.3261  35.4695  51.4453   N.am      1 RES1   0.0000
    14 C14     91.4241  34.5128  51.5363   C.3       1 RES1   0.0000
    15 C15     92.3290  34.6264  50.2397   C.3       1 RES1   0.0000
    16 O16     92.9218  35.9075  50.1395   O.3       1 RES1   0.0000
    17 C17     91.0095  33.0642  51.9264   C.3       1 RES1   0.0000
    18 C18     90.1148  32.4456  50.8383   C.3       1 RES1   0.0000
    19 C19     92.2527  32.1807  52.1068   C.3       1 RES1   0.0000
    20 C20     90.2297  33.0885  53.2502   C.3       1 RES1   0.0000
    21 C21     87.7761  36.6850  51.4361   C.2       1 RES1   0.0000
    22 C22     86.6202  37.4123  51.1386   C.2       1 RES1   0.0000
    23 C23     85.5659  36.6741  50.3646   C.2       1 RES1   0.0000
    24 O24     84.5536  37.2452  49.9672   O.co2     1 RES1   0.0000
    25 O25     85.7870  35.3904  50.1841   O.co2     1 RES1  -1.0000
    26 C26     85.2949  40.7578  50.3071   C.2       1 RES1   0.0000
    27 C27     86.4931  41.0637  49.4515   C.2       1 RES1   0.0000
    28 O28     86.7855  40.3280  48.5134   O.2       1 RES1   0.0000
    29 N29     87.2927  42.0828  49.8544   N.am      1 RES1   0.0000
    30 C30     88.5448  42.4856  49.3170   C.2       1 RES1   0.0000
    31 C31     89.7235  42.5065  50.0579   C.2       1 RES1   0.0000
    32 C32     90.9261  42.8397  49.4534   C.2       1 RES1   0.0000
    33 C33     90.9725  43.1900  48.1030   C.2       1 RES1   0.0000
    34 C34     92.2798  43.4845  47.4106   C.2       1 RES1   0.0000
    35 N35     92.3120  43.1929  46.0521   N.pl3     1 RES1   0.0000
    36 N36     93.2479  44.0163  48.1023   N.pl3     1 RES1   1.0000
    37 C37     89.7779  43.2368  47.3853   C.2       1 RES1   0.0000
    38 C38     88.5765  42.8891  47.9853   C.2       1 RES1   0.0000
    39 N39     84.2264  41.5556  50.1372   N.2       1 RES1   0.0000
@<TRIPOS>BOND
     1     1     2    1
     2     2     3    1
     3     3     4    2
     4     4     5    1
     5     5     6    2
     6     6     7    1
     7     7     8    2
     8     8     9    1
     9     9    10    2
    10    10    11    1
    11    11    12    2
    12    11    13   am
    13    13    14    1
    14    14    15    1
    15    15    16    1
    16    14    17    1
    17    17    18    1
    18    17    19    1
    19    17    20    1
    20    10    21    1
    21    21    22    2
    22    22    23    1
    23    23    24    2
    24    23    25    1
    25     6    26    1
    26    26    27    1
    27    27    28    2
    28    27    29   am
    29    29    30    1
    30    30    31    2
    31    31    32    1
    32    32    33    2
    33    33    34    1
    34    34    35    1
    35    34    36    2
    36    33    37    1
    37    37    38    2
    38    26    39    2
    39    39     3    1
    40    22     7    1
    41    38    30    1
@<TRIPOS>SUBSTRUCTURE
     1 RES1        1 GROUP             0 ****  ****    0  
@<TRIPOS>MOLECULE
ligand_66
    39    41     1     0     0
SMALL
USER_CHARGES
****
Generated from the CSD

@<TRIPOS>ATOM
     1 C1      82.1771  43.2904  50.0155   C.3       1 RES1   0.0000
     2 O2      82.0625  42.0923  50.7843   O.3       1 RES1   0.0000
     3 C3      83.1175  41.2529  50.8148   C.2       1 RES1   0.0000
     4 C4      82.9999  40.1432  51.6540   C.2       1 RES1   0.0000
     5 C5      84.1215  39.3526  51.8543   C.2       1 RES1   0.0000
     6 C6      85.3250  39.6348  51.1987   C.2       1 RES1   0.0000
     7 C7      86.5222  38.7769  51.4891   C.2       1 RES1   0.0000
     8 C8      87.6212  39.3765  52.1215   C.2       1 RES1   0.0000
     9 C9      88.7799  38.6545  52.3788   C.2       1 RES1   0.0000
    10 C10     88.8671  37.3049  52.0411   C.2       1 RES1   0.0000
    11 C11     90.1034  36.4994  52.2830   C.2       1 RES1   0.0000
    12 O12     90.8547  36.7537  53.2226   O.2       1 RES1   0.0000
    13 N13     90.3261  35.4695  51.4453   N.am      1 RES1   0.0000
    14 C14     91.4241  34.5128  51.5363   C.3       1 RES1   0.0000
    15 C15     92.3290  34.6264  50.2397   C.3       1 RES1   0.0000
    16 O16     92.9218  35.9075  50.1395   O.3       1 RES1   0.0000
    17 C17     91.0095  33.0642  51.9264   C.3       1 RES1   0.0000
    18 C18     90.1148  32.4456  50.8383   C.3       1 RES1   0.0000
    19 C19     92.2527  32.1807  52.1068   C.3       1 RES1   0.0000
    20 C20     90.2297  33.0885  53.2502   C.3       1 RES1   0.0000
    21 C21     87.7761  36.6850  51.4361   C.2       1 RES1   0.0000
    22 C22     86.6202  37.4123  51.1386   C.2       1 RES1   0.0000
    23 C23     85.5659  36.6741  50.3646   C.2       1 RES1   0.0000
    24 O24     84.5536  37.2452  49.9672   O.co2     1 RES1   0.0000
    25 O25     85.7870  35.3904  50.1841   O.co2     1 RES1  -1.0000
    26 C26     85.2949  40.7578  50.3071   C.2       1 RES1   0.0000
    27 C27     86.4931  41.0637  49.4515   C.2       1 RES1   0.0000
    28 O28     87.4908  41.5784  49.9481   O.2       1 RES1   0.0000
    29 N29     86.3566  40.8817  48.1142   N.am      1 RES1   0.0000
    30 C30     87.2706  41.2222  47.0809   C.2       1 RES1   0.0000
    31 C31     86.9630  42.1042  46.0483   C.2       1 RES1   0.0000
    32 C32     87.9252  42.4510  45.1121   C.2       1 RES1   0.0000
    33 C33     89.2064  41.8999  45.1686   C.2       1 RES1   0.0000
    34 C34     90.2873  42.3197  44.2038   C.2       1 RES1   0.0000
    35 N35     91.5853  42.2414  44.6943   N.pl3     1 RES1   0.0000
    36 N36     89.9450  42.6758  42.9977   N.pl3     1 RES1   1.0000
    37 C37     89.4854  40.9625  46.1625   C.2       1 RES1   0.0000
    38 C38     88.5281  40.6264  47.1085   C.2       1 RES1   0.0000
    39 N39     84.2264  41.5556  50.1372   N.2       1 RES1   0.0000
@<TRIPOS>BOND
     1     1     2    1
     2     2     3    1
     3     3     4    2
     4     4     5    1
     5     5     6    2
     6     6     7    1
     7     7     8    2
     8     8     9    1
     9     9    10    2
    10    10    11    1
    11    11    12    2
    12    11    13   am
    13    13    14    1
    14    14    15    1
    15    15    16    1
    16    14    17    1
    17    17    18    1
    18    17    19    1
    19    17    20    1
    20    10    21    1
    21    21    22    2
    22    22    23    1
    23    23    24    2
    24    23    25    1
    25     6    26    1
    26    26    27    1
    27    27    28    2
    28    27    29   am
    29    29    30    1
    30    30    31    2
    31    31    32    1
    32    32    33    2
    33    33    34    1
    34    34    35    1
    35    34    36    2
    36    33    37    1
    37    37    38    2
    38    26    39    2
    39    39     3    1
    40    22     7    1
    41    38    30    1
@<TRIPOS>SUBSTRUCTURE
     1 RES1        1 GROUP             0 ****  ****    0  
@<TRIPOS>MOLECULE
ligand_67
    39    41     1     0     0
SMALL
USER_CHARGES
****
Generated from the CSD

@<TRIPOS>ATOM
     1 C1      80.7751  41.0934  49.8378   C.3       1 RES1   0.0000
     2 O2      81.9096  41.7471  50.4081   O.3       1 RES1   0.0000
     3 C3      82.9391  40.9838  50.8276   C.2       1 RES1   0.0000
     4 C4      84.0664  41.6664  51.2889   C.2       1 RES1   0.0000
     5 C5      85.2105  40.9315  51.5609   C.2       1 RES1   0.0000
     6 C6      85.2202  39.5396  51.4187   C.2       1 RES1   0.0000
     7 C7      86.4991  38.7975  51.6785   C.2       1 RES1   0.0000
     8 C8      87.1068  38.1396  50.5991   C.2       1 RES1   0.0000
     9 C9      88.2664  37.3953  50.7762   C.2       1 RES1   0.0000
    10 C10     88.8725  37.3095  52.0286   C.2       1 RES1   0.0000
    11 C11     90.1091  36.5023  52.2637   C.2       1 RES1   0.0000
    12 O12     90.9029  36.7995  53.1545   O.2       1 RES1   0.0000
    13 N13     90.2840  35.4235  51.4779   N.am      1 RES1   0.0000
    14 C14     91.3962  34.4817  51.5504   C.3       1 RES1   0.0000
    15 C15     92.2069  34.5199  50.1887   C.3       1 RES1   0.0000
    16 O16     92.7773  35.7961  49.9678   O.3       1 RES1   0.0000
    17 C17     91.0259  33.0577  52.0579   C.3       1 RES1   0.0000
    18 C18     90.0639  32.3663  51.0763   C.3       1 RES1   0.0000
    19 C19     92.2883  32.1954  52.2042   C.3       1 RES1   0.0000
    20 C20     90.3408  33.1597  53.4295   C.3       1 RES1   0.0000
    21 C21     88.2983  37.9778  53.1076   C.2       1 RES1   0.0000
    22 C22     87.1108  38.6976  52.9474   C.2       1 RES1   0.0000
    23 C23     86.5140  39.2599  54.2057   C.2       1 RES1   0.0000
    24 O24     85.4227  39.8236  54.1937   O.co2     1 RES1   0.0000
    25 O25     87.2512  39.1395  55.2880   O.co2     1 RES1  -1.0000
    26 C26     83.9781  38.9512  51.0089   C.2       1 RES1   0.0000
    27 C27     83.8421  37.4545  50.9583   C.2       1 RES1   0.0000
    28 O28     83.8069  36.8024  51.9978   O.2       1 RES1   0.0000
    29 N29     83.9088  36.8717  49.7351   N.am      1 RES1   0.0000
    30 C30     83.9492  35.4868  49.4200   C.2       1 RES1   0.0000
    31 C31     85.0010  34.8903  48.7296   C.2       1 RES1   0.0000
    32 C32     85.0138  33.5200  48.5185   C.2       1 RES1   0.0000
    33 C33     83.9607  32.7198  48.9648   C.2       1 RES1   0.0000
    34 C34     83.9910  31.2198  48.8092   C.2       1 RES1   0.0000
    35 N35     83.2990  30.5071  49.7813   N.pl3     1 RES1   0.0000
    36 N36     84.6090  30.7101  47.7812   N.pl3     1 RES1   1.0000
    37 C37     82.8768  33.3336  49.5915   C.2       1 RES1   0.0000
    38 C38     82.8701  34.7023  49.8166   C.2       1 RES1   0.0000
    39 N39     82.8757  39.6569  50.7024   N.2       1 RES1   0.0000
@<TRIPOS>BOND
     1     1     2    1
     2     2     3    1
     3     3     4    2
     4     4     5    1
     5     5     6    2
     6     6     7    1
     7     7     8    2
     8     8     9    1
     9     9    10    2
    10    10    11    1
    11    11    12    2
    12    11    13   am
    13    13    14    1
    14    14    15    1
    15    15    16    1
    16    14    17    1
    17    17    18    1
    18    17    19    1
    19    17    20    1
    20    10    21    1
    21    21    22    2
    22    22    23    1
    23    23    24    2
    24    23    25    1
    25     6    26    1
    26    26    27    1
    27    27    28    2
    28    27    29   am
    29    29    30    1
    30    30    31    2
    31    31    32    1
    32    32    33    2
    33    33    34    1
    34    34    35    1
    35    34    36    2
    36    33    37    1
    37    37    38    2
    38    26    39    2
    39    39     3    1
    40    22     7    1
    41    38    30    1
@<TRIPOS>SUBSTRUCTURE
     1 RES1        1 GROUP             0 ****  ****    0  
@<TRIPOS>MOLECULE
ligand_68
    39    41     1     0     0
SMALL
USER_CHARGES
****
Generated from the CSD

@<TRIPOS>ATOM
     1 C1      80.7751  41.0934  49.8378   C.3       1 RES1   0.0000
     2 O2      81.9096  41.7471  50.4081   O.3       1 RES1   0.0000
     3 C3      82.9391  40.9838  50.8276   C.2       1 RES1   0.0000
     4 C4      84.0664  41.6664  51.2889   C.2       1 RES1   0.0000
     5 C5      85.2105  40.9315  51.5609   C.2       1 RES1   0.0000
     6 C6      85.2202  39.5396  51.4187   C.2       1 RES1   0.0000
     7 C7      86.4991  38.7975  51.6785   C.2       1 RES1   0.0000
     8 C8      87.1068  38.1396  50.5991   C.2       1 RES1   0.0000
     9 C9      88.2664  37.3953  50.7762   C.2       1 RES1   0.0000
    10 C10     88.8725  37.3095  52.0286   C.2       1 RES1   0.0000
    11 C11     90.1090  36.5023  52.2637   C.2       1 RES1   0.0000
    12 O12     90.9029  36.7995  53.1545   O.2       1 RES1   0.0000
    13 N13     90.2840  35.4235  51.4779   N.am      1 RES1   0.0000
    14 C14     91.3962  34.4817  51.5504   C.3       1 RES1   0.0000
    15 C15     92.2069  34.5198  50.1887   C.3       1 RES1   0.0000
    16 O16     92.7773  35.7960  49.9678   O.3       1 RES1   0.0000
    17 C17     91.0259  33.0577  52.0580   C.3       1 RES1   0.0000
    18 C18     90.0638  32.3663  51.0763   C.3       1 RES1   0.0000
    19 C19     92.2883  32.1953  52.2043   C.3       1 RES1   0.0000
    20 C20     90.3408  33.1597  53.4295   C.3       1 RES1   0.0000
    21 C21     88.2983  37.9778  53.1076   C.2       1 RES1   0.0000
    22 C22     87.1109  38.6977  52.9474   C.2       1 RES1   0.0000
    23 C23     86.5141  39.2599  54.2057   C.2       1 RES1   0.0000
    24 O24     85.4228  39.8237  54.1937   O.co2     1 RES1   0.0000
    25 O25     87.2512  39.1395  55.2880   O.co2     1 RES1  -1.0000
    26 C26     83.9781  38.9512  51.0089   C.2       1 RES1   0.0000
    27 C27     83.8421  37.4545  50.9583   C.2       1 RES1   0.0000
    28 O28     84.3600  36.8183  50.0450   O.2       1 RES1   0.0000
    29 N29     83.0152  36.8808  51.8677   N.am      1 RES1   0.0000
    30 C30     82.6032  35.5234  51.9511   C.2       1 RES1   0.0000
    31 C31     81.2719  35.1226  51.8757   C.2       1 RES1   0.0000
    32 C32     80.9430  33.7757  51.8899   C.2       1 RES1   0.0000
    33 C33     81.9346  32.8008  52.0115   C.2       1 RES1   0.0000
    34 C34     81.6037  31.3301  51.9556   C.2       1 RES1   0.0000
    35 N35     82.6096  30.5131  51.4533   N.pl3     1 RES1   0.0000
    36 N36     80.4484  30.9315  52.4081   N.pl3     1 RES1   1.0000
    37 C37     83.2588  33.2119  52.1592   C.2       1 RES1   0.0000
    38 C38     83.5903  34.5586  52.1299   C.2       1 RES1   0.0000
    39 N39     82.8757  39.6569  50.7024   N.2       1 RES1   0.0000
@<TRIPOS>BOND
     1     1     2    1
     2     2     3    1
     3     3     4    2
     4     4     5    1
     5     5     6    2
     6     6     7    1
     7     7     8    2
     8     8     9    1
     9     9    10    2
    10    10    11    1
    11    11    12    2
    12    11    13   am
    13    13    14    1
    14    14    15    1
    15    15    16    1
    16    14    17    1
    17    17    18    1
    18    17    19    1
    19    17    20    1
    20    10    21    1
    21    21    22    2
    22    22    23    1
    23    23    24    2
    24    23    25    1
    25     6    26    1
    26    26    27    1
    27    27    28    2
    28    27    29   am
    29    29    30    1
    30    30    31    2
    31    31    32    1
    32    32    33    2
    33    33    34    1
    34    34    35    1
    35    34    36    2
    36    33    37    1
    37    37    38    2
    38    26    39    2
    39    39     3    1
    40    22     7    1
    41    38    30    1
@<TRIPOS>SUBSTRUCTURE
     1 RES1        1 GROUP             0 ****  ****    0  
@<TRIPOS>MOLECULE
ligand_69
    39    41     1     0     0
SMALL
USER_CHARGES
****
Generated from the CSD

@<TRIPOS>ATOM
     1 C1      80.5474  41.1327  51.1486   C.3       1 RES1   0.0000
     2 O2      81.7779  41.6012  50.5955   O.3       1 RES1   0.0000
     3 C3      82.9208  41.0037  50.9900   C.2       1 RES1   0.0000
     4 C4      84.0899  41.4259  50.3541   C.2       1 RES1   0.0000
     5 C5      85.2583  40.7193  50.5965   C.2       1 RES1   0.0000
     6 C6      85.2730  39.6408  51.4876   C.2       1 RES1   0.0000
     7 C7      86.5529  38.8792  51.6762   C.2       1 RES1   0.0000
     8 C8      86.5867  37.5398  51.2611   C.2       1 RES1   0.0000
     9 C9      87.7224  36.7617  51.4474   C.2       1 RES1   0.0000
    10 C10     88.8694  37.3036  52.0252   C.2       1 RES1   0.0000
    11 C11     90.1039  36.4936  52.2610   C.2       1 RES1   0.0000
    12 O12     90.8812  36.7695  53.1729   O.2       1 RES1   0.0000
    13 N13     90.2955  35.4360  51.4507   N.am      1 RES1   0.0000
    14 C14     91.3999  34.4855  51.5290   C.3       1 RES1   0.0000
    15 C15     92.2500  34.5562  50.1929   C.3       1 RES1   0.0000
    16 O16     92.8337  35.8344  50.0243   O.3       1 RES1   0.0000
    17 C17     91.0071  33.0502  51.9856   C.3       1 RES1   0.0000
    18 C18     90.0702  32.3925  50.9576   C.3       1 RES1   0.0000
    19 C19     92.2600  32.1762  52.1442   C.3       1 RES1   0.0000
    20 C20     90.2831  33.1185  53.3391   C.3       1 RES1   0.0000
    21 C21     88.8639  38.6396  52.4199   C.2       1 RES1   0.0000
    22 C22     87.7137  39.4199  52.2716   C.2       1 RES1   0.0000
    23 C23     87.7826  40.8013  52.8568   C.2       1 RES1   0.0000
    24 O24     86.7973  41.5348  52.8702   O.co2     1 RES1   0.0000
    25 O25     88.9617  41.1701  53.3072   O.co2     1 RES1  -1.0000
    26 C26     84.0242  39.3538  52.1319   C.2       1 RES1   0.0000
    27 C27     83.9630  38.3046  53.2074   C.2       1 RES1   0.0000
    28 O28     84.4789  38.5118  54.3018   O.2       1 RES1   0.0000
    29 N29     83.4518  37.0970  52.8603   N.am      1 RES1   0.0000
    30 C30     83.4079  35.9042  53.6313   C.2       1 RES1   0.0000
    31 C31     84.0155  34.7155  53.2358   C.2       1 RES1   0.0000
    32 C32     83.9978  33.6076  54.0693   C.2       1 RES1   0.0000
    33 C33     83.3456  33.6534  55.3026   C.2       1 RES1   0.0000
    34 C34     83.3776  32.4833  56.2540   C.2       1 RES1   0.0000
    35 N35     83.2927  32.8106  57.6021   N.pl3     1 RES1   0.0000
    36 N36     83.4377  31.2782  55.7613   N.pl3     1 RES1   1.0000
    37 C37     82.6779  34.8241  55.6602   C.2       1 RES1   0.0000
    38 C38     82.7078  35.9378  54.8338   C.2       1 RES1   0.0000
    39 N39     82.8768  40.0048  51.8735   N.2       1 RES1   0.0000
@<TRIPOS>BOND
     1     1     2    1
     2     2     3    1
     3     3     4    2
     4     4     5    1
     5     5     6    2
     6     6     7    1
     7     7     8    2
     8     8     9    1
     9     9    10    2
    10    10    11    1
    11    11    12    2
    12    11    13   am
    13    13    14    1
    14    14    15    1
    15    15    16    1
    16    14    17    1
    17    17    18    1
    18    17    19    1
    19    17    20    1
    20    10    21    1
    21    21    22    2
    22    22    23    1
    23    23    24    2
    24    23    25    1
    25     6    26    1
    26    26    27    1
    27    27    28    2
    28    27    29   am
    29    29    30    1
    30    30    31    2
    31    31    32    1
    32    32    33    2
    33    33    34    1
    34    34    35    1
    35    34    36    2
    36    33    37    1
    37    37    38    2
    38    26    39    2
    39    39     3    1
    40    22     7    1
    41    38    30    1
@<TRIPOS>SUBSTRUCTURE
     1 RES1        1 GROUP             0 ****  ****    0  
@<TRIPOS>MOLECULE
ligand_70
    39    41     1     0     0
SMALL
USER_CHARGES
****
Generated from the CSD

@<TRIPOS>ATOM
     1 C1      80.5474  41.1327  51.1486   C.3       1 RES1   0.0000
     2 O2      81.7779  41.6012  50.5955   O.3       1 RES1   0.0000
     3 C3      82.9208  41.0037  50.9900   C.2       1 RES1   0.0000
     4 C4      84.0899  41.4259  50.3541   C.2       1 RES1   0.0000
     5 C5      85.2583  40.7193  50.5965   C.2       1 RES1   0.0000
     6 C6      85.2730  39.6408  51.4876   C.2       1 RES1   0.0000
     7 C7      86.5529  38.8792  51.6762   C.2       1 RES1   0.0000
     8 C8      86.5867  37.5398  51.2611   C.2       1 RES1   0.0000
     9 C9      87.7224  36.7617  51.4474   C.2       1 RES1   0.0000
    10 C10     88.8694  37.3036  52.0252   C.2       1 RES1   0.0000
    11 C11     90.1039  36.4936  52.2610   C.2       1 RES1   0.0000
    12 O12     90.8812  36.7694  53.1730   O.2       1 RES1   0.0000
    13 N13     90.2956  35.4360  51.4506   N.am      1 RES1   0.0000
    14 C14     91.4000  34.4855  51.5290   C.3       1 RES1   0.0000
    15 C15     92.2501  34.5563  50.1929   C.3       1 RES1   0.0000
    16 O16     92.8339  35.8345  50.0244   O.3       1 RES1   0.0000
    17 C17     91.0071  33.0503  51.9855   C.3       1 RES1   0.0000
    18 C18     90.0703  32.3926  50.9574   C.3       1 RES1   0.0000
    19 C19     92.2600  32.1762  52.1441   C.3       1 RES1   0.0000
    20 C20     90.2830  33.1184  53.3389   C.3       1 RES1   0.0000
    21 C21     88.8639  38.6396  52.4199   C.2       1 RES1   0.0000
    22 C22     87.7137  39.4199  52.2716   C.2       1 RES1   0.0000
    23 C23     87.7826  40.8013  52.8568   C.2       1 RES1   0.0000
    24 O24     86.7973  41.5348  52.8701   O.co2     1 RES1   0.0000
    25 O25     88.9617  41.1701  53.3072   O.co2     1 RES1  -1.0000
    26 C26     84.0242  39.3538  52.1319   C.2       1 RES1   0.0000
    27 C27     83.9630  38.3046  53.2074   C.2       1 RES1   0.0000
    28 O28     83.9993  37.1139  52.9107   O.2       1 RES1   0.0000
    29 N29     83.7226  38.7329  54.4718   N.am      1 RES1   0.0000
    30 C30     83.4798  37.9537  55.6349   C.2       1 RES1   0.0000
    31 C31     82.3075  38.0391  56.3814   C.2       1 RES1   0.0000
    32 C32     82.1024  37.1974  57.4639   C.2       1 RES1   0.0000
    33 C33     83.0774  36.2735  57.8436   C.2       1 RES1   0.0000
    34 C34     82.8428  35.3004  58.9721   C.2       1 RES1   0.0000
    35 N35     83.5151  34.0890  58.8620   N.pl3     1 RES1   0.0000
    36 N36     82.0827  35.6664  59.9655   N.pl3     1 RES1   1.0000
    37 C37     84.2784  36.2433  57.1359   C.2       1 RES1   0.0000
    38 C38     84.4784  37.0745  56.0435   C.2       1 RES1   0.0000
    39 N39     82.8768  40.0048  51.8735   N.2       1 RES1   0.0000
@<TRIPOS>BOND
     1     1     2    1
     2     2     3    1
     3     3     4    2
     4     4     5    1
     5     5     6    2
     6     6     7    1
     7     7     8    2
     8     8     9    1
     9     9    10    2
    10    10    11    1
    11    11    12    2
    12    11    13   am
    13    13    14    1
    14    14    15    1
    15    15    16    1
    16    14    17    1
    17    17    18    1
    18    17    19    1
    19    17    20    1
    20    10    21    1
    21    21    22    2
    22    22    23    1
    23    23    24    2
    24    23    25    1
    25     6    26    1
    26    26    27    1
    27    27    28    2
    28    27    29   am
    29    29    30    1
    30    30    31    2
    31    31    32    1
    32    32    33    2
    33    33    34    1
    34    34    35    1
    35    34    36    2
    36    33    37    1
    37    37    38    2
    38    26    39    2
    39    39     3    1
    40    22     7    1
    41    38    30    1
@<TRIPOS>SUBSTRUCTURE
     1 RES1        1 GROUP             0 ****  ****    0  
@<TRIPOS>MOLECULE
ligand_71
    39    41     1     0     0
SMALL
USER_CHARGES
****
Generated from the CSD

@<TRIPOS>ATOM
     1 C1      82.0701  43.4391  50.9883   C.3       1 RES1   0.0000
     2 O2      81.9834  42.0263  51.1783   O.3       1 RES1   0.0000
     3 C3      83.1149  41.3000  51.0746   C.2       1 RES1   0.0000
     4 C4      83.0034  39.9384  51.3625   C.2       1 RES1   0.0000
     5 C5      84.1677  39.1892  51.4435   C.2       1 RES1   0.0000
     6 C6      85.4155  39.7736  51.1999   C.2       1 RES1   0.0000
     7 C7      86.6480  38.9296  51.3493   C.2       1 RES1   0.0000
     8 C8      87.5523  39.2634  52.3682   C.2       1 RES1   0.0000
     9 C9      88.7356  38.5549  52.5347   C.2       1 RES1   0.0000
    10 C10     89.0391  37.4727  51.7102   C.2       1 RES1   0.0000
    11 C11     90.3111  36.6983  51.8446   C.2       1 RES1   0.0000
    12 O12     91.3403  37.2317  52.2548   O.2       1 RES1   0.0000
    13 N13     90.2577  35.3907  51.5292   N.am      1 RES1   0.0000
    14 C14     91.3684  34.4469  51.5968   C.3       1 RES1   0.0000
    15 C15     92.1381  34.4409  50.2110   C.3       1 RES1   0.0000
    16 O16     92.7061  35.7075  49.9351   O.3       1 RES1   0.0000
    17 C17     91.0088  33.0402  52.1576   C.3       1 RES1   0.0000
    18 C18     90.0154  32.3239  51.2263   C.3       1 RES1   0.0000
    19 C19     92.2721  32.1772  52.2918   C.3       1 RES1   0.0000
    20 C20     90.3655  33.1860  53.5454   C.3       1 RES1   0.0000
    21 C21     88.1408  37.1094  50.7093   C.2       1 RES1   0.0000
    22 C22     86.9658  37.8396  50.5094   C.2       1 RES1   0.0000
    23 C23     86.1445  37.4406  49.3170   C.2       1 RES1   0.0000
    24 O24     85.1464  38.0784  48.9917   O.co2     1 RES1   0.0000
    25 O25     86.5450  36.3579  48.6871   O.co2     1 RES1  -1.0000
    26 C26     85.3888  41.1622  50.8419   C.2       1 RES1   0.0000
    27 C27     86.6598  41.8506  50.4275   C.2       1 RES1   0.0000
    28 O28     87.5013  41.2477  49.7676   O.2       1 RES1   0.0000
    29 N29     86.8827  43.0886  50.9352   N.am      1 RES1   0.0000
    30 C30     88.0512  43.8893  50.8239   C.2       1 RES1   0.0000
    31 C31     89.1957  43.4812  50.1441   C.2       1 RES1   0.0000
    32 C32     90.2756  44.3404  50.0097   C.2       1 RES1   0.0000
    33 C33     90.2480  45.6148  50.5785   C.2       1 RES1   0.0000
    34 C34     91.3821  46.5896  50.3813   C.2       1 RES1   0.0000
    35 N35     91.0228  47.9320  50.4030   N.pl3     1 RES1   0.0000
    36 N36     92.5920  46.1232  50.2508   N.pl3     1 RES1   1.0000
    37 C37     89.1276  45.9899  51.3190   C.2       1 RES1   0.0000
    38 C38     88.0408  45.1367  51.4413   C.2       1 RES1   0.0000
    39 N39     84.2709  41.9077  50.8014   N.2       1 RES1   0.0000
@<TRIPOS>BOND
     1     1     2    1
     2     2     3    1
     3     3     4    2
     4     4     5    1
     5     5     6    2
     6     6     7    1
     7     7     8    2
     8     8     9    1
     9     9    10    2
    10    10    11    1
    11    11    12    2
    12    11    13   am
    13    13    14    1
    14    14    15    1
    15    15    16    1
    16    14    17    1
    17    17    18    1
    18    17    19    1
    19    17    20    1
    20    10    21    1
    21    21    22    2
    22    22    23    1
    23    23    24    2
    24    23    25    1
    25     6    26    1
    26    26    27    1
    27    27    28    2
    28    27    29   am
    29    29    30    1
    30    30    31    2
    31    31    32    1
    32    32    33    2
    33    33    34    1
    34    34    35    1
    35    34    36    2
    36    33    37    1
    37    37    38    2
    38    26    39    2
    39    39     3    1
    40    22     7    1
    41    38    30    1
@<TRIPOS>SUBSTRUCTURE
     1 RES1        1 GROUP             0 ****  ****    0  
@<TRIPOS>MOLECULE
ligand_72
    39    41     1     0     0
SMALL
USER_CHARGES
****
Generated from the CSD

@<TRIPOS>ATOM
     1 C1      80.5582  40.9322  50.8307   C.3       1 RES1   0.0000
     2 O2      81.7938  41.6447  50.7586   O.3       1 RES1   0.0000
     3 C3      82.9250  40.9918  51.0946   C.2       1 RES1   0.0000
     4 C4      84.1190  41.6936  50.9179   C.2       1 RES1   0.0000
     5 C5      85.3123  41.0057  51.0790   C.2       1 RES1   0.0000
     6 C6      85.3186  39.6570  51.4514   C.2       1 RES1   0.0000
     7 C7      86.6363  38.9465  51.5638   C.2       1 RES1   0.0000
     8 C8      86.8976  37.9024  50.6644   C.2       1 RES1   0.0000
     9 C9      88.0764  37.1712  50.7404   C.2       1 RES1   0.0000
    10 C10     89.0440  37.4783  51.6956   C.2       1 RES1   0.0000
    11 C11     90.3158  36.7022  51.8223   C.2       1 RES1   0.0000
    12 O12     91.3380  37.2238  52.2640   O.2       1 RES1   0.0000
    13 N13     90.2696  35.4056  51.4638   N.am      1 RES1   0.0000
    14 C14     91.3767  34.4574  51.5329   C.3       1 RES1   0.0000
    15 C15     92.1860  34.4941  50.1704   C.3       1 RES1   0.0000
    16 O16     92.7633  35.7676  49.9517   O.3       1 RES1   0.0000
    17 C17     90.9990  33.0344  52.0377   C.3       1 RES1   0.0000
    18 C18     90.0320  32.3505  51.0557   C.3       1 RES1   0.0000
    19 C19     92.2568  32.1647  52.1806   C.3       1 RES1   0.0000
    20 C20     90.3161  33.1371  53.4103   C.3       1 RES1   0.0000
    21 C21     88.8141  38.5291  52.5808   C.2       1 RES1   0.0000
    22 C22     87.6149  39.2460  52.5369   C.2       1 RES1   0.0000
    23 C23     87.4224  40.2627  53.6255   C.2       1 RES1   0.0000
    24 O24     86.3651  40.8775  53.7398   O.co2     1 RES1   0.0000
    25 O25     88.4627  40.4669  54.4035   O.co2     1 RES1  -1.0000
    26 C26     84.0287  39.0709  51.6741   C.2       1 RES1   0.0000
    27 C27     83.9281  37.6690  52.2087   C.2       1 RES1   0.0000
    28 O28     84.7378  37.2654  53.0385   O.2       1 RES1   0.0000
    29 N29     83.0115  36.8539  51.6294   N.am      1 RES1   0.0000
    30 C30     82.8111  35.4631  51.8402   C.2       1 RES1   0.0000
    31 C31     83.5817  34.7040  52.7169   C.2       1 RES1   0.0000
    32 C32     83.2867  33.3663  52.9319   C.2       1 RES1   0.0000
    33 C33     82.2350  32.7498  52.2519   C.2       1 RES1   0.0000
    34 C34     81.8531  31.3165  52.5262   C.2       1 RES1   0.0000
    35 N35     80.5116  31.0108  52.3298   N.pl3     1 RES1   0.0000
    36 N36     82.7861  30.4768  52.8767   N.pl3     1 RES1   1.0000
    37 C37     81.5136  33.4974  51.3219   C.2       1 RES1   0.0000
    38 C38     81.7983  34.8395  51.1173   C.2       1 RES1   0.0000
    39 N39     82.8652  39.7159  51.4805   N.2       1 RES1   0.0000
@<TRIPOS>BOND
     1     1     2    1
     2     2     3    1
     3     3     4    2
     4     4     5    1
     5     5     6    2
     6     6     7    1
     7     7     8    2
     8     8     9    1
     9     9    10    2
    10    10    11    1
    11    11    12    2
    12    11    13   am
    13    13    14    1
    14    14    15    1
    15    15    16    1
    16    14    17    1
    17    17    18    1
    18    17    19    1
    19    17    20    1
    20    10    21    1
    21    21    22    2
    22    22    23    1
    23    23    24    2
    24    23    25    1
    25     6    26    1
    26    26    27    1
    27    27    28    2
    28    27    29   am
    29    29    30    1
    30    30    31    2
    31    31    32    1
    32    32    33    2
    33    33    34    1
    34    34    35    1
    35    34    36    2
    36    33    37    1
    37    37    38    2
    38    26    39    2
    39    39     3    1
    40    22     7    1
    41    38    30    1
@<TRIPOS>SUBSTRUCTURE
     1 RES1        1 GROUP             0 ****  ****    0  
@<TRIPOS>MOLECULE
ligand_73
    39    41     1     0     0
SMALL
USER_CHARGES
****
Generated from the CSD

@<TRIPOS>ATOM
     1 C1      82.0701  43.4391  50.9883   C.3       1 RES1   0.0000
     2 O2      81.9834  42.0263  51.1783   O.3       1 RES1   0.0000
     3 C3      83.1149  41.3000  51.0746   C.2       1 RES1   0.0000
     4 C4      83.0034  39.9384  51.3625   C.2       1 RES1   0.0000
     5 C5      84.1677  39.1892  51.4435   C.2       1 RES1   0.0000
     6 C6      85.4155  39.7736  51.1999   C.2       1 RES1   0.0000
     7 C7      86.6480  38.9296  51.3493   C.2       1 RES1   0.0000
     8 C8      87.5532  39.2645  52.3670   C.2       1 RES1   0.0000
     9 C9      88.7365  38.5560  52.5335   C.2       1 RES1   0.0000
    10 C10     89.0391  37.4728  51.7100   C.2       1 RES1   0.0000
    11 C11     90.3112  36.6983  51.8443   C.2       1 RES1   0.0000
    12 O12     91.3408  37.2321  52.2528   O.2       1 RES1   0.0000
    13 N13     90.2572  35.3904  51.5308   N.am      1 RES1   0.0000
    14 C14     91.3679  34.4464  51.5988   C.3       1 RES1   0.0000
    15 C15     92.1366  34.4383  50.2125   C.3       1 RES1   0.0000
    16 O16     92.7041  35.7045  49.9342   O.3       1 RES1   0.0000
    17 C17     91.0083  33.0405  52.1618   C.3       1 RES1   0.0000
    18 C18     90.0146  32.3229  51.2319   C.3       1 RES1   0.0000
    19 C19     92.2717  32.1777  52.2969   C.3       1 RES1   0.0000
    20 C20     90.3655  33.1884  53.5496   C.3       1 RES1   0.0000
    21 C21     88.1400  37.1084  50.7103   C.2       1 RES1   0.0000
    22 C22     86.9650  37.8386  50.5105   C.2       1 RES1   0.0000
    23 C23     86.1427  37.4382  49.3192   C.2       1 RES1   0.0000
    24 O24     85.1429  38.0743  48.9954   O.co2     1 RES1   0.0000
    25 O25     86.5441  36.3564  48.6886   O.co2     1 RES1  -1.0000
    26 C26     85.3888  41.1622  50.8419   C.2       1 RES1   0.0000
    27 C27     86.6598  41.8506  50.4275   C.2       1 RES1   0.0000
    28 O28     87.1830  41.5837  49.3495   O.2       1 RES1   0.0000
    29 N29     87.2563  42.6477  51.3488   N.am      1 RES1   0.0000
    30 C30     88.5187  43.2950  51.2688   C.2       1 RES1   0.0000
    31 C31     88.6753  44.6766  51.3420   C.2       1 RES1   0.0000
    32 C32     89.9420  45.2405  51.3313   C.2       1 RES1   0.0000
    33 C33     91.0786  44.4385  51.2153   C.2       1 RES1   0.0000
    34 C34     92.4664  45.0266  51.2751   C.2       1 RES1   0.0000
    35 N35     93.4168  44.3887  50.4868   N.pl3     1 RES1   0.0000
    36 N36     92.6653  46.0869  52.0063   N.pl3     1 RES1   1.0000
    37 C37     90.9108  43.0620  51.0697   C.2       1 RES1   0.0000
    38 C38     89.6448  42.4956  51.0955   C.2       1 RES1   0.0000
    39 N39     84.2709  41.9077  50.8014   N.2       1 RES1   0.0000
@<TRIPOS>BOND
     1     1     2    1
     2     2     3    1
     3     3     4    2
     4     4     5    1
     5     5     6    2
     6     6     7    1
     7     7     8    2
     8     8     9    1
     9     9    10    2
    10    10    11    1
    11    11    12    2
    12    11    13   am
    13    13    14    1
    14    14    15    1
    15    15    16    1
    16    14    17    1
    17    17    18    1
    18    17    19    1
    19    17    20    1
    20    10    21    1
    21    21    22    2
    22    22    23    1
    23    23    24    2
    24    23    25    1
    25     6    26    1
    26    26    27    1
    27    27    28    2
    28    27    29   am
    29    29    30    1
    30    30    31    2
    31    31    32    1
    32    32    33    2
    33    33    34    1
    34    34    35    1
    35    34    36    2
    36    33    37    1
    37    37    38    2
    38    26    39    2
    39    39     3    1
    40    22     7    1
    41    38    30    1
@<TRIPOS>SUBSTRUCTURE
     1 RES1        1 GROUP             0 ****  ****    0  
@<TRIPOS>MOLECULE
ligand_74
    39    41     1     0     0
SMALL
USER_CHARGES
****
Generated from the CSD

@<TRIPOS>ATOM
     1 C1      82.0701  43.4391  50.9883   C.3       1 RES1   0.0000
     2 O2      81.9834  42.0263  51.1783   O.3       1 RES1   0.0000
     3 C3      83.1149  41.3000  51.0746   C.2       1 RES1   0.0000
     4 C4      83.0034  39.9384  51.3625   C.2       1 RES1   0.0000
     5 C5      84.1677  39.1892  51.4435   C.2       1 RES1   0.0000
     6 C6      85.4155  39.7736  51.1999   C.2       1 RES1   0.0000
     7 C7      86.6480  38.9296  51.3493   C.2       1 RES1   0.0000
     8 C8      87.5531  39.2645  52.3671   C.2       1 RES1   0.0000
     9 C9      88.7365  38.5560  52.5335   C.2       1 RES1   0.0000
    10 C10     89.0391  37.4728  51.7100   C.2       1 RES1   0.0000
    11 C11     90.3112  36.6983  51.8443   C.2       1 RES1   0.0000
    12 O12     91.3409  37.2322  52.2526   O.2       1 RES1   0.0000
    13 N13     90.2572  35.3903  51.5309   N.am      1 RES1   0.0000
    14 C14     91.3678  34.4464  51.5989   C.3       1 RES1   0.0000
    15 C15     92.1363  34.4382  50.2124   C.3       1 RES1   0.0000
    16 O16     92.7038  35.7044  49.9339   O.3       1 RES1   0.0000
    17 C17     91.0084  33.0406  52.1621   C.3       1 RES1   0.0000
    18 C18     90.0145  32.3229  51.2325   C.3       1 RES1   0.0000
    19 C19     92.2718  32.1778  52.2971   C.3       1 RES1   0.0000
    20 C20     90.3659  33.1886  53.5500   C.3       1 RES1   0.0000
    21 C21     88.1400  37.1084  50.7102   C.2       1 RES1   0.0000
    22 C22     86.9650  37.8386  50.5104   C.2       1 RES1   0.0000
    23 C23     86.1427  37.4383  49.3191   C.2       1 RES1   0.0000
    24 O24     85.1431  38.0745  48.9953   O.co2     1 RES1   0.0000
    25 O25     86.5442  36.3565  48.6885   O.co2     1 RES1  -1.0000
    26 C26     85.3888  41.1622  50.8419   C.2       1 RES1   0.0000
    27 C27     86.6598  41.8506  50.4275   C.2       1 RES1   0.0000
    28 O28     87.4974  42.1596  51.2701   O.2       1 RES1   0.0000
    29 N29     86.7577  42.2322  49.1295   N.am      1 RES1   0.0000
    30 C30     87.7738  43.0123  48.5146   C.2       1 RES1   0.0000
    31 C31     88.5635  42.5493  47.4656   C.2       1 RES1   0.0000
    32 C32     89.4882  43.3871  46.8609   C.2       1 RES1   0.0000
    33 C33     89.6662  44.6961  47.3117   C.2       1 RES1   0.0000
    34 C34     90.6140  45.6446  46.6207   C.2       1 RES1   0.0000
    35 N35     91.2527  46.5573  47.4518   N.pl3     1 RES1   0.0000
    36 N36     90.7974  45.5203  45.3364   N.pl3     1 RES1   1.0000
    37 C37     88.9233  45.1298  48.4091   C.2       1 RES1   0.0000
    38 C38     87.9873  44.2973  49.0050   C.2       1 RES1   0.0000
    39 N39     84.2709  41.9077  50.8014   N.2       1 RES1   0.0000
@<TRIPOS>BOND
     1     1     2    1
     2     2     3    1
     3     3     4    2
     4     4     5    1
     5     5     6    2
     6     6     7    1
     7     7     8    2
     8     8     9    1
     9     9    10    2
    10    10    11    1
    11    11    12    2
    12    11    13   am
    13    13    14    1
    14    14    15    1
    15    15    16    1
    16    14    17    1
    17    17    18    1
    18    17    19    1
    19    17    20    1
    20    10    21    1
    21    21    22    2
    22    22    23    1
    23    23    24    2
    24    23    25    1
    25     6    26    1
    26    26    27    1
    27    27    28    2
    28    27    29   am
    29    29    30    1
    30    30    31    2
    31    31    32    1
    32    32    33    2
    33    33    34    1
    34    34    35    1
    35    34    36    2
    36    33    37    1
    37    37    38    2
    38    26    39    2
    39    39     3    1
    40    22     7    1
    41    38    30    1
@<TRIPOS>SUBSTRUCTURE
     1 RES1        1 GROUP             0 ****  ****    0  
@<TRIPOS>MOLECULE
ligand_75
    39    41     1     0     0
SMALL
USER_CHARGES
****
Generated from the CSD

@<TRIPOS>ATOM
     1 C1      81.8801  42.9232  49.7761   C.3       1 RES1   0.0000
     2 O2      82.0458  42.0854  50.9208   O.3       1 RES1   0.0000
     3 C3      83.0825  41.2229  50.9329   C.2       1 RES1   0.0000
     4 C4      83.2646  40.4925  52.1088   C.2       1 RES1   0.0000
     5 C5      84.4159  39.7295  52.2334   C.2       1 RES1   0.0000
     6 C6      85.3469  39.6596  51.1913   C.2       1 RES1   0.0000
     7 C7      86.6000  38.8588  51.3969   C.2       1 RES1   0.0000
     8 C8      87.8228  39.5457  51.4098   C.2       1 RES1   0.0000
     9 C9      89.0250  38.8634  51.5488   C.2       1 RES1   0.0000
    10 C10     89.0429  37.4789  51.7100   C.2       1 RES1   0.0000
    11 C11     90.3165  36.7067  51.8421   C.2       1 RES1   0.0000
    12 O12     91.3148  37.2091  52.3549   O.2       1 RES1   0.0000
    13 N13     90.2981  35.4334  51.4059   N.am      1 RES1   0.0000
    14 C14     91.3979  34.4791  51.5009   C.3       1 RES1   0.0000
    15 C15     92.3055  34.5925  50.2061   C.3       1 RES1   0.0000
    16 O16     92.8959  35.8747  50.1052   O.3       1 RES1   0.0000
    17 C17     90.9853  33.0302  51.8923   C.3       1 RES1   0.0000
    18 C18     90.0944  32.4081  50.8032   C.3       1 RES1   0.0000
    19 C19     92.2300  32.1495  52.0769   C.3       1 RES1   0.0000
    20 C20     90.2026  33.0550  53.2143   C.3       1 RES1   0.0000
    21 C21     87.8368  36.7821  51.7262   C.2       1 RES1   0.0000
    22 C22     86.6246  37.4551  51.5489   C.2       1 RES1   0.0000
    23 C23     85.4043  36.5854  51.4475   C.2       1 RES1   0.0000
    24 O24     84.3022  37.0654  51.1950   O.co2     1 RES1   0.0000
    25 O25     85.5964  35.3061  51.6835   O.co2     1 RES1  -1.0000
    26 C26     85.0078  40.3968  50.0086   C.2       1 RES1   0.0000
    27 C27     85.8710  40.2793  48.7829   C.2       1 RES1   0.0000
    28 O28     85.8790  39.2391  48.1311   O.2       1 RES1   0.0000
    29 N29     86.7256  41.3024  48.5320   N.am      1 RES1   0.0000
    30 C30     87.7361  41.3824  47.5362   C.2       1 RES1   0.0000
    31 C31     87.7543  42.3571  46.5421   C.2       1 RES1   0.0000
    32 C32     88.8091  42.4240  45.6447   C.2       1 RES1   0.0000
    33 C33     89.8531  41.4992  45.7011   C.2       1 RES1   0.0000
    34 C34     91.0443  41.5996  44.7811   C.2       1 RES1   0.0000
    35 N35     92.2357  41.1010  45.2945   N.pl3     1 RES1   0.0000
    36 N36     90.8725  42.0929  43.5871   N.pl3     1 RES1   1.0000
    37 C37     89.7919  40.4824  46.6532   C.2       1 RES1   0.0000
    38 C38     88.7447  40.4236  47.5611   C.2       1 RES1   0.0000
    39 N39     83.9162  41.1726  49.8923   N.2       1 RES1   0.0000
@<TRIPOS>BOND
     1     1     2    1
     2     2     3    1
     3     3     4    2
     4     4     5    1
     5     5     6    2
     6     6     7    1
     7     7     8    2
     8     8     9    1
     9     9    10    2
    10    10    11    1
    11    11    12    2
    12    11    13   am
    13    13    14    1
    14    14    15    1
    15    15    16    1
    16    14    17    1
    17    17    18    1
    18    17    19    1
    19    17    20    1
    20    10    21    1
    21    21    22    2
    22    22    23    1
    23    23    24    2
    24    23    25    1
    25     6    26    1
    26    26    27    1
    27    27    28    2
    28    27    29   am
    29    29    30    1
    30    30    31    2
    31    31    32    1
    32    32    33    2
    33    33    34    1
    34    34    35    1
    35    34    36    2
    36    33    37    1
    37    37    38    2
    38    26    39    2
    39    39     3    1
    40    22     7    1
    41    38    30    1
@<TRIPOS>SUBSTRUCTURE
     1 RES1        1 GROUP             0 ****  ****    0  
@<TRIPOS>MOLECULE
ligand_76
    39    41     1     0     0
SMALL
USER_CHARGES
****
Generated from the CSD

@<TRIPOS>ATOM
     1 C1      81.8801  42.9232  49.7761   C.3       1 RES1   0.0000
     2 O2      82.0458  42.0854  50.9208   O.3       1 RES1   0.0000
     3 C3      83.0825  41.2229  50.9329   C.2       1 RES1   0.0000
     4 C4      83.2646  40.4925  52.1088   C.2       1 RES1   0.0000
     5 C5      84.4159  39.7295  52.2334   C.2       1 RES1   0.0000
     6 C6      85.3469  39.6596  51.1913   C.2       1 RES1   0.0000
     7 C7      86.6000  38.8588  51.3969   C.2       1 RES1   0.0000
     8 C8      87.8228  39.5457  51.4098   C.2       1 RES1   0.0000
     9 C9      89.0250  38.8634  51.5488   C.2       1 RES1   0.0000
    10 C10     89.0429  37.4789  51.7100   C.2       1 RES1   0.0000
    11 C11     90.3165  36.7067  51.8421   C.2       1 RES1   0.0000
    12 O12     91.3148  37.2091  52.3549   O.2       1 RES1   0.0000
    13 N13     90.2981  35.4334  51.4059   N.am      1 RES1   0.0000
    14 C14     91.3979  34.4791  51.5009   C.3       1 RES1   0.0000
    15 C15     92.3055  34.5925  50.2061   C.3       1 RES1   0.0000
    16 O16     92.8959  35.8747  50.1052   O.3       1 RES1   0.0000
    17 C17     90.9853  33.0302  51.8923   C.3       1 RES1   0.0000
    18 C18     90.0944  32.4081  50.8032   C.3       1 RES1   0.0000
    19 C19     92.2300  32.1495  52.0769   C.3       1 RES1   0.0000
    20 C20     90.2026  33.0550  53.2143   C.3       1 RES1   0.0000
    21 C21     87.8368  36.7821  51.7262   C.2       1 RES1   0.0000
    22 C22     86.6246  37.4551  51.5489   C.2       1 RES1   0.0000
    23 C23     85.4043  36.5854  51.4475   C.2       1 RES1   0.0000
    24 O24     84.3022  37.0654  51.1950   O.co2     1 RES1   0.0000
    25 O25     85.5964  35.3061  51.6835   O.co2     1 RES1  -1.0000
    26 C26     85.0078  40.3968  50.0086   C.2       1 RES1   0.0000
    27 C27     85.8710  40.2793  48.7829   C.2       1 RES1   0.0000
    28 O28     86.9579  40.8479  48.7367   O.2       1 RES1   0.0000
    29 N29     85.3310  39.6522  47.7080   N.am      1 RES1   0.0000
    30 C30     85.8679  39.5291  46.3982   C.2       1 RES1   0.0000
    31 C31     86.1469  38.3038  45.7985   C.2       1 RES1   0.0000
    32 C32     86.6009  38.2509  44.4895   C.2       1 RES1   0.0000
    33 C33     86.8161  39.4222  43.7614   C.2       1 RES1   0.0000
    34 C34     87.2395  39.3829  42.3141   C.2       1 RES1   0.0000
    35 N35     86.8210  40.4607  41.5428   N.pl3     1 RES1   0.0000
    36 N36     87.9828  38.3930  41.9067   N.pl3     1 RES1   1.0000
    37 C37     86.6035  40.6474  44.3922   C.2       1 RES1   0.0000
    38 C38     86.1350  40.7011  45.6967   C.2       1 RES1   0.0000
    39 N39     83.9162  41.1726  49.8923   N.2       1 RES1   0.0000
@<TRIPOS>BOND
     1     1     2    1
     2     2     3    1
     3     3     4    2
     4     4     5    1
     5     5     6    2
     6     6     7    1
     7     7     8    2
     8     8     9    1
     9     9    10    2
    10    10    11    1
    11    11    12    2
    12    11    13   am
    13    13    14    1
    14    14    15    1
    15    15    16    1
    16    14    17    1
    17    17    18    1
    18    17    19    1
    19    17    20    1
    20    10    21    1
    21    21    22    2
    22    22    23    1
    23    23    24    2
    24    23    25    1
    25     6    26    1
    26    26    27    1
    27    27    28    2
    28    27    29   am
    29    29    30    1
    30    30    31    2
    31    31    32    1
    32    32    33    2
    33    33    34    1
    34    34    35    1
    35    34    36    2
    36    33    37    1
    37    37    38    2
    38    26    39    2
    39    39     3    1
    40    22     7    1
    41    38    30    1
@<TRIPOS>SUBSTRUCTURE
     1 RES1        1 GROUP             0 ****  ****    0  
@<TRIPOS>MOLECULE
ligand_77
    39    41     1     0     0
SMALL
USER_CHARGES
****
Generated from the CSD

@<TRIPOS>ATOM
     1 C1      80.5582  40.9322  50.8307   C.3       1 RES1   0.0000
     2 O2      81.7938  41.6447  50.7586   O.3       1 RES1   0.0000
     3 C3      82.9250  40.9918  51.0946   C.2       1 RES1   0.0000
     4 C4      84.1190  41.6936  50.9179   C.2       1 RES1   0.0000
     5 C5      85.3123  41.0057  51.0790   C.2       1 RES1   0.0000
     6 C6      85.3186  39.6570  51.4514   C.2       1 RES1   0.0000
     7 C7      86.6363  38.9465  51.5638   C.2       1 RES1   0.0000
     8 C8      86.8975  37.9023  50.6645   C.2       1 RES1   0.0000
     9 C9      88.0763  37.1711  50.7405   C.2       1 RES1   0.0000
    10 C10     89.0440  37.4783  51.6956   C.2       1 RES1   0.0000
    11 C11     90.3157  36.7022  51.8224   C.2       1 RES1   0.0000
    12 O12     91.3380  37.2238  52.2640   O.2       1 RES1   0.0000
    13 N13     90.2696  35.4056  51.4638   N.am      1 RES1   0.0000
    14 C14     91.3766  34.4574  51.5330   C.3       1 RES1   0.0000
    15 C15     92.1860  34.4940  50.1705   C.3       1 RES1   0.0000
    16 O16     92.7633  35.7675  49.9518   O.3       1 RES1   0.0000
    17 C17     90.9990  33.0343  52.0378   C.3       1 RES1   0.0000
    18 C18     90.0320  32.3505  51.0557   C.3       1 RES1   0.0000
    19 C19     92.2567  32.1646  52.1808   C.3       1 RES1   0.0000
    20 C20     90.3160  33.1371  53.4104   C.3       1 RES1   0.0000
    21 C21     88.8141  38.5292  52.5807   C.2       1 RES1   0.0000
    22 C22     87.6149  39.2461  52.5369   C.2       1 RES1   0.0000
    23 C23     87.4225  40.2629  53.6253   C.2       1 RES1   0.0000
    24 O24     86.3653  40.8779  53.7396   O.co2     1 RES1   0.0000
    25 O25     88.4628  40.4671  54.4033   O.co2     1 RES1  -1.0000
    26 C26     84.0287  39.0709  51.6741   C.2       1 RES1   0.0000
    27 C27     83.9281  37.6690  52.2087   C.2       1 RES1   0.0000
    28 O28     84.2372  37.4286  53.3722   O.2       1 RES1   0.0000
    29 N29     83.6286  36.6909  51.3179   N.am      1 RES1   0.0000
    30 C30     83.6101  35.2854  51.5257   C.2       1 RES1   0.0000
    31 C31     82.4723  34.5018  51.3517   C.2       1 RES1   0.0000
    32 C32     82.5397  33.1248  51.4994   C.2       1 RES1   0.0000
    33 C33     83.7380  32.5035  51.8551   C.2       1 RES1   0.0000
    34 C34     83.8487  31.0021  51.9492   C.2       1 RES1   0.0000
    35 N35     84.7188  30.5301  52.9248   N.pl3     1 RES1   0.0000
    36 N36     83.1113  30.2702  51.1624   N.pl3     1 RES1   1.0000
    37 C37     84.8556  33.3012  52.0982   C.2       1 RES1   0.0000
    38 C38     84.7930  34.6774  51.9360   C.2       1 RES1   0.0000
    39 N39     82.8652  39.7159  51.4805   N.2       1 RES1   0.0000
@<TRIPOS>BOND
     1     1     2    1
     2     2     3    1
     3     3     4    2
     4     4     5    1
     5     5     6    2
     6     6     7    1
     7     7     8    2
     8     8     9    1
     9     9    10    2
    10    10    11    1
    11    11    12    2
    12    11    13   am
    13    13    14    1
    14    14    15    1
    15    15    16    1
    16    14    17    1
    17    17    18    1
    18    17    19    1
    19    17    20    1
    20    10    21    1
    21    21    22    2
    22    22    23    1
    23    23    24    2
    24    23    25    1
    25     6    26    1
    26    26    27    1
    27    27    28    2
    28    27    29   am
    29    29    30    1
    30    30    31    2
    31    31    32    1
    32    32    33    2
    33    33    34    1
    34    34    35    1
    35    34    36    2
    36    33    37    1
    37    37    38    2
    38    26    39    2
    39    39     3    1
    40    22     7    1
    41    38    30    1
@<TRIPOS>SUBSTRUCTURE
     1 RES1        1 GROUP             0 ****  ****    0  
@<TRIPOS>MOLECULE
ligand_78
    39    41     1     0     0
SMALL
USER_CHARGES
****
Generated from the CSD

@<TRIPOS>ATOM
     1 C1      80.5582  40.9322  50.8307   C.3       1 RES1   0.0000
     2 O2      81.7938  41.6447  50.7586   O.3       1 RES1   0.0000
     3 C3      82.9250  40.9918  51.0946   C.2       1 RES1   0.0000
     4 C4      84.1190  41.6936  50.9179   C.2       1 RES1   0.0000
     5 C5      85.3123  41.0057  51.0790   C.2       1 RES1   0.0000
     6 C6      85.3186  39.6570  51.4514   C.2       1 RES1   0.0000
     7 C7      86.6363  38.9465  51.5638   C.2       1 RES1   0.0000
     8 C8      86.8975  37.9023  50.6645   C.2       1 RES1   0.0000
     9 C9      88.0763  37.1711  50.7405   C.2       1 RES1   0.0000
    10 C10     89.0440  37.4783  51.6956   C.2       1 RES1   0.0000
    11 C11     90.3157  36.7022  51.8224   C.2       1 RES1   0.0000
    12 O12     91.3380  37.2238  52.2640   O.2       1 RES1   0.0000
    13 N13     90.2696  35.4056  51.4638   N.am      1 RES1   0.0000
    14 C14     91.3766  34.4574  51.5331   C.3       1 RES1   0.0000
    15 C15     92.1860  34.4940  50.1705   C.3       1 RES1   0.0000
    16 O16     92.7633  35.7675  49.9518   O.3       1 RES1   0.0000
    17 C17     90.9989  33.0343  52.0379   C.3       1 RES1   0.0000
    18 C18     90.0320  32.3505  51.0558   C.3       1 RES1   0.0000
    19 C19     92.2567  32.1646  52.1809   C.3       1 RES1   0.0000
    20 C20     90.3160  33.1372  53.4104   C.3       1 RES1   0.0000
    21 C21     88.8141  38.5292  52.5807   C.2       1 RES1   0.0000
    22 C22     87.6149  39.2461  52.5368   C.2       1 RES1   0.0000
    23 C23     87.4225  40.2629  53.6253   C.2       1 RES1   0.0000
    24 O24     86.3654  40.8780  53.7395   O.co2     1 RES1   0.0000
    25 O25     88.4628  40.4671  54.4033   O.co2     1 RES1  -1.0000
    26 C26     84.0287  39.0709  51.6741   C.2       1 RES1   0.0000
    27 C27     83.9281  37.6690  52.2087   C.2       1 RES1   0.0000
    28 O28     84.1551  36.7111  51.4754   O.2       1 RES1   0.0000
    29 N29     83.4424  37.5238  53.4669   N.am      1 RES1   0.0000
    30 C30     83.1172  36.3226  54.1527   C.2       1 RES1   0.0000
    31 C31     83.7229  35.9351  55.3451   C.2       1 RES1   0.0000
    32 C32     83.3074  34.7869  56.0020   C.2       1 RES1   0.0000
    33 C33     82.2994  33.9838  55.4660   C.2       1 RES1   0.0000
    34 C34     81.7838  32.7718  56.2013   C.2       1 RES1   0.0000
    35 N35     81.3882  31.7110  55.3952   N.pl3     1 RES1   0.0000
    36 N36     81.7842  32.7841  57.5045   N.pl3     1 RES1   1.0000
    37 C37     81.7477  34.3392  54.2357   C.2       1 RES1   0.0000
    38 C38     82.1521  35.4957  53.5852   C.2       1 RES1   0.0000
    39 N39     82.8652  39.7159  51.4805   N.2       1 RES1   0.0000
@<TRIPOS>BOND
     1     1     2    1
     2     2     3    1
     3     3     4    2
     4     4     5    1
     5     5     6    2
     6     6     7    1
     7     7     8    2
     8     8     9    1
     9     9    10    2
    10    10    11    1
    11    11    12    2
    12    11    13   am
    13    13    14    1
    14    14    15    1
    15    15    16    1
    16    14    17    1
    17    17    18    1
    18    17    19    1
    19    17    20    1
    20    10    21    1
    21    21    22    2
    22    22    23    1
    23    23    24    2
    24    23    25    1
    25     6    26    1
    26    26    27    1
    27    27    28    2
    28    27    29   am
    29    29    30    1
    30    30    31    2
    31    31    32    1
    32    32    33    2
    33    33    34    1
    34    34    35    1
    35    34    36    2
    36    33    37    1
    37    37    38    2
    38    26    39    2
    39    39     3    1
    40    22     7    1
    41    38    30    1
@<TRIPOS>SUBSTRUCTURE
     1 RES1        1 GROUP             0 ****  ****    0  
@<TRIPOS>MOLECULE
ligand_79
    39    41     1     0     0
SMALL
USER_CHARGES
****
Generated from the CSD

@<TRIPOS>ATOM
     1 C1      80.7483  41.4481  52.0429   C.3       1 RES1   0.0000
     2 O2      81.7314  41.5857  51.0162   O.3       1 RES1   0.0000
     3 C3      82.9574  41.0689  51.2364   C.2       1 RES1   0.0000
     4 C4      83.8578  41.1395  50.1716   C.2       1 RES1   0.0000
     5 C5      85.0641  40.4655  50.2891   C.2       1 RES1   0.0000
     6 C6      85.3872  39.7710  51.4600   C.2       1 RES1   0.0000
     7 C7      86.6843  39.0173  51.5162   C.2       1 RES1   0.0000
     8 C8      86.6271  37.6197  51.6213   C.2       1 RES1   0.0000
     9 C9      87.7870  36.8622  51.7247   C.2       1 RES1   0.0000
    10 C10     89.0401  37.4720  51.6956   C.2       1 RES1   0.0000
    11 C11     90.3103  36.6936  51.8246   C.2       1 RES1   0.0000
    12 O12     91.3240  37.2041  52.2975   O.2       1 RES1   0.0000
    13 N13     90.2718  35.4066  51.4319   N.am      1 RES1   0.0000
    14 C14     91.3734  34.4531  51.5116   C.3       1 RES1   0.0000
    15 C15     92.2253  34.5214  50.1765   C.3       1 RES1   0.0000
    16 O16     92.8128  35.7979  50.0085   O.3       1 RES1   0.0000
    17 C17     90.9761  33.0190  51.9678   C.3       1 RES1   0.0000
    18 C18     90.0386  32.3638  50.9387   C.3       1 RES1   0.0000
    19 C19     92.2263  32.1414  52.1280   C.3       1 RES1   0.0000
    20 C20     90.2506  33.0894  53.3204   C.3       1 RES1   0.0000
    21 C21     89.1180  38.8567  51.5653   C.2       1 RES1   0.0000
    22 C22     87.9561  39.6309  51.4989   C.2       1 RES1   0.0000
    23 C23     88.1624  41.1185  51.4982   C.2       1 RES1   0.0000
    24 O24     87.2088  41.8915  51.5420   O.co2     1 RES1   0.0000
    25 O25     89.4117  41.5194  51.4092   O.co2     1 RES1  -1.0000
    26 C26     84.4096  39.8363  52.5074   C.2       1 RES1   0.0000
    27 C27     84.7170  39.2403  53.8533   C.2       1 RES1   0.0000
    28 O28     85.5413  39.7732  54.5906   O.2       1 RES1   0.0000
    29 N29     84.1593  38.0361  54.1348   N.am      1 RES1   0.0000
    30 C30     84.3927  37.1981  55.2582   C.2       1 RES1   0.0000
    31 C31     83.3934  36.8214  56.1516   C.2       1 RES1   0.0000
    32 C32     83.6726  35.9413  57.1860   C.2       1 RES1   0.0000
    33 C33     84.9635  35.4429  57.3694   C.2       1 RES1   0.0000
    34 C34     85.2708  34.4290  58.4432   C.2       1 RES1   0.0000
    35 N35     86.3184  33.5611  58.1591   N.pl3     1 RES1   0.0000
    36 N36     84.5824  34.4617  59.5494   N.pl3     1 RES1   1.0000
    37 C37     85.9745  35.8807  56.5147   C.2       1 RES1   0.0000
    38 C38     85.6930  36.7494  55.4705   C.2       1 RES1   0.0000
    39 N39     83.2199  40.4510  52.3895   N.2       1 RES1   0.0000
@<TRIPOS>BOND
     1     1     2    1
     2     2     3    1
     3     3     4    2
     4     4     5    1
     5     5     6    2
     6     6     7    1
     7     7     8    2
     8     8     9    1
     9     9    10    2
    10    10    11    1
    11    11    12    2
    12    11    13   am
    13    13    14    1
    14    14    15    1
    15    15    16    1
    16    14    17    1
    17    17    18    1
    18    17    19    1
    19    17    20    1
    20    10    21    1
    21    21    22    2
    22    22    23    1
    23    23    24    2
    24    23    25    1
    25     6    26    1
    26    26    27    1
    27    27    28    2
    28    27    29   am
    29    29    30    1
    30    30    31    2
    31    31    32    1
    32    32    33    2
    33    33    34    1
    34    34    35    1
    35    34    36    2
    36    33    37    1
    37    37    38    2
    38    26    39    2
    39    39     3    1
    40    22     7    1
    41    38    30    1
@<TRIPOS>SUBSTRUCTURE
     1 RES1        1 GROUP             0 ****  ****    0  
@<TRIPOS>MOLECULE
ligand_80
    39    41     1     0     0
SMALL
USER_CHARGES
****
Generated from the CSD

@<TRIPOS>ATOM
     1 C1      80.7483  41.4481  52.0429   C.3       1 RES1   0.0000
     2 O2      81.7314  41.5857  51.0162   O.3       1 RES1   0.0000
     3 C3      82.9574  41.0689  51.2364   C.2       1 RES1   0.0000
     4 C4      83.8578  41.1395  50.1716   C.2       1 RES1   0.0000
     5 C5      85.0641  40.4655  50.2891   C.2       1 RES1   0.0000
     6 C6      85.3872  39.7710  51.4600   C.2       1 RES1   0.0000
     7 C7      86.6843  39.0173  51.5162   C.2       1 RES1   0.0000
     8 C8      86.6271  37.6197  51.6213   C.2       1 RES1   0.0000
     9 C9      87.7870  36.8622  51.7247   C.2       1 RES1   0.0000
    10 C10     89.0401  37.4720  51.6956   C.2       1 RES1   0.0000
    11 C11     90.3103  36.6936  51.8246   C.2       1 RES1   0.0000
    12 O12     91.3240  37.2041  52.2976   O.2       1 RES1   0.0000
    13 N13     90.2718  35.4066  51.4318   N.am      1 RES1   0.0000
    14 C14     91.3734  34.4531  51.5115   C.3       1 RES1   0.0000
    15 C15     92.2254  34.5214  50.1765   C.3       1 RES1   0.0000
    16 O16     92.8129  35.7980  50.0086   O.3       1 RES1   0.0000
    17 C17     90.9761  33.0190  51.9677   C.3       1 RES1   0.0000
    18 C18     90.0386  32.3638  50.9385   C.3       1 RES1   0.0000
    19 C19     92.2263  32.1414  52.1279   C.3       1 RES1   0.0000
    20 C20     90.2505  33.0893  53.3203   C.3       1 RES1   0.0000
    21 C21     89.1180  38.8567  51.5652   C.2       1 RES1   0.0000
    22 C22     87.9561  39.6309  51.4989   C.2       1 RES1   0.0000
    23 C23     88.1624  41.1185  51.4982   C.2       1 RES1   0.0000
    24 O24     87.2088  41.8915  51.5419   O.co2     1 RES1   0.0000
    25 O25     89.4117  41.5194  51.4091   O.co2     1 RES1  -1.0000
    26 C26     84.4096  39.8363  52.5074   C.2       1 RES1   0.0000
    27 C27     84.7170  39.2403  53.8533   C.2       1 RES1   0.0000
    28 O28     84.6946  38.0228  54.0088   O.2       1 RES1   0.0000
    29 N29     84.8690  40.1038  54.8884   N.am      1 RES1   0.0000
    30 C30     85.0231  39.8058  56.2691   C.2       1 RES1   0.0000
    31 C31     86.1395  40.1805  57.0121   C.2       1 RES1   0.0000
    32 C32     86.1947  39.9231  58.3734   C.2       1 RES1   0.0000
    33 C33     85.1495  39.2577  59.0163   C.2       1 RES1   0.0000
    34 C34     85.1584  39.0334  60.5079   C.2       1 RES1   0.0000
    35 N35     83.9061  38.9758  61.1080   N.pl3     1 RES1   0.0000
    36 N36     86.3033  38.8709  61.1090   N.pl3     1 RES1   1.0000
    37 C37     84.0674  38.8216  58.2526   C.2       1 RES1   0.0000
    38 C38     84.0044  39.0919  56.8935   C.2       1 RES1   0.0000
    39 N39     83.2199  40.4510  52.3895   N.2       1 RES1   0.0000
@<TRIPOS>BOND
     1     1     2    1
     2     2     3    1
     3     3     4    2
     4     4     5    1
     5     5     6    2
     6     6     7    1
     7     7     8    2
     8     8     9    1
     9     9    10    2
    10    10    11    1
    11    11    12    2
    12    11    13   am
    13    13    14    1
    14    14    15    1
    15    15    16    1
    16    14    17    1
    17    17    18    1
    18    17    19    1
    19    17    20    1
    20    10    21    1
    21    21    22    2
    22    22    23    1
    23    23    24    2
    24    23    25    1
    25     6    26    1
    26    26    27    1
    27    27    28    2
    28    27    29   am
    29    29    30    1
    30    30    31    2
    31    31    32    1
    32    32    33    2
    33    33    34    1
    34    34    35    1
    35    34    36    2
    36    33    37    1
    37    37    38    2
    38    26    39    2
    39    39     3    1
    40    22     7    1
    41    38    30    1
@<TRIPOS>SUBSTRUCTURE
     1 RES1        1 GROUP             0 ****  ****    0  
@<TRIPOS>MOLECULE
ligand_81
    39    41     1     0     0
SMALL
USER_CHARGES
****
Generated from the CSD

@<TRIPOS>ATOM
     1 C1      81.7061  42.9874  50.5787   C.3       1 RES1   0.0000
     2 O2      81.9704  42.0416  51.6157   O.3       1 RES1   0.0000
     3 C3      83.0440  41.2364  51.4835   C.2       1 RES1   0.0000
     4 C4      83.3215  40.3948  52.5624   C.2       1 RES1   0.0000
     5 C5      84.5110  39.6820  52.5472   C.2       1 RES1   0.0000
     6 C6      85.3872  39.7710  51.4600   C.2       1 RES1   0.0000
     7 C7      86.6843  39.0173  51.5162   C.2       1 RES1   0.0000
     8 C8      86.6271  37.6197  51.6207   C.2       1 RES1   0.0000
     9 C9      87.7870  36.8621  51.7240   C.2       1 RES1   0.0000
    10 C10     89.0401  37.4719  51.6956   C.2       1 RES1   0.0000
    11 C11     90.3102  36.6935  51.8245   C.2       1 RES1   0.0000
    12 O12     91.3250  37.2050  52.2943   O.2       1 RES1   0.0000
    13 N13     90.2707  35.4055  51.4354   N.am      1 RES1   0.0000
    14 C14     91.3728  34.4524  51.5140   C.3       1 RES1   0.0000
    15 C15     92.2202  34.5172  50.1758   C.3       1 RES1   0.0000
    16 O16     92.8074  35.7932  50.0028   O.3       1 RES1   0.0000
    17 C17     90.9773  33.0194  51.9754   C.3       1 RES1   0.0000
    18 C18     90.0357  32.3616  50.9517   C.3       1 RES1   0.0000
    19 C19     92.2281  32.1423  52.1329   C.3       1 RES1   0.0000
    20 C20     90.2571  33.0933  53.3307   C.3       1 RES1   0.0000
    21 C21     89.1180  38.8568  51.5658   C.2       1 RES1   0.0000
    22 C22     87.9561  39.6309  51.4995   C.2       1 RES1   0.0000
    23 C23     88.1624  41.1186  51.4995   C.2       1 RES1   0.0000
    24 O24     87.2089  41.8915  51.5460   O.co2     1 RES1   0.0000
    25 O25     89.4115  41.5195  51.4080   O.co2     1 RES1  -1.0000
    26 C26     84.9525  40.6121  50.3827   C.2       1 RES1   0.0000
    27 C27     85.7533  40.6700  49.1112   C.2       1 RES1   0.0000
    28 O28     86.3001  39.6592  48.6797   O.2       1 RES1   0.0000
    29 N29     85.9543  41.8958  48.5661   N.am      1 RES1   0.0000
    30 C30     86.7818  42.2456  47.4653   C.2       1 RES1   0.0000
    31 C31     87.9517  41.5635  47.1413   C.2       1 RES1   0.0000
    32 C32     88.6751  41.9097  46.0102   C.2       1 RES1   0.0000
    33 C33     88.2626  42.9653  45.1953   C.2       1 RES1   0.0000
    34 C34     88.9948  43.3096  43.9223   C.2       1 RES1   0.0000
    35 N35     89.0168  44.6604  43.5958   N.pl3     1 RES1   0.0000
    36 N36     89.5765  42.3519  43.2569   N.pl3     1 RES1   1.0000
    37 C37     87.1304  43.6900  45.5657   C.2       1 RES1   0.0000
    38 C38     86.3976  43.3349  46.6887   C.2       1 RES1   0.0000
    39 N39     83.8223  41.3397  50.4047   N.2       1 RES1   0.0000
@<TRIPOS>BOND
     1     1     2    1
     2     2     3    1
     3     3     4    2
     4     4     5    1
     5     5     6    2
     6     6     7    1
     7     7     8    2
     8     8     9    1
     9     9    10    2
    10    10    11    1
    11    11    12    2
    12    11    13   am
    13    13    14    1
    14    14    15    1
    15    15    16    1
    16    14    17    1
    17    17    18    1
    18    17    19    1
    19    17    20    1
    20    10    21    1
    21    21    22    2
    22    22    23    1
    23    23    24    2
    24    23    25    1
    25     6    26    1
    26    26    27    1
    27    27    28    2
    28    27    29   am
    29    29    30    1
    30    30    31    2
    31    31    32    1
    32    32    33    2
    33    33    34    1
    34    34    35    1
    35    34    36    2
    36    33    37    1
    37    37    38    2
    38    26    39    2
    39    39     3    1
    40    22     7    1
    41    38    30    1
@<TRIPOS>SUBSTRUCTURE
     1 RES1        1 GROUP             0 ****  ****    0  
@<TRIPOS>MOLECULE
ligand_82
    39    41     1     0     0
SMALL
USER_CHARGES
****
Generated from the CSD

@<TRIPOS>ATOM
     1 C1      82.3156  43.0651  49.3497   C.3       1 RES1   0.0000
     2 O2      82.1039  42.0130  50.2920   O.3       1 RES1   0.0000
     3 C3      83.1759  41.3119  50.7138   C.2       1 RES1   0.0000
     4 C4      84.3947  41.6227  50.1077   C.2       1 RES1   0.0000
     5 C5      85.4858  40.8105  50.3780   C.2       1 RES1   0.0000
     6 C6      85.3778  39.7360  51.2676   C.2       1 RES1   0.0000
     7 C7      86.5760  38.8585  51.4867   C.2       1 RES1   0.0000
     8 C8      87.1973  38.8982  52.7437   C.2       1 RES1   0.0000
     9 C9      88.3377  38.1481  53.0018   C.2       1 RES1   0.0000
    10 C10     88.8758  37.3121  52.0248   C.2       1 RES1   0.0000
    11 C11     90.1129  36.5050  52.2573   C.2       1 RES1   0.0000
    12 O12     90.9901  36.8926  53.0269   O.2       1 RES1   0.0000
    13 N13     90.1948  35.3266  51.6117   N.am      1 RES1   0.0000
    14 C14     91.2991  34.3768  51.6988   C.3       1 RES1   0.0000
    15 C15     91.9648  34.2123  50.2695   C.3       1 RES1   0.0000
    16 O16     92.5256  35.4323  49.8223   O.3       1 RES1   0.0000
    17 C17     90.9691  33.0430  52.4301   C.3       1 RES1   0.0000
    18 C18     89.9001  32.2517  51.6566   C.3       1 RES1   0.0000
    19 C19     92.2301  32.1760  52.5593   C.3       1 RES1   0.0000
    20 C20     90.4354  33.3444  53.8391   C.3       1 RES1   0.0000
    21 C21     88.2575  37.2391  50.7786   C.2       1 RES1   0.0000
    22 C22     87.1321  38.0188  50.4968   C.2       1 RES1   0.0000
    23 C23     86.6355  37.9597  49.0806   C.2       1 RES1   0.0000
    24 O24     85.6765  38.6350  48.7157   O.co2     1 RES1   0.0000
    25 O25     87.2673  37.1192  48.2909   O.co2     1 RES1  -1.0000
    26 C26     84.0920  39.5672  51.8803   C.2       1 RES1   0.0000
    27 C27     83.9066  38.5291  52.9523   C.2       1 RES1   0.0000
    28 O28     84.4124  38.6881  54.0595   O.2       1 RES1   0.0000
    29 N29     83.2937  37.3742  52.5908   N.am      1 RES1   0.0000
    30 C30     83.1135  36.1939  53.3611   C.2       1 RES1   0.0000
    31 C31     82.9742  36.1990  54.7464   C.2       1 RES1   0.0000
    32 C32     82.7273  35.0187  55.4309   C.2       1 RES1   0.0000
    33 C33     82.6457  33.8030  54.7497   C.2       1 RES1   0.0000
    34 C34     82.3058  32.5201  55.4668   C.2       1 RES1   0.0000
    35 N35     82.9156  31.3776  54.9624   N.pl3     1 RES1   0.0000
    36 N36     81.5211  32.5736  56.5059   N.pl3     1 RES1   1.0000
    37 C37     82.8580  33.7958  53.3717   C.2       1 RES1   0.0000
    38 C38     83.0900  34.9780  52.6841   C.2       1 RES1   0.0000
    39 N39     83.0171  40.3221  51.5944   N.2       1 RES1   0.0000
@<TRIPOS>BOND
     1     1     2    1
     2     2     3    1
     3     3     4    2
     4     4     5    1
     5     5     6    2
     6     6     7    1
     7     7     8    2
     8     8     9    1
     9     9    10    2
    10    10    11    1
    11    11    12    2
    12    11    13   am
    13    13    14    1
    14    14    15    1
    15    15    16    1
    16    14    17    1
    17    17    18    1
    18    17    19    1
    19    17    20    1
    20    10    21    1
    21    21    22    2
    22    22    23    1
    23    23    24    2
    24    23    25    1
    25     6    26    1
    26    26    27    1
    27    27    28    2
    28    27    29   am
    29    29    30    1
    30    30    31    2
    31    31    32    1
    32    32    33    2
    33    33    34    1
    34    34    35    1
    35    34    36    2
    36    33    37    1
    37    37    38    2
    38    26    39    2
    39    39     3    1
    40    22     7    1
    41    38    30    1
@<TRIPOS>SUBSTRUCTURE
     1 RES1        1 GROUP             0 ****  ****    0  
@<TRIPOS>MOLECULE
ligand_83
    39    41     1     0     0
SMALL
USER_CHARGES
****
Generated from the CSD

@<TRIPOS>ATOM
     1 C1      82.3156  43.0651  49.3497   C.3       1 RES1   0.0000
     2 O2      82.1039  42.0130  50.2920   O.3       1 RES1   0.0000
     3 C3      83.1759  41.3119  50.7138   C.2       1 RES1   0.0000
     4 C4      84.3947  41.6227  50.1077   C.2       1 RES1   0.0000
     5 C5      85.4858  40.8105  50.3780   C.2       1 RES1   0.0000
     6 C6      85.3778  39.7360  51.2676   C.2       1 RES1   0.0000
     7 C7      86.5760  38.8585  51.4867   C.2       1 RES1   0.0000
     8 C8      87.1972  38.8982  52.7437   C.2       1 RES1   0.0000
     9 C9      88.3377  38.1480  53.0019   C.2       1 RES1   0.0000
    10 C10     88.8758  37.3121  52.0248   C.2       1 RES1   0.0000
    11 C11     90.1129  36.5050  52.2573   C.2       1 RES1   0.0000
    12 O12     90.9901  36.8927  53.0268   O.2       1 RES1   0.0000
    13 N13     90.1947  35.3266  51.6118   N.am      1 RES1   0.0000
    14 C14     91.2990  34.3767  51.6989   C.3       1 RES1   0.0000
    15 C15     91.9647  34.2122  50.2696   C.3       1 RES1   0.0000
    16 O16     92.5254  35.4321  49.8223   O.3       1 RES1   0.0000
    17 C17     90.9690  33.0430  52.4302   C.3       1 RES1   0.0000
    18 C18     89.9001  32.2516  51.6568   C.3       1 RES1   0.0000
    19 C19     92.2302  32.1760  52.5596   C.3       1 RES1   0.0000
    20 C20     90.4353  33.3445  53.8392   C.3       1 RES1   0.0000
    21 C21     88.2575  37.2392  50.7786   C.2       1 RES1   0.0000
    22 C22     87.1321  38.0188  50.4968   C.2       1 RES1   0.0000
    23 C23     86.6355  37.9598  49.0806   C.2       1 RES1   0.0000
    24 O24     85.6767  38.6353  48.7156   O.co2     1 RES1   0.0000
    25 O25     87.2672  37.1192  48.2909   O.co2     1 RES1  -1.0000
    26 C26     84.0920  39.5672  51.8803   C.2       1 RES1   0.0000
    27 C27     83.9066  38.5291  52.9523   C.2       1 RES1   0.0000
    28 O28     84.4124  38.6881  54.0595   O.2       1 RES1   0.0000
    29 N29     83.2937  37.3742  52.5908   N.am      1 RES1   0.0000
    30 C30     83.1238  36.1897  53.3570   C.2       1 RES1   0.0000
    31 C31     84.0280  35.7723  54.3300   C.2       1 RES1   0.0000
    32 C32     83.7659  34.6452  55.0939   C.2       1 RES1   0.0000
    33 C33     82.6098  33.8925  54.8809   C.2       1 RES1   0.0000
    34 C34     82.2715  32.7065  55.7495   C.2       1 RES1   0.0000
    35 N35     80.9143  32.4475  55.8997   N.pl3     1 RES1   0.0000
    36 N36     83.2455  32.0003  56.2505   N.pl3     1 RES1   1.0000
    37 C37     81.7448  34.2753  53.8565   C.2       1 RES1   0.0000
    38 C38     81.9986  35.4112  53.1019   C.2       1 RES1   0.0000
    39 N39     83.0171  40.3221  51.5944   N.2       1 RES1   0.0000
@<TRIPOS>BOND
     1     1     2    1
     2     2     3    1
     3     3     4    2
     4     4     5    1
     5     5     6    2
     6     6     7    1
     7     7     8    2
     8     8     9    1
     9     9    10    2
    10    10    11    1
    11    11    12    2
    12    11    13   am
    13    13    14    1
    14    14    15    1
    15    15    16    1
    16    14    17    1
    17    17    18    1
    18    17    19    1
    19    17    20    1
    20    10    21    1
    21    21    22    2
    22    22    23    1
    23    23    24    2
    24    23    25    1
    25     6    26    1
    26    26    27    1
    27    27    28    2
    28    27    29   am
    29    29    30    1
    30    30    31    2
    31    31    32    1
    32    32    33    2
    33    33    34    1
    34    34    35    1
    35    34    36    2
    36    33    37    1
    37    37    38    2
    38    26    39    2
    39    39     3    1
    40    22     7    1
    41    38    30    1
@<TRIPOS>SUBSTRUCTURE
     1 RES1        1 GROUP             0 ****  ****    0  
@<TRIPOS>MOLECULE
ligand_84
    39    41     1     0     0
SMALL
USER_CHARGES
****
Generated from the CSD

@<TRIPOS>ATOM
     1 C1      82.3156  43.0650  49.3496   C.3       1 RES1   0.0000
     2 O2      82.1039  42.0130  50.2920   O.3       1 RES1   0.0000
     3 C3      83.1759  41.3119  50.7138   C.2       1 RES1   0.0000
     4 C4      84.3947  41.6227  50.1077   C.2       1 RES1   0.0000
     5 C5      85.4858  40.8105  50.3780   C.2       1 RES1   0.0000
     6 C6      85.3778  39.7360  51.2676   C.2       1 RES1   0.0000
     7 C7      86.5760  38.8585  51.4867   C.2       1 RES1   0.0000
     8 C8      87.1974  38.8983  52.7436   C.2       1 RES1   0.0000
     9 C9      88.3378  38.1482  53.0018   C.2       1 RES1   0.0000
    10 C10     88.8759  37.3121  52.0248   C.2       1 RES1   0.0000
    11 C11     90.1129  36.5050  52.2572   C.2       1 RES1   0.0000
    12 O12     90.9902  36.8927  53.0268   O.2       1 RES1   0.0000
    13 N13     90.1948  35.3266  51.6118   N.am      1 RES1   0.0000
    14 C14     91.2990  34.3767  51.6988   C.3       1 RES1   0.0000
    15 C15     91.9647  34.2122  50.2696   C.3       1 RES1   0.0000
    16 O16     92.5255  35.4322  49.8223   O.3       1 RES1   0.0000
    17 C17     90.9690  33.0430  52.4302   C.3       1 RES1   0.0000
    18 C18     89.9001  32.2516  51.6568   C.3       1 RES1   0.0000
    19 C19     92.2301  32.1760  52.5595   C.3       1 RES1   0.0000
    20 C20     90.4354  33.3445  53.8392   C.3       1 RES1   0.0000
    21 C21     88.2574  37.2391  50.7786   C.2       1 RES1   0.0000
    22 C22     87.1320  38.0187  50.4968   C.2       1 RES1   0.0000
    23 C23     86.6353  37.9595  49.0807   C.2       1 RES1   0.0000
    24 O24     85.6763  38.6348  48.7158   O.co2     1 RES1   0.0000
    25 O25     87.2670  37.1189  48.2910   O.co2     1 RES1  -1.0000
    26 C26     84.0920  39.5672  51.8803   C.2       1 RES1   0.0000
    27 C27     83.9066  38.5291  52.9523   C.2       1 RES1   0.0000
    28 O28     83.8391  37.3400  52.6548   O.2       1 RES1   0.0000
    29 N29     83.6758  38.9791  54.2110   N.am      1 RES1   0.0000
    30 C30     83.3394  38.2260  55.3680   C.2       1 RES1   0.0000
    31 C31     83.7659  36.9175  55.5793   C.2       1 RES1   0.0000
    32 C32     83.4635  36.2638  56.7640   C.2       1 RES1   0.0000
    33 C33     82.7015  36.8919  57.7506   C.2       1 RES1   0.0000
    34 C34     82.4241  36.2248  59.0748   C.2       1 RES1   0.0000
    35 N35     81.1885  36.5167  59.6402   N.pl3     1 RES1   0.0000
    36 N36     83.3166  35.4108  59.5641   N.pl3     1 RES1   1.0000
    37 C37     82.2170  38.1755  57.5020   C.2       1 RES1   0.0000
    38 C38     82.5316  38.8359  56.3234   C.2       1 RES1   0.0000
    39 N39     83.0171  40.3221  51.5944   N.2       1 RES1   0.0000
@<TRIPOS>BOND
     1     1     2    1
     2     2     3    1
     3     3     4    2
     4     4     5    1
     5     5     6    2
     6     6     7    1
     7     7     8    2
     8     8     9    1
     9     9    10    2
    10    10    11    1
    11    11    12    2
    12    11    13   am
    13    13    14    1
    14    14    15    1
    15    15    16    1
    16    14    17    1
    17    17    18    1
    18    17    19    1
    19    17    20    1
    20    10    21    1
    21    21    22    2
    22    22    23    1
    23    23    24    2
    24    23    25    1
    25     6    26    1
    26    26    27    1
    27    27    28    2
    28    27    29   am
    29    29    30    1
    30    30    31    2
    31    31    32    1
    32    32    33    2
    33    33    34    1
    34    34    35    1
    35    34    36    2
    36    33    37    1
    37    37    38    2
    38    26    39    2
    39    39     3    1
    40    22     7    1
    41    38    30    1
@<TRIPOS>SUBSTRUCTURE
     1 RES1        1 GROUP             0 ****  ****    0  
@<TRIPOS>MOLECULE
ligand_85
    39    41     1     0     0
SMALL
USER_CHARGES
****
Generated from the CSD

@<TRIPOS>ATOM
     1 C1      82.3156  43.0650  49.3497   C.3       1 RES1   0.0000
     2 O2      82.1039  42.0130  50.2920   O.3       1 RES1   0.0000
     3 C3      83.1759  41.3119  50.7138   C.2       1 RES1   0.0000
     4 C4      84.3947  41.6227  50.1077   C.2       1 RES1   0.0000
     5 C5      85.4858  40.8105  50.3780   C.2       1 RES1   0.0000
     6 C6      85.3778  39.7360  51.2676   C.2       1 RES1   0.0000
     7 C7      86.5760  38.8585  51.4867   C.2       1 RES1   0.0000
     8 C8      87.1973  38.8983  52.7436   C.2       1 RES1   0.0000
     9 C9      88.3377  38.1481  53.0018   C.2       1 RES1   0.0000
    10 C10     88.8758  37.3121  52.0248   C.2       1 RES1   0.0000
    11 C11     90.1129  36.5050  52.2573   C.2       1 RES1   0.0000
    12 O12     90.9902  36.8927  53.0268   O.2       1 RES1   0.0000
    13 N13     90.1947  35.3266  51.6118   N.am      1 RES1   0.0000
    14 C14     91.2990  34.3767  51.6989   C.3       1 RES1   0.0000
    15 C15     91.9646  34.2121  50.2696   C.3       1 RES1   0.0000
    16 O16     92.5253  35.4321  49.8222   O.3       1 RES1   0.0000
    17 C17     90.9690  33.0430  52.4303   C.3       1 RES1   0.0000
    18 C18     89.9001  32.2515  51.6569   C.3       1 RES1   0.0000
    19 C19     92.2301  32.1760  52.5597   C.3       1 RES1   0.0000
    20 C20     90.4353  33.3446  53.8393   C.3       1 RES1   0.0000
    21 C21     88.2575  37.2391  50.7786   C.2       1 RES1   0.0000
    22 C22     87.1321  38.0188  50.4968   C.2       1 RES1   0.0000
    23 C23     86.6354  37.9597  49.0807   C.2       1 RES1   0.0000
    24 O24     85.6766  38.6352  48.7157   O.co2     1 RES1   0.0000
    25 O25     87.2670  37.1190  48.2910   O.co2     1 RES1  -1.0000
    26 C26     84.0920  39.5672  51.8803   C.2       1 RES1   0.0000
    27 C27     83.9066  38.5291  52.9523   C.2       1 RES1   0.0000
    28 O28     83.8391  37.3400  52.6548   O.2       1 RES1   0.0000
    29 N29     83.6758  38.9791  54.2110   N.am      1 RES1   0.0000
    30 C30     83.3280  38.2273  55.3655   C.2       1 RES1   0.0000
    31 C31     82.5913  37.0468  55.3157   C.2       1 RES1   0.0000
    32 C32     82.3486  36.3221  56.4726   C.2       1 RES1   0.0000
    33 C33     82.8095  36.7773  57.7090   C.2       1 RES1   0.0000
    34 C34     82.6187  35.9672  58.9671   C.2       1 RES1   0.0000
    35 N35     83.5963  36.1404  59.9397   N.pl3     1 RES1   0.0000
    36 N36     81.5597  35.2149  59.0719   N.pl3     1 RES1   1.0000
    37 C37     83.4839  37.9966  57.7610   C.2       1 RES1   0.0000
    38 C38     83.7403  38.7147  56.6023   C.2       1 RES1   0.0000
    39 N39     83.0171  40.3221  51.5944   N.2       1 RES1   0.0000
@<TRIPOS>BOND
     1     1     2    1
     2     2     3    1
     3     3     4    2
     4     4     5    1
     5     5     6    2
     6     6     7    1
     7     7     8    2
     8     8     9    1
     9     9    10    2
    10    10    11    1
    11    11    12    2
    12    11    13   am
    13    13    14    1
    14    14    15    1
    15    15    16    1
    16    14    17    1
    17    17    18    1
    18    17    19    1
    19    17    20    1
    20    10    21    1
    21    21    22    2
    22    22    23    1
    23    23    24    2
    24    23    25    1
    25     6    26    1
    26    26    27    1
    27    27    28    2
    28    27    29   am
    29    29    30    1
    30    30    31    2
    31    31    32    1
    32    32    33    2
    33    33    34    1
    34    34    35    1
    35    34    36    2
    36    33    37    1
    37    37    38    2
    38    26    39    2
    39    39     3    1
    40    22     7    1
    41    38    30    1
@<TRIPOS>SUBSTRUCTURE
     1 RES1        1 GROUP             0 ****  ****    0  
@<TRIPOS>MOLECULE
ligand_86
    39    41     1     0     0
SMALL
USER_CHARGES
****
Generated from the CSD

@<TRIPOS>ATOM
     1 C1      81.5382  41.7367  48.8791   C.3       1 RES1   0.0000
     2 O2      81.8753  41.6551  50.2645   O.3       1 RES1   0.0000
     3 C3      83.0527  41.0898  50.6003   C.2       1 RES1   0.0000
     4 C4      83.7972  40.5446  49.5525   C.2       1 RES1   0.0000
     5 C5      84.9229  39.7988  49.8686   C.2       1 RES1   0.0000
     6 C6      85.3250  39.6348  51.1987   C.2       1 RES1   0.0000
     7 C7      86.5222  38.7769  51.4891   C.2       1 RES1   0.0000
     8 C8      87.6780  39.4060  51.9744   C.2       1 RES1   0.0000
     9 C9      88.8373  38.6810  52.2206   C.2       1 RES1   0.0000
    10 C10     88.8703  37.3020  52.0196   C.2       1 RES1   0.0000
    11 C11     90.1039  36.4902  52.2535   C.2       1 RES1   0.0000
    12 O12     90.9297  36.8183  53.1035   O.2       1 RES1   0.0000
    13 N13     90.2402  35.3731  51.5149   N.am      1 RES1   0.0000
    14 C14     91.3209  34.3989  51.6259   C.3       1 RES1   0.0000
    15 C15     92.1276  34.3510  50.2621   C.3       1 RES1   0.0000
    16 O16     92.7421  35.5957  49.9866   O.3       1 RES1   0.0000
    17 C17     90.9055  33.0113  52.1956   C.3       1 RES1   0.0000
    18 C18     89.9142  32.3123  51.2491   C.3       1 RES1   0.0000
    19 C19     92.1387  32.1131  52.3724   C.3       1 RES1   0.0000
    20 C20     90.2330  33.1950  53.5649   C.3       1 RES1   0.0000
    21 C21     87.7241  36.6552  51.5630   C.2       1 RES1   0.0000
    22 C22     86.5647  37.3814  51.2762   C.2       1 RES1   0.0000
    23 C23     85.4399  36.5987  50.6616   C.2       1 RES1   0.0000
    24 O24     84.3899  37.1462  50.3350   O.co2     1 RES1   0.0000
    25 O25     85.6467  35.3058  50.5397   O.co2     1 RES1  -1.0000
    26 C26     84.5177  40.3058  52.1760   C.2       1 RES1   0.0000
    27 C27     84.9402  40.3073  53.6191   C.2       1 RES1   0.0000
    28 O28     85.9152  40.9621  53.9761   O.2       1 RES1   0.0000
    29 N29     84.2930  39.4527  54.4505   N.am      1 RES1   0.0000
    30 C30     84.5797  39.1607  55.8112   C.2       1 RES1   0.0000
    31 C31     85.1399  40.0844  56.6896   C.2       1 RES1   0.0000
    32 C32     85.3264  39.7590  58.0245   C.2       1 RES1   0.0000
    33 C33     84.9866  38.4930  58.5041   C.2       1 RES1   0.0000
    34 C34     85.1139  38.1448  59.9663   C.2       1 RES1   0.0000
    35 N35     85.4579  36.8254  60.2355   N.pl3     1 RES1   0.0000
    36 N36     84.9402  39.0861  60.8507   N.pl3     1 RES1   1.0000
    37 C37     84.4934  37.5495  57.6036   C.2       1 RES1   0.0000
    38 C38     84.2924  37.8789  56.2712   C.2       1 RES1   0.0000
    39 N39     83.4015  40.9961  51.8848   N.2       1 RES1   0.0000
@<TRIPOS>BOND
     1     1     2    1
     2     2     3    1
     3     3     4    2
     4     4     5    1
     5     5     6    2
     6     6     7    1
     7     7     8    2
     8     8     9    1
     9     9    10    2
    10    10    11    1
    11    11    12    2
    12    11    13   am
    13    13    14    1
    14    14    15    1
    15    15    16    1
    16    14    17    1
    17    17    18    1
    18    17    19    1
    19    17    20    1
    20    10    21    1
    21    21    22    2
    22    22    23    1
    23    23    24    2
    24    23    25    1
    25     6    26    1
    26    26    27    1
    27    27    28    2
    28    27    29   am
    29    29    30    1
    30    30    31    2
    31    31    32    1
    32    32    33    2
    33    33    34    1
    34    34    35    1
    35    34    36    2
    36    33    37    1
    37    37    38    2
    38    26    39    2
    39    39     3    1
    40    22     7    1
    41    38    30    1
@<TRIPOS>SUBSTRUCTURE
     1 RES1        1 GROUP             0 ****  ****    0  
@<TRIPOS>MOLECULE
ligand_87
    39    41     1     0     0
SMALL
USER_CHARGES
****
Generated from the CSD

@<TRIPOS>ATOM
     1 C1      81.5382  41.7366  48.8791   C.3       1 RES1   0.0000
     2 O2      81.8753  41.6551  50.2645   O.3       1 RES1   0.0000
     3 C3      83.0527  41.0898  50.6003   C.2       1 RES1   0.0000
     4 C4      83.7972  40.5446  49.5525   C.2       1 RES1   0.0000
     5 C5      84.9229  39.7988  49.8686   C.2       1 RES1   0.0000
     6 C6      85.3250  39.6348  51.1987   C.2       1 RES1   0.0000
     7 C7      86.5222  38.7769  51.4891   C.2       1 RES1   0.0000
     8 C8      87.6780  39.4060  51.9746   C.2       1 RES1   0.0000
     9 C9      88.8372  38.6810  52.2208   C.2       1 RES1   0.0000
    10 C10     88.8703  37.3020  52.0196   C.2       1 RES1   0.0000
    11 C11     90.1039  36.4902  52.2536   C.2       1 RES1   0.0000
    12 O12     90.9296  36.8182  53.1037   O.2       1 RES1   0.0000
    13 N13     90.2404  35.3733  51.5148   N.am      1 RES1   0.0000
    14 C14     91.3211  34.3991  51.6258   C.3       1 RES1   0.0000
    15 C15     92.1279  34.3515  50.2621   C.3       1 RES1   0.0000
    16 O16     92.7424  35.5963  49.9868   O.3       1 RES1   0.0000
    17 C17     90.9056  33.0113  52.1951   C.3       1 RES1   0.0000
    18 C18     89.9146  32.3124  51.2483   C.3       1 RES1   0.0000
    19 C19     92.1388  32.1132  52.3720   C.3       1 RES1   0.0000
    20 C20     90.2329  33.1947  53.5643   C.3       1 RES1   0.0000
    21 C21     87.7241  36.6553  51.5628   C.2       1 RES1   0.0000
    22 C22     86.5647  37.3815  51.2760   C.2       1 RES1   0.0000
    23 C23     85.4400  36.5988  50.6613   C.2       1 RES1   0.0000
    24 O24     84.3901  37.1463  50.3345   O.co2     1 RES1   0.0000
    25 O25     85.6468  35.3058  50.5394   O.co2     1 RES1  -1.0000
    26 C26     84.5177  40.3058  52.1760   C.2       1 RES1   0.0000
    27 C27     84.9402  40.3073  53.6191   C.2       1 RES1   0.0000
    28 O28     85.9152  40.9621  53.9761   O.2       1 RES1   0.0000
    29 N29     84.2930  39.4527  54.4505   N.am      1 RES1   0.0000
    30 C30     84.5867  39.1521  55.8078   C.2       1 RES1   0.0000
    31 C31     85.8738  39.1888  56.3377   C.2       1 RES1   0.0000
    32 C32     86.0831  38.9562  57.6885   C.2       1 RES1   0.0000
    33 C33     85.0147  38.6509  58.5334   C.2       1 RES1   0.0000
    34 C34     85.2125  38.4667  60.0175   C.2       1 RES1   0.0000
    35 N35     84.1211  38.8042  60.8091   N.pl3     1 RES1   0.0000
    36 N36     86.3437  37.9780  60.4417   N.pl3     1 RES1   1.0000
    37 C37     83.7384  38.5448  57.9821   C.2       1 RES1   0.0000
    38 C38     83.5259  38.7921  56.6338   C.2       1 RES1   0.0000
    39 N39     83.4015  40.9961  51.8848   N.2       1 RES1   0.0000
@<TRIPOS>BOND
     1     1     2    1
     2     2     3    1
     3     3     4    2
     4     4     5    1
     5     5     6    2
     6     6     7    1
     7     7     8    2
     8     8     9    1
     9     9    10    2
    10    10    11    1
    11    11    12    2
    12    11    13   am
    13    13    14    1
    14    14    15    1
    15    15    16    1
    16    14    17    1
    17    17    18    1
    18    17    19    1
    19    17    20    1
    20    10    21    1
    21    21    22    2
    22    22    23    1
    23    23    24    2
    24    23    25    1
    25     6    26    1
    26    26    27    1
    27    27    28    2
    28    27    29   am
    29    29    30    1
    30    30    31    2
    31    31    32    1
    32    32    33    2
    33    33    34    1
    34    34    35    1
    35    34    36    2
    36    33    37    1
    37    37    38    2
    38    26    39    2
    39    39     3    1
    40    22     7    1
    41    38    30    1
@<TRIPOS>SUBSTRUCTURE
     1 RES1        1 GROUP             0 ****  ****    0  
@<TRIPOS>MOLECULE
ligand_88
    39    41     1     0     0
SMALL
USER_CHARGES
****
Generated from the CSD

@<TRIPOS>ATOM
     1 C1      81.5382  41.7366  48.8791   C.3       1 RES1   0.0000
     2 O2      81.8753  41.6551  50.2645   O.3       1 RES1   0.0000
     3 C3      83.0527  41.0898  50.6003   C.2       1 RES1   0.0000
     4 C4      83.7972  40.5446  49.5525   C.2       1 RES1   0.0000
     5 C5      84.9229  39.7988  49.8686   C.2       1 RES1   0.0000
     6 C6      85.3250  39.6348  51.1987   C.2       1 RES1   0.0000
     7 C7      86.5222  38.7769  51.4891   C.2       1 RES1   0.0000
     8 C8      87.6780  39.4060  51.9744   C.2       1 RES1   0.0000
     9 C9      88.8372  38.6810  52.2206   C.2       1 RES1   0.0000
    10 C10     88.8703  37.3020  52.0196   C.2       1 RES1   0.0000
    11 C11     90.1039  36.4902  52.2536   C.2       1 RES1   0.0000
    12 O12     90.9297  36.8182  53.1035   O.2       1 RES1   0.0000
    13 N13     90.2403  35.3731  51.5149   N.am      1 RES1   0.0000
    14 C14     91.3210  34.3990  51.6259   C.3       1 RES1   0.0000
    15 C15     92.1276  34.3512  50.2621   C.3       1 RES1   0.0000
    16 O16     92.7422  35.5959  49.9867   O.3       1 RES1   0.0000
    17 C17     90.9055  33.0113  52.1954   C.3       1 RES1   0.0000
    18 C18     89.9143  32.3123  51.2488   C.3       1 RES1   0.0000
    19 C19     92.1387  32.1131  52.3723   C.3       1 RES1   0.0000
    20 C20     90.2330  33.1949  53.5647   C.3       1 RES1   0.0000
    21 C21     87.7241  36.6552  51.5629   C.2       1 RES1   0.0000
    22 C22     86.5647  37.3815  51.2761   C.2       1 RES1   0.0000
    23 C23     85.4399  36.5987  50.6615   C.2       1 RES1   0.0000
    24 O24     84.3900  37.1463  50.3348   O.co2     1 RES1   0.0000
    25 O25     85.6467  35.3058  50.5397   O.co2     1 RES1  -1.0000
    26 C26     84.5177  40.3058  52.1760   C.2       1 RES1   0.0000
    27 C27     84.9402  40.3073  53.6191   C.2       1 RES1   0.0000
    28 O28     84.8004  39.2982  54.3042   O.2       1 RES1   0.0000
    29 N29     85.3335  41.4947  54.1438   N.am      1 RES1   0.0000
    30 C30     85.6507  41.7992  55.4950   C.2       1 RES1   0.0000
    31 C31     86.1962  40.8727  56.3796   C.2       1 RES1   0.0000
    32 C32     86.5512  41.2544  57.6645   C.2       1 RES1   0.0000
    33 C33     86.3398  42.5623  58.1038   C.2       1 RES1   0.0000
    34 C34     86.7858  43.0149  59.4719   C.2       1 RES1   0.0000
    35 N35     87.1228  44.3595  59.5728   N.pl3     1 RES1   0.0000
    36 N36     86.7841  42.1511  60.4477   N.pl3     1 RES1   1.0000
    37 C37     85.7269  43.4658  57.2365   C.2       1 RES1   0.0000
    38 C38     85.3852  43.0890  55.9460   C.2       1 RES1   0.0000
    39 N39     83.4015  40.9961  51.8848   N.2       1 RES1   0.0000
@<TRIPOS>BOND
     1     1     2    1
     2     2     3    1
     3     3     4    2
     4     4     5    1
     5     5     6    2
     6     6     7    1
     7     7     8    2
     8     8     9    1
     9     9    10    2
    10    10    11    1
    11    11    12    2
    12    11    13   am
    13    13    14    1
    14    14    15    1
    15    15    16    1
    16    14    17    1
    17    17    18    1
    18    17    19    1
    19    17    20    1
    20    10    21    1
    21    21    22    2
    22    22    23    1
    23    23    24    2
    24    23    25    1
    25     6    26    1
    26    26    27    1
    27    27    28    2
    28    27    29   am
    29    29    30    1
    30    30    31    2
    31    31    32    1
    32    32    33    2
    33    33    34    1
    34    34    35    1
    35    34    36    2
    36    33    37    1
    37    37    38    2
    38    26    39    2
    39    39     3    1
    40    22     7    1
    41    38    30    1
@<TRIPOS>SUBSTRUCTURE
     1 RES1        1 GROUP             0 ****  ****    0  
@<TRIPOS>MOLECULE
ligand_89
    39    41     1     0     0
SMALL
USER_CHARGES
****
Generated from the CSD

@<TRIPOS>ATOM
     1 C1      81.5382  41.7366  48.8791   C.3       1 RES1   0.0000
     2 O2      81.8753  41.6551  50.2645   O.3       1 RES1   0.0000
     3 C3      83.0527  41.0898  50.6003   C.2       1 RES1   0.0000
     4 C4      83.7972  40.5446  49.5525   C.2       1 RES1   0.0000
     5 C5      84.9229  39.7988  49.8686   C.2       1 RES1   0.0000
     6 C6      85.3250  39.6348  51.1987   C.2       1 RES1   0.0000
     7 C7      86.5222  38.7769  51.4891   C.2       1 RES1   0.0000
     8 C8      87.6781  39.4060  51.9744   C.2       1 RES1   0.0000
     9 C9      88.8373  38.6810  52.2205   C.2       1 RES1   0.0000
    10 C10     88.8703  37.3020  52.0196   C.2       1 RES1   0.0000
    11 C11     90.1039  36.4902  52.2535   C.2       1 RES1   0.0000
    12 O12     90.9297  36.8183  53.1035   O.2       1 RES1   0.0000
    13 N13     90.2402  35.3731  51.5149   N.am      1 RES1   0.0000
    14 C14     91.3209  34.3989  51.6259   C.3       1 RES1   0.0000
    15 C15     92.1276  34.3511  50.2621   C.3       1 RES1   0.0000
    16 O16     92.7421  35.5958  49.9866   O.3       1 RES1   0.0000
    17 C17     90.9055  33.0113  52.1955   C.3       1 RES1   0.0000
    18 C18     89.9143  32.3122  51.2490   C.3       1 RES1   0.0000
    19 C19     92.1387  32.1131  52.3724   C.3       1 RES1   0.0000
    20 C20     90.2330  33.1949  53.5648   C.3       1 RES1   0.0000
    21 C21     87.7240  36.6552  51.5630   C.2       1 RES1   0.0000
    22 C22     86.5647  37.3814  51.2762   C.2       1 RES1   0.0000
    23 C23     85.4398  36.5987  50.6616   C.2       1 RES1   0.0000
    24 O24     84.3899  37.1462  50.3350   O.co2     1 RES1   0.0000
    25 O25     85.6466  35.3057  50.5399   O.co2     1 RES1  -1.0000
    26 C26     84.5177  40.3058  52.1760   C.2       1 RES1   0.0000
    27 C27     84.9402  40.3073  53.6191   C.2       1 RES1   0.0000
    28 O28     84.8004  39.2982  54.3042   O.2       1 RES1   0.0000
    29 N29     85.3335  41.4947  54.1438   N.am      1 RES1   0.0000
    30 C30     85.6396  41.8021  55.4969   C.2       1 RES1   0.0000
    31 C31     85.0392  41.1656  56.5800   C.2       1 RES1   0.0000
    32 C32     85.4363  41.4607  57.8752   C.2       1 RES1   0.0000
    33 C33     86.4198  42.4210  58.1183   C.2       1 RES1   0.0000
    34 C34     86.9165  42.7033  59.5143   C.2       1 RES1   0.0000
    35 N35     87.2786  44.0222  59.7612   N.pl3     1 RES1   0.0000
    36 N36     86.9318  41.7304  60.3813   N.pl3     1 RES1   1.0000
    37 C37     86.9651  43.1058  57.0329   C.2       1 RES1   0.0000
    38 C38     86.5793  42.8006  55.7359   C.2       1 RES1   0.0000
    39 N39     83.4015  40.9961  51.8848   N.2       1 RES1   0.0000
@<TRIPOS>BOND
     1     1     2    1
     2     2     3    1
     3     3     4    2
     4     4     5    1
     5     5     6    2
     6     6     7    1
     7     7     8    2
     8     8     9    1
     9     9    10    2
    10    10    11    1
    11    11    12    2
    12    11    13   am
    13    13    14    1
    14    14    15    1
    15    15    16    1
    16    14    17    1
    17    17    18    1
    18    17    19    1
    19    17    20    1
    20    10    21    1
    21    21    22    2
    22    22    23    1
    23    23    24    2
    24    23    25    1
    25     6    26    1
    26    26    27    1
    27    27    28    2
    28    27    29   am
    29    29    30    1
    30    30    31    2
    31    31    32    1
    32    32    33    2
    33    33    34    1
    34    34    35    1
    35    34    36    2
    36    33    37    1
    37    37    38    2
    38    26    39    2
    39    39     3    1
    40    22     7    1
    41    38    30    1
@<TRIPOS>SUBSTRUCTURE
     1 RES1        1 GROUP             0 ****  ****    0  
@<TRIPOS>MOLECULE
ligand_90
    39    41     1     0     0
SMALL
USER_CHARGES
****
Generated from the CSD

@<TRIPOS>ATOM
     1 C1      80.6244  41.2194  51.8584   C.3       1 RES1   0.0000
     2 O2      81.7339  41.6822  51.0873   O.3       1 RES1   0.0000
     3 C3      82.8628  40.9444  51.0910   C.2       1 RES1   0.0000
     4 C4      82.8706  39.8316  51.9343   C.2       1 RES1   0.0000
     5 C5      84.0656  39.1492  52.1060   C.2       1 RES1   0.0000
     6 C6      85.2202  39.5396  51.4187   C.2       1 RES1   0.0000
     7 C7      86.4991  38.7975  51.6785   C.2       1 RES1   0.0000
     8 C8      87.0239  38.0117  50.6420   C.2       1 RES1   0.0000
     9 C9      88.1784  37.2616  50.8274   C.2       1 RES1   0.0000
    10 C10     88.8620  37.2959  52.0417   C.2       1 RES1   0.0000
    11 C11     90.0958  36.4876  52.2868   C.2       1 RES1   0.0000
    12 O12     90.9507  36.8589  53.0888   O.2       1 RES1   0.0000
    13 N13     90.1996  35.3260  51.6145   N.am      1 RES1   0.0000
    14 C14     91.2965  34.3696  51.7206   C.3       1 RES1   0.0000
    15 C15     92.0182  34.2395  50.3152   C.3       1 RES1   0.0000
    16 O16     92.5978  35.4690  49.9213   O.3       1 RES1   0.0000
    17 C17     90.9334  33.0187  52.4031   C.3       1 RES1   0.0000
    18 C18     89.8963  32.2506  51.5656   C.3       1 RES1   0.0000
    19 C19     92.1862  32.1447  52.5630   C.3       1 RES1   0.0000
    20 C20     90.3417  33.2858  53.7958   C.3       1 RES1   0.0000
    21 C21     88.3707  38.0911  53.0746   C.2       1 RES1   0.0000
    22 C22     87.1891  38.8196  52.9105   C.2       1 RES1   0.0000
    23 C23     86.6849  39.5293  54.1342   C.2       1 RES1   0.0000
    24 O24     85.6335  40.1642  54.1117   O.co2     1 RES1   0.0000
    25 O25     87.4581  39.4530  55.1952   O.co2     1 RES1  -1.0000
    26 C26     85.0628  40.6518  50.5270   C.2       1 RES1   0.0000
    27 C27     86.2047  41.0646  49.6400   C.2       1 RES1   0.0000
    28 O28     86.5397  40.3559  48.6952   O.2       1 RES1   0.0000
    29 N29     86.9164  42.1548  50.0206   N.am      1 RES1   0.0000
    30 C30     88.1079  42.6739  49.4462   C.2       1 RES1   0.0000
    31 C31     88.4191  42.5559  48.0942   C.2       1 RES1   0.0000
    32 C32     89.5634  43.1492  47.5834   C.2       1 RES1   0.0000
    33 C33     90.4383  43.8468  48.4180   C.2       1 RES1   0.0000
    34 C34     91.6488  44.5602  47.8695   C.2       1 RES1   0.0000
    35 N35     92.7577  44.5799  48.7071   N.pl3     1 RES1   0.0000
    36 N36     91.5896  45.0579  46.6664   N.pl3     1 RES1   1.0000
    37 C37     90.1575  43.8994  49.7828   C.2       1 RES1   0.0000
    38 C38     89.0052  43.3190  50.2923   C.2       1 RES1   0.0000
    39 N39     83.9207  41.3464  50.3843   N.2       1 RES1   0.0000
@<TRIPOS>BOND
     1     1     2    1
     2     2     3    1
     3     3     4    2
     4     4     5    1
     5     5     6    2
     6     6     7    1
     7     7     8    2
     8     8     9    1
     9     9    10    2
    10    10    11    1
    11    11    12    2
    12    11    13   am
    13    13    14    1
    14    14    15    1
    15    15    16    1
    16    14    17    1
    17    17    18    1
    18    17    19    1
    19    17    20    1
    20    10    21    1
    21    21    22    2
    22    22    23    1
    23    23    24    2
    24    23    25    1
    25     6    26    1
    26    26    27    1
    27    27    28    2
    28    27    29   am
    29    29    30    1
    30    30    31    2
    31    31    32    1
    32    32    33    2
    33    33    34    1
    34    34    35    1
    35    34    36    2
    36    33    37    1
    37    37    38    2
    38    26    39    2
    39    39     3    1
    40    22     7    1
    41    38    30    1
@<TRIPOS>SUBSTRUCTURE
     1 RES1        1 GROUP             0 ****  ****    0  
@<TRIPOS>MOLECULE
ligand_91
    39    41     1     0     0
SMALL
USER_CHARGES
****
Generated from the CSD

@<TRIPOS>ATOM
     1 C1      80.6244  41.2194  51.8583   C.3       1 RES1   0.0000
     2 O2      81.7339  41.6822  51.0873   O.3       1 RES1   0.0000
     3 C3      82.8628  40.9444  51.0910   C.2       1 RES1   0.0000
     4 C4      82.8706  39.8316  51.9343   C.2       1 RES1   0.0000
     5 C5      84.0656  39.1492  52.1060   C.2       1 RES1   0.0000
     6 C6      85.2202  39.5396  51.4187   C.2       1 RES1   0.0000
     7 C7      86.4991  38.7975  51.6785   C.2       1 RES1   0.0000
     8 C8      87.0239  38.0117  50.6420   C.2       1 RES1   0.0000
     9 C9      88.1784  37.2616  50.8274   C.2       1 RES1   0.0000
    10 C10     88.8620  37.2959  52.0417   C.2       1 RES1   0.0000
    11 C11     90.0958  36.4876  52.2868   C.2       1 RES1   0.0000
    12 O12     90.9507  36.8589  53.0888   O.2       1 RES1   0.0000
    13 N13     90.1996  35.3260  51.6145   N.am      1 RES1   0.0000
    14 C14     91.2965  34.3696  51.7206   C.3       1 RES1   0.0000
    15 C15     92.0182  34.2395  50.3152   C.3       1 RES1   0.0000
    16 O16     92.5978  35.4690  49.9213   O.3       1 RES1   0.0000
    17 C17     90.9334  33.0187  52.4031   C.3       1 RES1   0.0000
    18 C18     89.8962  32.2506  51.5656   C.3       1 RES1   0.0000
    19 C19     92.1862  32.1447  52.5629   C.3       1 RES1   0.0000
    20 C20     90.3417  33.2858  53.7958   C.3       1 RES1   0.0000
    21 C21     88.3707  38.0911  53.0746   C.2       1 RES1   0.0000
    22 C22     87.1891  38.8196  52.9105   C.2       1 RES1   0.0000
    23 C23     86.6849  39.5293  54.1342   C.2       1 RES1   0.0000
    24 O24     85.6335  40.1642  54.1117   O.co2     1 RES1   0.0000
    25 O25     87.4581  39.4529  55.1952   O.co2     1 RES1  -1.0000
    26 C26     85.0628  40.6518  50.5270   C.2       1 RES1   0.0000
    27 C27     86.2047  41.0646  49.6400   C.2       1 RES1   0.0000
    28 O28     86.5397  40.3559  48.6952   O.2       1 RES1   0.0000
    29 N29     86.9164  42.1548  50.0206   N.am      1 RES1   0.0000
    30 C30     88.1138  42.6677  49.4529   C.2       1 RES1   0.0000
    31 C31     89.0731  41.8666  48.8393   C.2       1 RES1   0.0000
    32 C32     90.1849  42.4382  48.2396   C.2       1 RES1   0.0000
    33 C33     90.3786  43.8203  48.2674   C.2       1 RES1   0.0000
    34 C34     91.5427  44.4665  47.5585   C.2       1 RES1   0.0000
    35 N35     91.3182  45.7607  47.1043   N.pl3     1 RES1   0.0000
    36 N36     92.6608  43.8041  47.4602   N.pl3     1 RES1   1.0000
    37 C37     89.4509  44.6097  48.9461   C.2       1 RES1   0.0000
    38 C38     88.3306  44.0402  49.5333   C.2       1 RES1   0.0000
    39 N39     83.9207  41.3464  50.3843   N.2       1 RES1   0.0000
@<TRIPOS>BOND
     1     1     2    1
     2     2     3    1
     3     3     4    2
     4     4     5    1
     5     5     6    2
     6     6     7    1
     7     7     8    2
     8     8     9    1
     9     9    10    2
    10    10    11    1
    11    11    12    2
    12    11    13   am
    13    13    14    1
    14    14    15    1
    15    15    16    1
    16    14    17    1
    17    17    18    1
    18    17    19    1
    19    17    20    1
    20    10    21    1
    21    21    22    2
    22    22    23    1
    23    23    24    2
    24    23    25    1
    25     6    26    1
    26    26    27    1
    27    27    28    2
    28    27    29   am
    29    29    30    1
    30    30    31    2
    31    31    32    1
    32    32    33    2
    33    33    34    1
    34    34    35    1
    35    34    36    2
    36    33    37    1
    37    37    38    2
    38    26    39    2
    39    39     3    1
    40    22     7    1
    41    38    30    1
@<TRIPOS>SUBSTRUCTURE
     1 RES1        1 GROUP             0 ****  ****    0  
@<TRIPOS>MOLECULE
ligand_92
    39    41     1     0     0
SMALL
USER_CHARGES
****
Generated from the CSD

@<TRIPOS>ATOM
     1 C1      80.6244  41.2194  51.8584   C.3       1 RES1   0.0000
     2 O2      81.7339  41.6822  51.0873   O.3       1 RES1   0.0000
     3 C3      82.8628  40.9444  51.0910   C.2       1 RES1   0.0000
     4 C4      82.8706  39.8316  51.9343   C.2       1 RES1   0.0000
     5 C5      84.0656  39.1492  52.1060   C.2       1 RES1   0.0000
     6 C6      85.2202  39.5396  51.4187   C.2       1 RES1   0.0000
     7 C7      86.4991  38.7975  51.6785   C.2       1 RES1   0.0000
     8 C8      87.0237  38.0114  50.6421   C.2       1 RES1   0.0000
     9 C9      88.1782  37.2613  50.8275   C.2       1 RES1   0.0000
    10 C10     88.8619  37.2959  52.0418   C.2       1 RES1   0.0000
    11 C11     90.0958  36.4876  52.2868   C.2       1 RES1   0.0000
    12 O12     90.9508  36.8590  53.0886   O.2       1 RES1   0.0000
    13 N13     90.1994  35.3258  51.6149   N.am      1 RES1   0.0000
    14 C14     91.2963  34.3693  51.7210   C.3       1 RES1   0.0000
    15 C15     92.0177  34.2388  50.3155   C.3       1 RES1   0.0000
    16 O16     92.5973  35.4683  49.9212   O.3       1 RES1   0.0000
    17 C17     90.9332  33.0186  52.4040   C.3       1 RES1   0.0000
    18 C18     89.8960  32.2503  51.5668   C.3       1 RES1   0.0000
    19 C19     92.1860  32.1447  52.5639   C.3       1 RES1   0.0000
    20 C20     90.3417  33.2862  53.7966   C.3       1 RES1   0.0000
    21 C21     88.3709  38.0914  53.0745   C.2       1 RES1   0.0000
    22 C22     87.1893  38.8198  52.9104   C.2       1 RES1   0.0000
    23 C23     86.6853  39.5299  54.1340   C.2       1 RES1   0.0000
    24 O24     85.6340  40.1648  54.1115   O.co2     1 RES1   0.0000
    25 O25     87.4586  39.4538  55.1949   O.co2     1 RES1  -1.0000
    26 C26     85.0628  40.6518  50.5270   C.2       1 RES1   0.0000
    27 C27     86.2047  41.0646  49.6400   C.2       1 RES1   0.0000
    28 O28     87.1629  41.6714  50.1096   O.2       1 RES1   0.0000
    29 N29     86.0510  40.8660  48.3069   N.am      1 RES1   0.0000
    30 C30     86.9055  41.2807  47.2500   C.2       1 RES1   0.0000
    31 C31     88.2849  41.4100  47.3882   C.2       1 RES1   0.0000
    32 C32     89.0705  41.7480  46.2969   C.2       1 RES1   0.0000
    33 C33     88.4919  41.9951  45.0509   C.2       1 RES1   0.0000
    34 C34     89.3355  42.2923  43.8362   C.2       1 RES1   0.0000
    35 N35     88.7718  43.1748  42.9224   N.pl3     1 RES1   0.0000
    36 N36     90.5181  41.7517  43.7486   N.pl3     1 RES1   1.0000
    37 C37     87.1035  41.9344  44.9371   C.2       1 RES1   0.0000
    38 C38     86.3180  41.5816  46.0246   C.2       1 RES1   0.0000
    39 N39     83.9207  41.3464  50.3843   N.2       1 RES1   0.0000
@<TRIPOS>BOND
     1     1     2    1
     2     2     3    1
     3     3     4    2
     4     4     5    1
     5     5     6    2
     6     6     7    1
     7     7     8    2
     8     8     9    1
     9     9    10    2
    10    10    11    1
    11    11    12    2
    12    11    13   am
    13    13    14    1
    14    14    15    1
    15    15    16    1
    16    14    17    1
    17    17    18    1
    18    17    19    1
    19    17    20    1
    20    10    21    1
    21    21    22    2
    22    22    23    1
    23    23    24    2
    24    23    25    1
    25     6    26    1
    26    26    27    1
    27    27    28    2
    28    27    29   am
    29    29    30    1
    30    30    31    2
    31    31    32    1
    32    32    33    2
    33    33    34    1
    34    34    35    1
    35    34    36    2
    36    33    37    1
    37    37    38    2
    38    26    39    2
    39    39     3    1
    40    22     7    1
    41    38    30    1
@<TRIPOS>SUBSTRUCTURE
     1 RES1        1 GROUP             0 ****  ****    0  
@<TRIPOS>MOLECULE
ligand_93
    39    41     1     0     0
SMALL
USER_CHARGES
****
Generated from the CSD

@<TRIPOS>ATOM
     1 C1      80.6244  41.2194  51.8584   C.3       1 RES1   0.0000
     2 O2      81.7339  41.6822  51.0873   O.3       1 RES1   0.0000
     3 C3      82.8628  40.9444  51.0910   C.2       1 RES1   0.0000
     4 C4      82.8706  39.8316  51.9343   C.2       1 RES1   0.0000
     5 C5      84.0656  39.1492  52.1060   C.2       1 RES1   0.0000
     6 C6      85.2202  39.5396  51.4187   C.2       1 RES1   0.0000
     7 C7      86.4991  38.7975  51.6785   C.2       1 RES1   0.0000
     8 C8      87.0237  38.0114  50.6421   C.2       1 RES1   0.0000
     9 C9      88.1782  37.2613  50.8275   C.2       1 RES1   0.0000
    10 C10     88.8619  37.2959  52.0418   C.2       1 RES1   0.0000
    11 C11     90.0958  36.4875  52.2868   C.2       1 RES1   0.0000
    12 O12     90.9509  36.8591  53.0886   O.2       1 RES1   0.0000
    13 N13     90.1994  35.3258  51.6149   N.am      1 RES1   0.0000
    14 C14     91.2963  34.3693  51.7210   C.3       1 RES1   0.0000
    15 C15     92.0177  34.2388  50.3155   C.3       1 RES1   0.0000
    16 O16     92.5973  35.4682  49.9212   O.3       1 RES1   0.0000
    17 C17     90.9332  33.0186  52.4040   C.3       1 RES1   0.0000
    18 C18     89.8959  32.2503  51.5668   C.3       1 RES1   0.0000
    19 C19     92.1860  32.1447  52.5639   C.3       1 RES1   0.0000
    20 C20     90.3417  33.2862  53.7966   C.3       1 RES1   0.0000
    21 C21     88.3709  38.0914  53.0745   C.2       1 RES1   0.0000
    22 C22     87.1893  38.8199  52.9104   C.2       1 RES1   0.0000
    23 C23     86.6853  39.5300  54.1340   C.2       1 RES1   0.0000
    24 O24     85.6340  40.1649  54.1115   O.co2     1 RES1   0.0000
    25 O25     87.4587  39.4538  55.1949   O.co2     1 RES1  -1.0000
    26 C26     85.0628  40.6518  50.5270   C.2       1 RES1   0.0000
    27 C27     86.2047  41.0646  49.6400   C.2       1 RES1   0.0000
    28 O28     87.1629  41.6714  50.1096   O.2       1 RES1   0.0000
    29 N29     86.0510  40.8660  48.3069   N.am      1 RES1   0.0000
    30 C30     86.8999  41.2901  47.2493   C.2       1 RES1   0.0000
    31 C31     87.6722  42.4472  47.3061   C.2       1 RES1   0.0000
    32 C32     88.5359  42.7657  46.2692   C.2       1 RES1   0.0000
    33 C33     88.6236  41.9516  45.1387   C.2       1 RES1   0.0000
    34 C34     89.6093  42.2417  44.0343   C.2       1 RES1   0.0000
    35 N35     90.0669  41.1291  43.3384   N.pl3     1 RES1   0.0000
    36 N36     89.9231  43.4821  43.7861   N.pl3     1 RES1   1.0000
    37 C37     87.7946  40.8335  45.0567   C.2       1 RES1   0.0000
    38 C38     86.9412  40.5058  46.1001   C.2       1 RES1   0.0000
    39 N39     83.9207  41.3464  50.3843   N.2       1 RES1   0.0000
@<TRIPOS>BOND
     1     1     2    1
     2     2     3    1
     3     3     4    2
     4     4     5    1
     5     5     6    2
     6     6     7    1
     7     7     8    2
     8     8     9    1
     9     9    10    2
    10    10    11    1
    11    11    12    2
    12    11    13   am
    13    13    14    1
    14    14    15    1
    15    15    16    1
    16    14    17    1
    17    17    18    1
    18    17    19    1
    19    17    20    1
    20    10    21    1
    21    21    22    2
    22    22    23    1
    23    23    24    2
    24    23    25    1
    25     6    26    1
    26    26    27    1
    27    27    28    2
    28    27    29   am
    29    29    30    1
    30    30    31    2
    31    31    32    1
    32    32    33    2
    33    33    34    1
    34    34    35    1
    35    34    36    2
    36    33    37    1
    37    37    38    2
    38    26    39    2
    39    39     3    1
    40    22     7    1
    41    38    30    1
@<TRIPOS>SUBSTRUCTURE
     1 RES1        1 GROUP             0 ****  ****    0  
@<TRIPOS>MOLECULE
ligand_94
    39    41     1     0     0
SMALL
USER_CHARGES
****
Generated from the CSD

@<TRIPOS>ATOM
     1 C1      81.4024  42.5479  52.3264   C.3       1 RES1   0.0000
     2 O2      81.9626  42.0401  51.1148   O.3       1 RES1   0.0000
     3 C3      82.9860  41.1665  51.2045   C.2       1 RES1   0.0000
     4 C4      83.4681  40.9098  52.4895   C.2       1 RES1   0.0000
     5 C5      84.6286  40.1610  52.6154   C.2       1 RES1   0.0000
     6 C6      85.2730  39.6408  51.4876   C.2       1 RES1   0.0000
     7 C7      86.5529  38.8792  51.6762   C.2       1 RES1   0.0000
     8 C8      86.5428  37.5025  51.4079   C.2       1 RES1   0.0000
     9 C9      87.6785  36.7270  51.6051   C.2       1 RES1   0.0000
    10 C10     88.8674  37.3056  52.0465   C.2       1 RES1   0.0000
    11 C11     90.1045  36.5019  52.2901   C.2       1 RES1   0.0000
    12 O12     90.9451  36.8614  53.1124   O.2       1 RES1   0.0000
    13 N13     90.2274  35.3572  51.5927   N.am      1 RES1   0.0000
    14 C14     91.3234  34.4000  51.7028   C.3       1 RES1   0.0000
    15 C15     92.0801  34.3053  50.3131   C.3       1 RES1   0.0000
    16 O16     92.6669  35.5448  49.9639   O.3       1 RES1   0.0000
    17 C17     90.9462  33.0324  52.3430   C.3       1 RES1   0.0000
    18 C18     89.9317  32.2835  51.4616   C.3       1 RES1   0.0000
    19 C19     92.1964  32.1566  52.5127   C.3       1 RES1   0.0000
    20 C20     90.3195  33.2647  53.7266   C.3       1 RES1   0.0000
    21 C21     88.9043  38.6762  52.2932   C.2       1 RES1   0.0000
    22 C22     87.7567  39.4582  52.1343   C.2       1 RES1   0.0000
    23 C23     87.8808  40.8930  52.5604   C.2       1 RES1   0.0000
    24 O24     86.9211  41.6575  52.5023   O.co2     1 RES1   0.0000
    25 O25     89.0783  41.2680  52.9536   O.co2     1 RES1  -1.0000
    26 C26     84.6371  39.9133  50.2313   C.2       1 RES1   0.0000
    27 C27     85.1711  39.2865  48.9731   C.2       1 RES1   0.0000
    28 O28     85.0368  38.0818  48.7786   O.2       1 RES1   0.0000
    29 N29     85.9171  40.0764  48.1609   N.am      1 RES1   0.0000
    30 C30     86.6420  39.7072  46.9960   C.2       1 RES1   0.0000
    31 C31     86.2546  38.6704  46.1512   C.2       1 RES1   0.0000
    32 C32     86.9658  38.4089  44.9900   C.2       1 RES1   0.0000
    33 C33     88.0981  39.1571  44.6635   C.2       1 RES1   0.0000
    34 C34     88.8417  38.9359  43.3698   C.2       1 RES1   0.0000
    35 N35     90.2160  39.1328  43.4329   N.pl3     1 RES1   0.0000
    36 N36     88.1717  38.5453  42.3224   N.pl3     1 RES1   1.0000
    37 C37     88.5218  40.1461  45.5504   C.2       1 RES1   0.0000
    38 C38     87.8024  40.4185  46.7046   C.2       1 RES1   0.0000
    39 N39     83.5362  40.6724  50.0939   N.2       1 RES1   0.0000
@<TRIPOS>BOND
     1     1     2    1
     2     2     3    1
     3     3     4    2
     4     4     5    1
     5     5     6    2
     6     6     7    1
     7     7     8    2
     8     8     9    1
     9     9    10    2
    10    10    11    1
    11    11    12    2
    12    11    13   am
    13    13    14    1
    14    14    15    1
    15    15    16    1
    16    14    17    1
    17    17    18    1
    18    17    19    1
    19    17    20    1
    20    10    21    1
    21    21    22    2
    22    22    23    1
    23    23    24    2
    24    23    25    1
    25     6    26    1
    26    26    27    1
    27    27    28    2
    28    27    29   am
    29    29    30    1
    30    30    31    2
    31    31    32    1
    32    32    33    2
    33    33    34    1
    34    34    35    1
    35    34    36    2
    36    33    37    1
    37    37    38    2
    38    26    39    2
    39    39     3    1
    40    22     7    1
    41    38    30    1
@<TRIPOS>SUBSTRUCTURE
     1 RES1        1 GROUP             0 ****  ****    0  
@<TRIPOS>MOLECULE
ligand_95
    39    41     1     0     0
SMALL
USER_CHARGES
****
Generated from the CSD

@<TRIPOS>ATOM
     1 C1      81.4024  42.5478  52.3264   C.3       1 RES1   0.0000
     2 O2      81.9626  42.0401  51.1148   O.3       1 RES1   0.0000
     3 C3      82.9860  41.1665  51.2045   C.2       1 RES1   0.0000
     4 C4      83.4681  40.9098  52.4895   C.2       1 RES1   0.0000
     5 C5      84.6286  40.1610  52.6154   C.2       1 RES1   0.0000
     6 C6      85.2730  39.6408  51.4876   C.2       1 RES1   0.0000
     7 C7      86.5529  38.8792  51.6762   C.2       1 RES1   0.0000
     8 C8      86.5428  37.5025  51.4080   C.2       1 RES1   0.0000
     9 C9      87.6785  36.7270  51.6052   C.2       1 RES1   0.0000
    10 C10     88.8674  37.3056  52.0465   C.2       1 RES1   0.0000
    11 C11     90.1045  36.5019  52.2901   C.2       1 RES1   0.0000
    12 O12     90.9451  36.8615  53.1124   O.2       1 RES1   0.0000
    13 N13     90.2274  35.3571  51.5928   N.am      1 RES1   0.0000
    14 C14     91.3233  34.4000  51.7030   C.3       1 RES1   0.0000
    15 C15     92.0800  34.3051  50.3132   C.3       1 RES1   0.0000
    16 O16     92.6668  35.5446  49.9639   O.3       1 RES1   0.0000
    17 C17     90.9461  33.0324  52.3433   C.3       1 RES1   0.0000
    18 C18     89.9316  32.2834  51.4619   C.3       1 RES1   0.0000
    19 C19     92.1963  32.1566  52.5129   C.3       1 RES1   0.0000
    20 C20     90.3196  33.2648  53.7269   C.3       1 RES1   0.0000
    21 C21     88.9044  38.6762  52.2931   C.2       1 RES1   0.0000
    22 C22     87.7568  39.4582  52.1342   C.2       1 RES1   0.0000
    23 C23     87.8809  40.8931  52.5601   C.2       1 RES1   0.0000
    24 O24     86.9212  41.6576  52.5020   O.co2     1 RES1   0.0000
    25 O25     89.0784  41.2681  52.9533   O.co2     1 RES1  -1.0000
    26 C26     84.6371  39.9133  50.2313   C.2       1 RES1   0.0000
    27 C27     85.1711  39.2865  48.9731   C.2       1 RES1   0.0000
    28 O28     85.0368  38.0818  48.7786   O.2       1 RES1   0.0000
    29 N29     85.9171  40.0764  48.1609   N.am      1 RES1   0.0000
    30 C30     86.6508  39.7052  47.0021   C.2       1 RES1   0.0000
    31 C31     87.2270  38.4492  46.8319   C.2       1 RES1   0.0000
    32 C32     87.8673  38.1262  45.6453   C.2       1 RES1   0.0000
    33 C33     87.9736  39.0617  44.6148   C.2       1 RES1   0.0000
    34 C34     88.6017  38.7060  43.2903   C.2       1 RES1   0.0000
    35 N35     88.1125  39.4052  42.1933   N.pl3     1 RES1   0.0000
    36 N36     89.5616  37.8246  43.2700   N.pl3     1 RES1   1.0000
    37 C37     87.4576  40.3407  44.8200   C.2       1 RES1   0.0000
    38 C38     86.8035  40.6600  46.0009   C.2       1 RES1   0.0000
    39 N39     83.5362  40.6724  50.0939   N.2       1 RES1   0.0000
@<TRIPOS>BOND
     1     1     2    1
     2     2     3    1
     3     3     4    2
     4     4     5    1
     5     5     6    2
     6     6     7    1
     7     7     8    2
     8     8     9    1
     9     9    10    2
    10    10    11    1
    11    11    12    2
    12    11    13   am
    13    13    14    1
    14    14    15    1
    15    15    16    1
    16    14    17    1
    17    17    18    1
    18    17    19    1
    19    17    20    1
    20    10    21    1
    21    21    22    2
    22    22    23    1
    23    23    24    2
    24    23    25    1
    25     6    26    1
    26    26    27    1
    27    27    28    2
    28    27    29   am
    29    29    30    1
    30    30    31    2
    31    31    32    1
    32    32    33    2
    33    33    34    1
    34    34    35    1
    35    34    36    2
    36    33    37    1
    37    37    38    2
    38    26    39    2
    39    39     3    1
    40    22     7    1
    41    38    30    1
@<TRIPOS>SUBSTRUCTURE
     1 RES1        1 GROUP             0 ****  ****    0  
@<TRIPOS>MOLECULE
ligand_96
    39    41     1     0     0
SMALL
USER_CHARGES
****
Generated from the CSD

@<TRIPOS>ATOM
     1 C1      81.4024  42.5479  52.3264   C.3       1 RES1   0.0000
     2 O2      81.9626  42.0401  51.1148   O.3       1 RES1   0.0000
     3 C3      82.9860  41.1665  51.2045   C.2       1 RES1   0.0000
     4 C4      83.4681  40.9098  52.4895   C.2       1 RES1   0.0000
     5 C5      84.6286  40.1610  52.6154   C.2       1 RES1   0.0000
     6 C6      85.2730  39.6408  51.4876   C.2       1 RES1   0.0000
     7 C7      86.5529  38.8792  51.6762   C.2       1 RES1   0.0000
     8 C8      86.5427  37.5024  51.4083   C.2       1 RES1   0.0000
     9 C9      87.6784  36.7269  51.6056   C.2       1 RES1   0.0000
    10 C10     88.8674  37.3057  52.0466   C.2       1 RES1   0.0000
    11 C11     90.1045  36.5019  52.2902   C.2       1 RES1   0.0000
    12 O12     90.9451  36.8615  53.1125   O.2       1 RES1   0.0000
    13 N13     90.2274  35.3572  51.5928   N.am      1 RES1   0.0000
    14 C14     91.3233  34.4000  51.7031   C.3       1 RES1   0.0000
    15 C15     92.0802  34.3051  50.3135   C.3       1 RES1   0.0000
    16 O16     92.6670  35.5447  49.9642   O.3       1 RES1   0.0000
    17 C17     90.9459  33.0324  52.3433   C.3       1 RES1   0.0000
    18 C18     89.9316  32.2834  51.4617   C.3       1 RES1   0.0000
    19 C19     92.1961  32.1566  52.5132   C.3       1 RES1   0.0000
    20 C20     90.3190  33.2648  53.7268   C.3       1 RES1   0.0000
    21 C21     88.9044  38.6763  52.2929   C.2       1 RES1   0.0000
    22 C22     87.7568  39.4583  52.1339   C.2       1 RES1   0.0000
    23 C23     87.8811  40.8932  52.5595   C.2       1 RES1   0.0000
    24 O24     86.9214  41.6578  52.5014   O.co2     1 RES1   0.0000
    25 O25     89.0786  41.2683  52.9524   O.co2     1 RES1  -1.0000
    26 C26     84.6371  39.9133  50.2313   C.2       1 RES1   0.0000
    27 C27     85.1711  39.2865  48.9731   C.2       1 RES1   0.0000
    28 O28     86.2016  39.7132  48.4603   O.2       1 RES1   0.0000
    29 N29     84.3933  38.3503  48.3741   N.am      1 RES1   0.0000
    30 C30     84.5939  37.7074  47.1229   C.2       1 RES1   0.0000
    31 C31     85.8538  37.4544  46.5868   C.2       1 RES1   0.0000
    32 C32     85.9818  36.7570  45.3953   C.2       1 RES1   0.0000
    33 C33     84.8530  36.3246  44.6972   C.2       1 RES1   0.0000
    34 C34     84.9730  35.5021  43.4385   C.2       1 RES1   0.0000
    35 N35     83.9222  34.6245  43.1993   N.pl3     1 RES1   0.0000
    36 N36     86.0015  35.6945  42.6614   N.pl3     1 RES1   1.0000
    37 C37     83.5937  36.6445  45.2031   C.2       1 RES1   0.0000
    38 C38     83.4646  37.3290  46.4027   C.2       1 RES1   0.0000
    39 N39     83.5362  40.6724  50.0939   N.2       1 RES1   0.0000
@<TRIPOS>BOND
     1     1     2    1
     2     2     3    1
     3     3     4    2
     4     4     5    1
     5     5     6    2
     6     6     7    1
     7     7     8    2
     8     8     9    1
     9     9    10    2
    10    10    11    1
    11    11    12    2
    12    11    13   am
    13    13    14    1
    14    14    15    1
    15    15    16    1
    16    14    17    1
    17    17    18    1
    18    17    19    1
    19    17    20    1
    20    10    21    1
    21    21    22    2
    22    22    23    1
    23    23    24    2
    24    23    25    1
    25     6    26    1
    26    26    27    1
    27    27    28    2
    28    27    29   am
    29    29    30    1
    30    30    31    2
    31    31    32    1
    32    32    33    2
    33    33    34    1
    34    34    35    1
    35    34    36    2
    36    33    37    1
    37    37    38    2
    38    26    39    2
    39    39     3    1
    40    22     7    1
    41    38    30    1
@<TRIPOS>SUBSTRUCTURE
     1 RES1        1 GROUP             0 ****  ****    0  
@<TRIPOS>MOLECULE
ligand_97
    39    41     1     0     0
SMALL
USER_CHARGES
****
Generated from the CSD

@<TRIPOS>ATOM
     1 C1      81.4024  42.5479  52.3264   C.3       1 RES1   0.0000
     2 O2      81.9626  42.0401  51.1148   O.3       1 RES1   0.0000
     3 C3      82.9860  41.1665  51.2045   C.2       1 RES1   0.0000
     4 C4      83.4681  40.9098  52.4895   C.2       1 RES1   0.0000
     5 C5      84.6286  40.1610  52.6154   C.2       1 RES1   0.0000
     6 C6      85.2730  39.6408  51.4876   C.2       1 RES1   0.0000
     7 C7      86.5529  38.8792  51.6762   C.2       1 RES1   0.0000
     8 C8      86.5427  37.5023  51.4085   C.2       1 RES1   0.0000
     9 C9      87.6783  36.7269  51.6058   C.2       1 RES1   0.0000
    10 C10     88.8674  37.3057  52.0466   C.2       1 RES1   0.0000
    11 C11     90.1045  36.5019  52.2902   C.2       1 RES1   0.0000
    12 O12     90.9451  36.8615  53.1125   O.2       1 RES1   0.0000
    13 N13     90.2274  35.3571  51.5929   N.am      1 RES1   0.0000
    14 C14     91.3232  34.3999  51.7033   C.3       1 RES1   0.0000
    15 C15     92.0801  34.3049  50.3137   C.3       1 RES1   0.0000
    16 O16     92.6670  35.5444  49.9643   O.3       1 RES1   0.0000
    17 C17     90.9458  33.0324  52.3436   C.3       1 RES1   0.0000
    18 C18     89.9315  32.2834  51.4620   C.3       1 RES1   0.0000
    19 C19     92.1959  32.1565  52.5136   C.3       1 RES1   0.0000
    20 C20     90.3189  33.2649  53.7270   C.3       1 RES1   0.0000
    21 C21     88.9045  38.6763  52.2926   C.2       1 RES1   0.0000
    22 C22     87.7569  39.4583  52.1337   C.2       1 RES1   0.0000
    23 C23     87.8812  40.8933  52.5590   C.2       1 RES1   0.0000
    24 O24     86.9215  41.6579  52.5009   O.co2     1 RES1   0.0000
    25 O25     89.0788  41.2685  52.9517   O.co2     1 RES1  -1.0000
    26 C26     84.6371  39.9133  50.2313   C.2       1 RES1   0.0000
    27 C27     85.1711  39.2865  48.9731   C.2       1 RES1   0.0000
    28 O28     86.2016  39.7132  48.4603   O.2       1 RES1   0.0000
    29 N29     84.3933  38.3503  48.3741   N.am      1 RES1   0.0000
    30 C30     84.5882  37.7153  47.1180   C.2       1 RES1   0.0000
    31 C31     85.2241  38.3287  46.0418   C.2       1 RES1   0.0000
    32 C32     85.4478  37.6275  44.8668   C.2       1 RES1   0.0000
    33 C33     85.0131  36.3081  44.7300   C.2       1 RES1   0.0000
    34 C34     85.3111  35.5058  43.4878   C.2       1 RES1   0.0000
    35 N35     84.3308  34.5913  43.1213   N.pl3     1 RES1   0.0000
    36 N36     86.4145  35.7469  42.8375   N.pl3     1 RES1   1.0000
    37 C37     84.3134  35.7242  45.7853   C.2       1 RES1   0.0000
    38 C38     84.1023  36.4198  46.9667   C.2       1 RES1   0.0000
    39 N39     83.5362  40.6724  50.0939   N.2       1 RES1   0.0000
@<TRIPOS>BOND
     1     1     2    1
     2     2     3    1
     3     3     4    2
     4     4     5    1
     5     5     6    2
     6     6     7    1
     7     7     8    2
     8     8     9    1
     9     9    10    2
    10    10    11    1
    11    11    12    2
    12    11    13   am
    13    13    14    1
    14    14    15    1
    15    15    16    1
    16    14    17    1
    17    17    18    1
    18    17    19    1
    19    17    20    1
    20    10    21    1
    21    21    22    2
    22    22    23    1
    23    23    24    2
    24    23    25    1
    25     6    26    1
    26    26    27    1
    27    27    28    2
    28    27    29   am
    29    29    30    1
    30    30    31    2
    31    31    32    1
    32    32    33    2
    33    33    34    1
    34    34    35    1
    35    34    36    2
    36    33    37    1
    37    37    38    2
    38    26    39    2
    39    39     3    1
    40    22     7    1
    41    38    30    1
@<TRIPOS>SUBSTRUCTURE
     1 RES1        1 GROUP             0 ****  ****    0  
@<TRIPOS>MOLECULE
ligand_98
    39    41     1     0     0
SMALL
USER_CHARGES
****
Generated from the CSD

@<TRIPOS>ATOM
     1 C1      82.5404  43.7021  50.6686   C.3       1 RES1   0.0000
     2 O2      82.3114  42.3205  50.3888   O.3       1 RES1   0.0000
     3 C3      83.2551  41.4315  50.7601   C.2       1 RES1   0.0000
     4 C4      84.4265  41.9643  51.3017   C.2       1 RES1   0.0000
     5 C5      85.4910  41.1055  51.5310   C.2       1 RES1   0.0000
     6 C6      85.3778  39.7360  51.2676   C.2       1 RES1   0.0000
     7 C7      86.5760  38.8585  51.4867   C.2       1 RES1   0.0000
     8 C8      87.0929  38.7666  52.7874   C.2       1 RES1   0.0000
     9 C9      88.2272  38.0104  53.0545   C.2       1 RES1   0.0000
    10 C10     88.8630  37.2980  52.0389   C.2       1 RES1   0.0000
    11 C11     90.0971  36.4896  52.2822   C.2       1 RES1   0.0000
    12 O12     90.9002  36.8030  53.1590   O.2       1 RES1   0.0000
    13 N13     90.2592  35.3917  51.5204   N.am      1 RES1   0.0000
    14 C14     91.3762  34.4556  51.5930   C.3       1 RES1   0.0000
    15 C15     92.1575  34.4616  50.2138   C.3       1 RES1   0.0000
    16 O16     92.7229  35.7321  49.9510   O.3       1 RES1   0.0000
    17 C17     91.0220  33.0437  52.1443   C.3       1 RES1   0.0000
    18 C18     90.0370  32.3271  51.2044   C.3       1 RES1   0.0000
    19 C19     92.2897  32.1873  52.2795   C.3       1 RES1   0.0000
    20 C20     90.3717  33.1780  53.5299   C.3       1 RES1   0.0000
    21 C21     88.3489  37.3557  50.7454   C.2       1 RES1   0.0000
    22 C22     87.2307  38.1442  50.4594   C.2       1 RES1   0.0000
    23 C23     86.8513  38.2367  49.0092   C.2       1 RES1   0.0000
    24 O24     86.6636  39.3245  48.4705   O.co2     1 RES1   0.0000
    25 O25     86.7007  37.0884  48.3863   O.co2     1 RES1  -1.0000
    26 C26     84.0991  39.3030  50.7832   C.2       1 RES1   0.0000
    27 C27     83.8289  37.8352  50.5989   C.2       1 RES1   0.0000
    28 O28     84.7023  37.0104  50.8514   O.2       1 RES1   0.0000
    29 N29     82.6530  37.4949  50.0145   N.am      1 RES1   0.0000
    30 C30     82.2119  36.2072  49.6068   C.2       1 RES1   0.0000
    31 C31     82.5936  35.0306  50.2460   C.2       1 RES1   0.0000
    32 C32     82.0688  33.8118  49.8439   C.2       1 RES1   0.0000
    33 C33     81.1754  33.7383  48.7738   C.2       1 RES1   0.0000
    34 C34     80.5381  32.4325  48.3686   C.2       1 RES1   0.0000
    35 N35     80.2960  32.2861  47.0079   N.pl3     1 RES1   0.0000
    36 N36     80.3038  31.5392  49.2881   N.pl3     1 RES1   1.0000
    37 C37     80.8537  34.9116  48.0925   C.2       1 RES1   0.0000
    38 C38     81.3665  36.1332  48.5036   C.2       1 RES1   0.0000
    39 N39     83.0746  40.1319  50.5179   N.2       1 RES1   0.0000
@<TRIPOS>BOND
     1     1     2    1
     2     2     3    1
     3     3     4    2
     4     4     5    1
     5     5     6    2
     6     6     7    1
     7     7     8    2
     8     8     9    1
     9     9    10    2
    10    10    11    1
    11    11    12    2
    12    11    13   am
    13    13    14    1
    14    14    15    1
    15    15    16    1
    16    14    17    1
    17    17    18    1
    18    17    19    1
    19    17    20    1
    20    10    21    1
    21    21    22    2
    22    22    23    1
    23    23    24    2
    24    23    25    1
    25     6    26    1
    26    26    27    1
    27    27    28    2
    28    27    29   am
    29    29    30    1
    30    30    31    2
    31    31    32    1
    32    32    33    2
    33    33    34    1
    34    34    35    1
    35    34    36    2
    36    33    37    1
    37    37    38    2
    38    26    39    2
    39    39     3    1
    40    22     7    1
    41    38    30    1
@<TRIPOS>SUBSTRUCTURE
     1 RES1        1 GROUP             0 ****  ****    0  
@<TRIPOS>MOLECULE
ligand_99
    39    41     1     0     0
SMALL
USER_CHARGES
****
Generated from the CSD

@<TRIPOS>ATOM
     1 C1      82.5405  43.7021  50.6685   C.3       1 RES1   0.0000
     2 O2      82.3114  42.3205  50.3888   O.3       1 RES1   0.0000
     3 C3      83.2551  41.4315  50.7601   C.2       1 RES1   0.0000
     4 C4      84.4265  41.9643  51.3017   C.2       1 RES1   0.0000
     5 C5      85.4910  41.1055  51.5310   C.2       1 RES1   0.0000
     6 C6      85.3778  39.7360  51.2676   C.2       1 RES1   0.0000
     7 C7      86.5760  38.8585  51.4867   C.2       1 RES1   0.0000
     8 C8      87.0932  38.7670  52.7873   C.2       1 RES1   0.0000
     9 C9      88.2275  38.0107  53.0544   C.2       1 RES1   0.0000
    10 C10     88.8630  37.2981  52.0388   C.2       1 RES1   0.0000
    11 C11     90.0971  36.4896  52.2822   C.2       1 RES1   0.0000
    12 O12     90.9005  36.8033  53.1586   O.2       1 RES1   0.0000
    13 N13     90.2589  35.3915  51.5207   N.am      1 RES1   0.0000
    14 C14     91.3759  34.4553  51.5933   C.3       1 RES1   0.0000
    15 C15     92.1568  34.4608  50.2138   C.3       1 RES1   0.0000
    16 O16     92.7221  35.7312  49.9503   O.3       1 RES1   0.0000
    17 C17     91.0219  33.0437  52.1453   C.3       1 RES1   0.0000
    18 C18     90.0366  32.3267  51.2060   C.3       1 RES1   0.0000
    19 C19     92.2897  32.1873  52.2804   C.3       1 RES1   0.0000
    20 C20     90.3720  33.1786  53.5310   C.3       1 RES1   0.0000
    21 C21     88.3487  37.3554  50.7455   C.2       1 RES1   0.0000
    22 C22     87.2305  38.1438  50.4595   C.2       1 RES1   0.0000
    23 C23     86.8507  38.2359  49.0093   C.2       1 RES1   0.0000
    24 O24     86.6630  39.3236  48.4703   O.co2     1 RES1   0.0000
    25 O25     86.6999  37.0874  48.3868   O.co2     1 RES1  -1.0000
    26 C26     84.0991  39.3030  50.7832   C.2       1 RES1   0.0000
    27 C27     83.8289  37.8352  50.5989   C.2       1 RES1   0.0000
    28 O28     84.7023  37.0104  50.8514   O.2       1 RES1   0.0000
    29 N29     82.6530  37.4949  50.0144   N.am      1 RES1   0.0000
    30 C30     82.2163  36.2088  49.5971   C.2       1 RES1   0.0000
    31 C31     83.0838  35.2119  49.1585   C.2       1 RES1   0.0000
    32 C32     82.6000  33.9535  48.8351   C.2       1 RES1   0.0000
    33 C33     81.2348  33.6727  48.9125   C.2       1 RES1   0.0000
    34 C34     80.6984  32.2904  48.6353   C.2       1 RES1   0.0000
    35 N35     79.5367  31.9550  49.3206   N.pl3     1 RES1   0.0000
    36 N36     81.3172  31.5423  47.7659   N.pl3     1 RES1   1.0000
    37 C37     80.3639  34.6967  49.2830   C.2       1 RES1   0.0000
    38 C38     80.8486  35.9517  49.6213   C.2       1 RES1   0.0000
    39 N39     83.0746  40.1319  50.5179   N.2       1 RES1   0.0000
@<TRIPOS>BOND
     1     1     2    1
     2     2     3    1
     3     3     4    2
     4     4     5    1
     5     5     6    2
     6     6     7    1
     7     7     8    2
     8     8     9    1
     9     9    10    2
    10    10    11    1
    11    11    12    2
    12    11    13   am
    13    13    14    1
    14    14    15    1
    15    15    16    1
    16    14    17    1
    17    17    18    1
    18    17    19    1
    19    17    20    1
    20    10    21    1
    21    21    22    2
    22    22    23    1
    23    23    24    2
    24    23    25    1
    25     6    26    1
    26    26    27    1
    27    27    28    2
    28    27    29   am
    29    29    30    1
    30    30    31    2
    31    31    32    1
    32    32    33    2
    33    33    34    1
    34    34    35    1
    35    34    36    2
    36    33    37    1
    37    37    38    2
    38    26    39    2
    39    39     3    1
    40    22     7    1
    41    38    30    1
@<TRIPOS>SUBSTRUCTURE
     1 RES1        1 GROUP             0 ****  ****    0  
