@<TRIPOS>MOLECULE
native
    18    19     1     0     0
SMALL
NO_CHARGES
****
Generated from the CSD

@<TRIPOS>ATOM
     1 N1     -20.3690  52.7620  39.5820   N.pl3     1 RES1   0.0000
     2 C2     -21.1570  52.7170  38.6040   C.2       1 RES1   0.0000
     3 C3     -22.3210  51.8700  38.7080   C.2       1 RES1   0.0000
     4 N4     -22.6090  51.3750  39.9730   N.2       1 RES1   0.0000
     5 C5     -23.7850  50.6510  40.1100   C.2       1 RES1   0.0000
     6 C6     -24.6560  50.4500  39.0120   C.2       1 RES1   0.0000
     7 C7     -25.8930  49.5480  39.2650   C.2       1 RES1   0.0000
     8 O8     -26.2410  49.3660  40.4700   O.2       1 RES1   0.0000
     9 N9     -26.4370  48.8810  38.1720   N.am      1 RES1   0.0000
    10 C10    -27.5680  47.9250  38.2690   C.3       1 RES1   0.0000
    11 C11    -27.0950  46.4310  38.3930   C.2       1 RES1   0.0000
    12 C12    -25.9150  46.0740  39.1230   C.2       1 RES1   0.0000
    13 C13    -25.4810  44.7260  39.2230   C.2       1 RES1   0.0000
    14 C14    -26.2410  43.6900  38.6110   C.2       1 RES1   0.0000
    15 C15    -27.4250  44.0120  37.8760   C.2       1 RES1   0.0000
    16 C16    -27.8480  45.3740  37.7690   C.2       1 RES1   0.0000
    17 C17    -24.3390  51.0230  37.7370   C.2       1 RES1   0.0000
    18 N18    -23.1700  51.7210  37.6190   N.2       1 RES1   0.0000
@<TRIPOS>BOND
     1     1     2    2
     2     2     3    1
     3     3     4    2
     4     4     5    1
     5     5     6    2
     6     6     7    1
     7     7     8    2
     8     7     9   am
     9     9    10    1
    10    10    11    1
    11    11    12    2
    12    12    13    1
    13    13    14    2
    14    14    15    1
    15    15    16    2
    16     6    17    1
    17    17    18    2
    18    18     3    1
    19    16    11    1
@<TRIPOS>SUBSTRUCTURE
     1 RES1        1 GROUP             0 ****  ****    0  
@<TRIPOS>MOLECULE
ligand_0
    18    19     1     0     0
SMALL
NO_CHARGES
****
Generated from the CSD

@<TRIPOS>ATOM
     1 N1     -20.3690  52.7620  39.5820   N.pl3     1 RES1   0.0000
     2 C2     -21.1570  52.7170  38.6040   C.2       1 RES1   0.0000
     3 C3     -22.3210  51.8700  38.7080   C.2       1 RES1   0.0000
     4 N4     -22.4668  51.1704  39.8986   N.2       1 RES1   0.0000
     5 C5     -23.6356  50.4392  40.0568   C.2       1 RES1   0.0000
     6 C6     -24.6374  50.4300  39.0564   C.2       1 RES1   0.0000
     7 C7     -25.8573  49.5040  39.3060   C.2       1 RES1   0.0000
     8 O8     -25.6711  48.4836  40.0343   O.2       1 RES1   0.0000
     9 N9     -27.0226  49.7693  38.5938   N.am      1 RES1   0.0000
    10 C10    -28.2107  48.8801  38.5962   C.3       1 RES1   0.0000
    11 C11    -28.2397  47.8972  37.3697   C.2       1 RES1   0.0000
    12 C12    -28.3929  48.3743  36.0274   C.2       1 RES1   0.0000
    13 C13    -28.4327  47.4850  34.9215   C.2       1 RES1   0.0000
    14 C14    -28.2913  46.0847  35.1331   C.2       1 RES1   0.0000
    15 C15    -28.1352  45.5755  36.4606   C.2       1 RES1   0.0000
    16 C16    -28.1094  46.4773  37.5704   C.2       1 RES1   0.0000
    17 C17    -24.4621  51.2080  37.8654   C.2       1 RES1   0.0000
    18 N18    -23.2986  51.9104  37.7223   N.2       1 RES1   0.0000
@<TRIPOS>BOND
     1     1     2    2
     2     2     3    1
     3     3     4    2
     4     4     5    1
     5     5     6    2
     6     6     7    1
     7     7     8    2
     8     7     9   am
     9     9    10    1
    10    10    11    1
    11    11    12    2
    12    12    13    1
    13    13    14    2
    14    14    15    1
    15    15    16    2
    16     6    17    1
    17    17    18    2
    18    18     3    1
    19    16    11    1
@<TRIPOS>SUBSTRUCTURE
     1 RES1        1 GROUP             0 ****  ****    0  
@<TRIPOS>MOLECULE
ligand_1
    18    19     1     0     0
SMALL
NO_CHARGES
****
Generated from the CSD

@<TRIPOS>ATOM
     1 N1     -20.3690  52.7620  39.5820   N.pl3     1 RES1   0.0000
     2 C2     -21.1570  52.7170  38.6040   C.2       1 RES1   0.0000
     3 C3     -22.3210  51.8700  38.7080   C.2       1 RES1   0.0000
     4 N4     -22.4668  51.1704  39.8986   N.2       1 RES1   0.0000
     5 C5     -23.6356  50.4392  40.0568   C.2       1 RES1   0.0000
     6 C6     -24.6374  50.4300  39.0564   C.2       1 RES1   0.0000
     7 C7     -25.8573  49.5040  39.3060   C.2       1 RES1   0.0000
     8 O8     -25.6711  48.4836  40.0343   O.2       1 RES1   0.0000
     9 N9     -27.0226  49.7693  38.5938   N.am      1 RES1   0.0000
    10 C10    -28.2107  48.8801  38.5962   C.3       1 RES1   0.0000
    11 C11    -28.2397  47.8972  37.3697   C.2       1 RES1   0.0000
    12 C12    -27.2601  46.8639  37.2109   C.2       1 RES1   0.0000
    13 C13    -27.2789  45.9854  36.0958   C.2       1 RES1   0.0000
    14 C14    -28.3056  46.1048  35.1174   C.2       1 RES1   0.0000
    15 C15    -29.2999  47.1248  35.2467   C.2       1 RES1   0.0000
    16 C16    -29.2659  48.0141  36.3662   C.2       1 RES1   0.0000
    17 C17    -24.4621  51.2080  37.8654   C.2       1 RES1   0.0000
    18 N18    -23.2986  51.9104  37.7223   N.2       1 RES1   0.0000
@<TRIPOS>BOND
     1     1     2    2
     2     2     3    1
     3     3     4    2
     4     4     5    1
     5     5     6    2
     6     6     7    1
     7     7     8    2
     8     7     9   am
     9     9    10    1
    10    10    11    1
    11    11    12    2
    12    12    13    1
    13    13    14    2
    14    14    15    1
    15    15    16    2
    16     6    17    1
    17    17    18    2
    18    18     3    1
    19    16    11    1
@<TRIPOS>SUBSTRUCTURE
     1 RES1        1 GROUP             0 ****  ****    0  
@<TRIPOS>MOLECULE
ligand_2
    18    19     1     0     0
SMALL
NO_CHARGES
****
Generated from the CSD

@<TRIPOS>ATOM
     1 N1     -20.3690  52.7620  39.5820   N.pl3     1 RES1   0.0000
     2 C2     -21.1570  52.7170  38.6040   C.2       1 RES1   0.0000
     3 C3     -22.3210  51.8700  38.7080   C.2       1 RES1   0.0000
     4 N4     -22.4668  51.1704  39.8986   N.2       1 RES1   0.0000
     5 C5     -23.6356  50.4392  40.0568   C.2       1 RES1   0.0000
     6 C6     -24.6374  50.4300  39.0564   C.2       1 RES1   0.0000
     7 C7     -25.8573  49.5040  39.3060   C.2       1 RES1   0.0000
     8 O8     -25.6711  48.4836  40.0343   O.2       1 RES1   0.0000
     9 N9     -27.0226  49.7693  38.5938   N.am      1 RES1   0.0000
    10 C10    -28.2107  48.8801  38.5962   C.3       1 RES1   0.0000
    11 C11    -29.3017  49.3225  39.6379   C.2       1 RES1   0.0000
    12 C12    -29.0570  49.2754  41.0489   C.2       1 RES1   0.0000
    13 C13    -30.0476  49.6623  41.9894   C.2       1 RES1   0.0000
    14 C14    -31.3100  50.1360  41.5340   C.2       1 RES1   0.0000
    15 C15    -31.5862  50.1969  40.1319   C.2       1 RES1   0.0000
    16 C16    -30.5874  49.7928  39.1915   C.2       1 RES1   0.0000
    17 C17    -24.4621  51.2080  37.8654   C.2       1 RES1   0.0000
    18 N18    -23.2986  51.9104  37.7223   N.2       1 RES1   0.0000
@<TRIPOS>BOND
     1     1     2    2
     2     2     3    1
     3     3     4    2
     4     4     5    1
     5     5     6    2
     6     6     7    1
     7     7     8    2
     8     7     9   am
     9     9    10    1
    10    10    11    1
    11    11    12    2
    12    12    13    1
    13    13    14    2
    14    14    15    1
    15    15    16    2
    16     6    17    1
    17    17    18    2
    18    18     3    1
    19    16    11    1
@<TRIPOS>SUBSTRUCTURE
     1 RES1        1 GROUP             0 ****  ****    0  
@<TRIPOS>MOLECULE
ligand_3
    18    19     1     0     0
SMALL
NO_CHARGES
****
Generated from the CSD

@<TRIPOS>ATOM
     1 N1     -20.3690  52.7620  39.5820   N.pl3     1 RES1   0.0000
     2 C2     -21.1570  52.7170  38.6040   C.2       1 RES1   0.0000
     3 C3     -22.3210  51.8700  38.7080   C.2       1 RES1   0.0000
     4 N4     -22.4668  51.1704  39.8986   N.2       1 RES1   0.0000
     5 C5     -23.6356  50.4392  40.0568   C.2       1 RES1   0.0000
     6 C6     -24.6374  50.4300  39.0564   C.2       1 RES1   0.0000
     7 C7     -25.8573  49.5040  39.3060   C.2       1 RES1   0.0000
     8 O8     -25.6711  48.4836  40.0343   O.2       1 RES1   0.0000
     9 N9     -27.0226  49.7693  38.5938   N.am      1 RES1   0.0000
    10 C10    -28.2107  48.8801  38.5962   C.3       1 RES1   0.0000
    11 C11    -29.3017  49.3225  39.6379   C.2       1 RES1   0.0000
    12 C12    -30.0181  50.5554  39.4987   C.2       1 RES1   0.0000
    13 C13    -30.9934  50.9608  40.4473   C.2       1 RES1   0.0000
    14 C14    -31.2970  50.1197  41.5545   C.2       1 RES1   0.0000
    15 C15    -30.6011  48.8814  41.7223   C.2       1 RES1   0.0000
    16 C16    -29.6106  48.4867  40.7692   C.2       1 RES1   0.0000
    17 C17    -24.4621  51.2080  37.8654   C.2       1 RES1   0.0000
    18 N18    -23.2986  51.9104  37.7223   N.2       1 RES1   0.0000
@<TRIPOS>BOND
     1     1     2    2
     2     2     3    1
     3     3     4    2
     4     4     5    1
     5     5     6    2
     6     6     7    1
     7     7     8    2
     8     7     9   am
     9     9    10    1
    10    10    11    1
    11    11    12    2
    12    12    13    1
    13    13    14    2
    14    14    15    1
    15    15    16    2
    16     6    17    1
    17    17    18    2
    18    18     3    1
    19    16    11    1
@<TRIPOS>SUBSTRUCTURE
     1 RES1        1 GROUP             0 ****  ****    0  
@<TRIPOS>MOLECULE
ligand_4
    18    19     1     0     0
SMALL
NO_CHARGES
****
Generated from the CSD

@<TRIPOS>ATOM
     1 N1     -20.3690  52.7620  39.5820   N.pl3     1 RES1   0.0000
     2 C2     -21.1570  52.7170  38.6040   C.2       1 RES1   0.0000
     3 C3     -22.3210  51.8700  38.7080   C.2       1 RES1   0.0000
     4 N4     -22.4668  51.1704  39.8986   N.2       1 RES1   0.0000
     5 C5     -23.6356  50.4392  40.0568   C.2       1 RES1   0.0000
     6 C6     -24.6374  50.4300  39.0564   C.2       1 RES1   0.0000
     7 C7     -25.8573  49.5040  39.3060   C.2       1 RES1   0.0000
     8 O8     -26.1546  49.2491  40.5114   O.2       1 RES1   0.0000
     9 N9     -26.4413  48.8971  38.1987   N.am      1 RES1   0.0000
    10 C10    -27.5000  47.8609  38.2892   C.3       1 RES1   0.0000
    11 C11    -26.9305  46.3981  38.2067   C.2       1 RES1   0.0000
    12 C12    -26.3114  45.8983  37.0152   C.2       1 RES1   0.0000
    13 C13    -25.8096  44.5726  36.9370   C.2       1 RES1   0.0000
    14 C14    -25.8922  43.7160  38.0706   C.2       1 RES1   0.0000
    15 C15    -26.5030  44.1842  39.2762   C.2       1 RES1   0.0000
    16 C16    -27.0178  45.5169  39.3422   C.2       1 RES1   0.0000
    17 C17    -24.4621  51.2080  37.8654   C.2       1 RES1   0.0000
    18 N18    -23.2986  51.9104  37.7223   N.2       1 RES1   0.0000
@<TRIPOS>BOND
     1     1     2    2
     2     2     3    1
     3     3     4    2
     4     4     5    1
     5     5     6    2
     6     6     7    1
     7     7     8    2
     8     7     9   am
     9     9    10    1
    10    10    11    1
    11    11    12    2
    12    12    13    1
    13    13    14    2
    14    14    15    1
    15    15    16    2
    16     6    17    1
    17    17    18    2
    18    18     3    1
    19    16    11    1
@<TRIPOS>SUBSTRUCTURE
     1 RES1        1 GROUP             0 ****  ****    0  
@<TRIPOS>MOLECULE
ligand_5
    18    19     1     0     0
SMALL
NO_CHARGES
****
Generated from the CSD

@<TRIPOS>ATOM
     1 N1     -20.3690  52.7620  39.5820   N.pl3     1 RES1   0.0000
     2 C2     -21.1570  52.7170  38.6040   C.2       1 RES1   0.0000
     3 C3     -22.3210  51.8700  38.7080   C.2       1 RES1   0.0000
     4 N4     -22.4668  51.1704  39.8986   N.2       1 RES1   0.0000
     5 C5     -23.6356  50.4392  40.0568   C.2       1 RES1   0.0000
     6 C6     -24.6374  50.4300  39.0564   C.2       1 RES1   0.0000
     7 C7     -25.8573  49.5040  39.3060   C.2       1 RES1   0.0000
     8 O8     -26.1546  49.2491  40.5114   O.2       1 RES1   0.0000
     9 N9     -26.4413  48.8971  38.1987   N.am      1 RES1   0.0000
    10 C10    -27.5000  47.8609  38.2892   C.3       1 RES1   0.0000
    11 C11    -26.9305  46.3981  38.2067   C.2       1 RES1   0.0000
    12 C12    -26.0855  45.8612  39.2317   C.2       1 RES1   0.0000
    13 C13    -25.5605  44.5447  39.1497   C.2       1 RES1   0.0000
    14 C14    -25.8946  43.7167  38.0414   C.2       1 RES1   0.0000
    15 C15    -26.7370  44.2215  37.0015   C.2       1 RES1   0.0000
    16 C16    -27.2510  45.5534  37.0853   C.2       1 RES1   0.0000
    17 C17    -24.4621  51.2080  37.8654   C.2       1 RES1   0.0000
    18 N18    -23.2986  51.9104  37.7223   N.2       1 RES1   0.0000
@<TRIPOS>BOND
     1     1     2    2
     2     2     3    1
     3     3     4    2
     4     4     5    1
     5     5     6    2
     6     6     7    1
     7     7     8    2
     8     7     9   am
     9     9    10    1
    10    10    11    1
    11    11    12    2
    12    12    13    1
    13    13    14    2
    14    14    15    1
    15    15    16    2
    16     6    17    1
    17    17    18    2
    18    18     3    1
    19    16    11    1
@<TRIPOS>SUBSTRUCTURE
     1 RES1        1 GROUP             0 ****  ****    0  
@<TRIPOS>MOLECULE
ligand_6
    18    19     1     0     0
SMALL
NO_CHARGES
****
Generated from the CSD

@<TRIPOS>ATOM
     1 N1     -20.3690  52.7620  39.5820   N.pl3     1 RES1   0.0000
     2 C2     -21.1570  52.7170  38.6040   C.2       1 RES1   0.0000
     3 C3     -22.3210  51.8700  38.7080   C.2       1 RES1   0.0000
     4 N4     -22.4668  51.1704  39.8986   N.2       1 RES1   0.0000
     5 C5     -23.6356  50.4392  40.0568   C.2       1 RES1   0.0000
     6 C6     -24.6374  50.4300  39.0564   C.2       1 RES1   0.0000
     7 C7     -25.8573  49.5040  39.3060   C.2       1 RES1   0.0000
     8 O8     -26.1546  49.2491  40.5114   O.2       1 RES1   0.0000
     9 N9     -26.4413  48.8971  38.1987   N.am      1 RES1   0.0000
    10 C10    -27.5000  47.8609  38.2892   C.3       1 RES1   0.0000
    11 C11    -28.9484  48.4544  38.1440   C.2       1 RES1   0.0000
    12 C12    -29.4999  49.3405  39.1255   C.2       1 RES1   0.0000
    13 C13    -30.8131  49.8651  39.0004   C.2       1 RES1   0.0000
    14 C14    -31.6032  49.5331  37.8642   C.2       1 RES1   0.0000
    15 C15    -31.0821  48.6522  36.8650   C.2       1 RES1   0.0000
    16 C16    -29.7631  48.1176  37.0053   C.2       1 RES1   0.0000
    17 C17    -24.4621  51.2080  37.8654   C.2       1 RES1   0.0000
    18 N18    -23.2986  51.9104  37.7223   N.2       1 RES1   0.0000
@<TRIPOS>BOND
     1     1     2    2
     2     2     3    1
     3     3     4    2
     4     4     5    1
     5     5     6    2
     6     6     7    1
     7     7     8    2
     8     7     9   am
     9     9    10    1
    10    10    11    1
    11    11    12    2
    12    12    13    1
    13    13    14    2
    14    14    15    1
    15    15    16    2
    16     6    17    1
    17    17    18    2
    18    18     3    1
    19    16    11    1
@<TRIPOS>SUBSTRUCTURE
     1 RES1        1 GROUP             0 ****  ****    0  
@<TRIPOS>MOLECULE
ligand_7
    18    19     1     0     0
SMALL
NO_CHARGES
****
Generated from the CSD

@<TRIPOS>ATOM
     1 N1     -20.3690  52.7620  39.5820   N.pl3     1 RES1   0.0000
     2 C2     -21.1570  52.7170  38.6040   C.2       1 RES1   0.0000
     3 C3     -22.3210  51.8700  38.7080   C.2       1 RES1   0.0000
     4 N4     -22.4668  51.1704  39.8986   N.2       1 RES1   0.0000
     5 C5     -23.6356  50.4392  40.0568   C.2       1 RES1   0.0000
     6 C6     -24.6374  50.4300  39.0564   C.2       1 RES1   0.0000
     7 C7     -25.8573  49.5040  39.3060   C.2       1 RES1   0.0000
     8 O8     -26.1546  49.2491  40.5114   O.2       1 RES1   0.0000
     9 N9     -26.4413  48.8971  38.1987   N.am      1 RES1   0.0000
    10 C10    -27.5000  47.8609  38.2892   C.3       1 RES1   0.0000
    11 C11    -28.9484  48.4544  38.1440   C.2       1 RES1   0.0000
    12 C12    -29.3995  49.0452  36.9192   C.2       1 RES1   0.0000
    13 C13    -30.7031  49.5932  36.7930   C.2       1 RES1   0.0000
    14 C14    -31.6043  49.5376  37.8931   C.2       1 RES1   0.0000
    15 C15    -31.1860  48.9531  39.1298   C.2       1 RES1   0.0000
    16 C16    -29.8666  48.4152  39.2526   C.2       1 RES1   0.0000
    17 C17    -24.4621  51.2080  37.8654   C.2       1 RES1   0.0000
    18 N18    -23.2986  51.9104  37.7223   N.2       1 RES1   0.0000
@<TRIPOS>BOND
     1     1     2    2
     2     2     3    1
     3     3     4    2
     4     4     5    1
     5     5     6    2
     6     6     7    1
     7     7     8    2
     8     7     9   am
     9     9    10    1
    10    10    11    1
    11    11    12    2
    12    12    13    1
    13    13    14    2
    14    14    15    1
    15    15    16    2
    16     6    17    1
    17    17    18    2
    18    18     3    1
    19    16    11    1
@<TRIPOS>SUBSTRUCTURE
     1 RES1        1 GROUP             0 ****  ****    0  
@<TRIPOS>MOLECULE
ligand_8
    18    19     1     0     0
SMALL
NO_CHARGES
****
Generated from the CSD

@<TRIPOS>ATOM
     1 N1     -20.3627  52.7519  39.5754   N.pl3     1 RES1   0.0000
     2 C2     -21.1561  52.7151  38.6014   C.2       1 RES1   0.0000
     3 C3     -22.3208  51.8691  38.7057   C.2       1 RES1   0.0000
     4 N4     -22.4611  51.1612  39.8920   N.2       1 RES1   0.0000
     5 C5     -23.6301  50.4305  40.0514   C.2       1 RES1   0.0000
     6 C6     -24.6374  50.4300  39.0564   C.2       1 RES1   0.0000
     7 C7     -25.8573  49.5040  39.3060   C.2       1 RES1   0.0000
     8 O8     -26.4715  49.0671  38.2871   O.2       1 RES1   0.0000
     9 N9     -26.2846  49.3433  40.6202   N.am      1 RES1   0.0000
    10 C10    -27.5279  48.6281  41.0012   C.3       1 RES1   0.0000
    11 C11    -28.7475  49.5965  41.2151   C.2       1 RES1   0.0000
    12 C12    -28.7716  50.5507  42.2836   C.2       1 RES1   0.0000
    13 C13    -29.8794  51.4155  42.4843   C.2       1 RES1   0.0000
    14 C14    -30.9889  51.3635  41.5945   C.2       1 RES1   0.0000
    15 C15    -30.9961  50.4234  40.5166   C.2       1 RES1   0.0000
    16 C16    -29.8818  49.5466  40.3293   C.2       1 RES1   0.0000
    17 C17    -24.4675  51.2163  37.8701   C.2       1 RES1   0.0000
    18 N18    -23.3037  51.9181  37.7257   N.2       1 RES1   0.0000
@<TRIPOS>BOND
     1     1     2    2
     2     2     3    1
     3     3     4    2
     4     4     5    1
     5     5     6    2
     6     6     7    1
     7     7     8    2
     8     7     9   am
     9     9    10    1
    10    10    11    1
    11    11    12    2
    12    12    13    1
    13    13    14    2
    14    14    15    1
    15    15    16    2
    16     6    17    1
    17    17    18    2
    18    18     3    1
    19    16    11    1
@<TRIPOS>SUBSTRUCTURE
     1 RES1        1 GROUP             0 ****  ****    0  
@<TRIPOS>MOLECULE
ligand_9
    18    19     1     0     0
SMALL
NO_CHARGES
****
Generated from the CSD

@<TRIPOS>ATOM
     1 N1     -20.3627  52.7519  39.5754   N.pl3     1 RES1   0.0000
     2 C2     -21.1561  52.7151  38.6014   C.2       1 RES1   0.0000
     3 C3     -22.3208  51.8691  38.7057   C.2       1 RES1   0.0000
     4 N4     -22.4611  51.1612  39.8920   N.2       1 RES1   0.0000
     5 C5     -23.6301  50.4305  40.0514   C.2       1 RES1   0.0000
     6 C6     -24.6374  50.4300  39.0564   C.2       1 RES1   0.0000
     7 C7     -25.8573  49.5040  39.3060   C.2       1 RES1   0.0000
     8 O8     -26.4715  49.0671  38.2871   O.2       1 RES1   0.0000
     9 N9     -26.2846  49.3433  40.6202   N.am      1 RES1   0.0000
    10 C10    -27.5279  48.6281  41.0012   C.3       1 RES1   0.0000
    11 C11    -28.7475  49.5965  41.2151   C.2       1 RES1   0.0000
    12 C12    -29.3126  50.3448  40.1318   C.2       1 RES1   0.0000
    13 C13    -30.4053  51.2295  40.3285   C.2       1 RES1   0.0000
    14 C14    -30.9814  51.3667  41.6226   C.2       1 RES1   0.0000
    15 C15    -30.4423  50.6329  42.7256   C.2       1 RES1   0.0000
    16 C16    -29.3328  49.7538  42.5214   C.2       1 RES1   0.0000
    17 C17    -24.4675  51.2163  37.8701   C.2       1 RES1   0.0000
    18 N18    -23.3037  51.9181  37.7257   N.2       1 RES1   0.0000
@<TRIPOS>BOND
     1     1     2    2
     2     2     3    1
     3     3     4    2
     4     4     5    1
     5     5     6    2
     6     6     7    1
     7     7     8    2
     8     7     9   am
     9     9    10    1
    10    10    11    1
    11    11    12    2
    12    12    13    1
    13    13    14    2
    14    14    15    1
    15    15    16    2
    16     6    17    1
    17    17    18    2
    18    18     3    1
    19    16    11    1
@<TRIPOS>SUBSTRUCTURE
     1 RES1        1 GROUP             0 ****  ****    0  
@<TRIPOS>MOLECULE
ligand_10
    18    19     1     0     0
SMALL
NO_CHARGES
****
Generated from the CSD

@<TRIPOS>ATOM
     1 N1     -20.3627  52.7519  39.5754   N.pl3     1 RES1   0.0000
     2 C2     -21.1561  52.7151  38.6014   C.2       1 RES1   0.0000
     3 C3     -22.3208  51.8691  38.7057   C.2       1 RES1   0.0000
     4 N4     -22.4611  51.1612  39.8920   N.2       1 RES1   0.0000
     5 C5     -23.6301  50.4305  40.0514   C.2       1 RES1   0.0000
     6 C6     -24.6374  50.4300  39.0564   C.2       1 RES1   0.0000
     7 C7     -25.8573  49.5040  39.3060   C.2       1 RES1   0.0000
     8 O8     -26.4715  49.0671  38.2871   O.2       1 RES1   0.0000
     9 N9     -26.2846  49.3433  40.6202   N.am      1 RES1   0.0000
    10 C10    -27.5279  48.6281  41.0012   C.3       1 RES1   0.0000
    11 C11    -27.2727  47.1272  41.3927   C.2       1 RES1   0.0000
    12 C12    -26.8171  46.1666  40.4322   C.2       1 RES1   0.0000
    13 C13    -26.6000  44.8083  40.7834   C.2       1 RES1   0.0000
    14 C14    -26.8100  44.3812  42.1246   C.2       1 RES1   0.0000
    15 C15    -27.2633  45.3151  43.1085   C.2       1 RES1   0.0000
    16 C16    -27.4923  46.6788  42.7434   C.2       1 RES1   0.0000
    17 C17    -24.4675  51.2163  37.8701   C.2       1 RES1   0.0000
    18 N18    -23.3037  51.9181  37.7257   N.2       1 RES1   0.0000
@<TRIPOS>BOND
     1     1     2    2
     2     2     3    1
     3     3     4    2
     4     4     5    1
     5     5     6    2
     6     6     7    1
     7     7     8    2
     8     7     9   am
     9     9    10    1
    10    10    11    1
    11    11    12    2
    12    12    13    1
    13    13    14    2
    14    14    15    1
    15    15    16    2
    16     6    17    1
    17    17    18    2
    18    18     3    1
    19    16    11    1
@<TRIPOS>SUBSTRUCTURE
     1 RES1        1 GROUP             0 ****  ****    0  
@<TRIPOS>MOLECULE
ligand_11
    18    19     1     0     0
SMALL
NO_CHARGES
****
Generated from the CSD

@<TRIPOS>ATOM
     1 N1     -20.3627  52.7519  39.5754   N.pl3     1 RES1   0.0000
     2 C2     -21.1561  52.7151  38.6014   C.2       1 RES1   0.0000
     3 C3     -22.3208  51.8691  38.7057   C.2       1 RES1   0.0000
     4 N4     -22.4611  51.1612  39.8920   N.2       1 RES1   0.0000
     5 C5     -23.6301  50.4305  40.0514   C.2       1 RES1   0.0000
     6 C6     -24.6374  50.4300  39.0564   C.2       1 RES1   0.0000
     7 C7     -25.8573  49.5040  39.3060   C.2       1 RES1   0.0000
     8 O8     -26.4715  49.0671  38.2871   O.2       1 RES1   0.0000
     9 N9     -26.2846  49.3433  40.6202   N.am      1 RES1   0.0000
    10 C10    -27.5279  48.6281  41.0012   C.3       1 RES1   0.0000
    11 C11    -27.2727  47.1272  41.3927   C.2       1 RES1   0.0000
    12 C12    -26.5145  46.7717  42.5553   C.2       1 RES1   0.0000
    13 C13    -26.2730  45.4160  42.9005   C.2       1 RES1   0.0000
    14 C14    -26.8133  44.3734  42.0966   C.2       1 RES1   0.0000
    15 C15    -27.5761  44.6937  40.9299   C.2       1 RES1   0.0000
    16 C16    -27.8037  46.0621  40.5819   C.2       1 RES1   0.0000
    17 C17    -24.4675  51.2163  37.8701   C.2       1 RES1   0.0000
    18 N18    -23.3037  51.9181  37.7257   N.2       1 RES1   0.0000
@<TRIPOS>BOND
     1     1     2    2
     2     2     3    1
     3     3     4    2
     4     4     5    1
     5     5     6    2
     6     6     7    1
     7     7     8    2
     8     7     9   am
     9     9    10    1
    10    10    11    1
    11    11    12    2
    12    12    13    1
    13    13    14    2
    14    14    15    1
    15    15    16    2
    16     6    17    1
    17    17    18    2
    18    18     3    1
    19    16    11    1
@<TRIPOS>SUBSTRUCTURE
     1 RES1        1 GROUP             0 ****  ****    0  
@<TRIPOS>MOLECULE
ligand_12
    18    19     1     0     0
SMALL
NO_CHARGES
****
Generated from the CSD

@<TRIPOS>ATOM
     1 N1     -20.3964  52.8054  39.6090   N.pl3     1 RES1   0.0000
     2 C2     -21.1610  52.7252  38.6148   C.2       1 RES1   0.0000
     3 C3     -22.3221  51.8740  38.7177   C.2       1 RES1   0.0000
     4 N4     -22.4916  51.2104  39.9256   N.2       1 RES1   0.0000
     5 C5     -23.6594  50.4765  40.0791   C.2       1 RES1   0.0000
     6 C6     -24.6374  50.4300  39.0564   C.2       1 RES1   0.0000
     7 C7     -25.8573  49.5040  39.3060   C.2       1 RES1   0.0000
     8 O8     -26.9549  49.8325  38.7642   O.2       1 RES1   0.0000
     9 N9     -25.7033  48.4711  40.2252   N.am      1 RES1   0.0000
    10 C10    -26.8233  47.6293  40.7145   C.3       1 RES1   0.0000
    11 C11    -27.4124  48.1326  42.0823   C.2       1 RES1   0.0000
    12 C12    -26.6419  48.1011  43.2899   C.2       1 RES1   0.0000
    13 C13    -27.1793  48.5431  44.5273   C.2       1 RES1   0.0000
    14 C14    -28.5052  49.0577  44.5803   C.2       1 RES1   0.0000
    15 C15    -29.3008  49.1045  43.3926   C.2       1 RES1   0.0000
    16 C16    -28.7563  48.6449  42.1526   C.2       1 RES1   0.0000
    17 C17    -24.4389  51.1722  37.8464   C.2       1 RES1   0.0000
    18 N18    -23.2765  51.8777  37.7088   N.2       1 RES1   0.0000
@<TRIPOS>BOND
     1     1     2    2
     2     2     3    1
     3     3     4    2
     4     4     5    1
     5     5     6    2
     6     6     7    1
     7     7     8    2
     8     7     9   am
     9     9    10    1
    10    10    11    1
    11    11    12    2
    12    12    13    1
    13    13    14    2
    14    14    15    1
    15    15    16    2
    16     6    17    1
    17    17    18    2
    18    18     3    1
    19    16    11    1
@<TRIPOS>SUBSTRUCTURE
     1 RES1        1 GROUP             0 ****  ****    0  
@<TRIPOS>MOLECULE
ligand_13
    18    19     1     0     0
SMALL
NO_CHARGES
****
Generated from the CSD

@<TRIPOS>ATOM
     1 N1     -20.3964  52.8054  39.6090   N.pl3     1 RES1   0.0000
     2 C2     -21.1610  52.7252  38.6148   C.2       1 RES1   0.0000
     3 C3     -22.3221  51.8740  38.7177   C.2       1 RES1   0.0000
     4 N4     -22.4916  51.2104  39.9256   N.2       1 RES1   0.0000
     5 C5     -23.6594  50.4765  40.0791   C.2       1 RES1   0.0000
     6 C6     -24.6374  50.4300  39.0564   C.2       1 RES1   0.0000
     7 C7     -25.8573  49.5040  39.3060   C.2       1 RES1   0.0000
     8 O8     -26.9549  49.8325  38.7642   O.2       1 RES1   0.0000
     9 N9     -25.7033  48.4711  40.2252   N.am      1 RES1   0.0000
    10 C10    -26.8233  47.6293  40.7145   C.3       1 RES1   0.0000
    11 C11    -27.4124  48.1326  42.0823   C.2       1 RES1   0.0000
    12 C12    -28.0905  49.3899  42.1918   C.2       1 RES1   0.0000
    13 C13    -28.6101  49.8500  43.4302   C.2       1 RES1   0.0000
    14 C14    -28.4857  49.0413  44.5947   C.2       1 RES1   0.0000
    15 C15    -27.8156  47.7799  44.5197   C.2       1 RES1   0.0000
    16 C16    -27.2834  47.3298  43.2708   C.2       1 RES1   0.0000
    17 C17    -24.4389  51.1722  37.8464   C.2       1 RES1   0.0000
    18 N18    -23.2765  51.8777  37.7088   N.2       1 RES1   0.0000
@<TRIPOS>BOND
     1     1     2    2
     2     2     3    1
     3     3     4    2
     4     4     5    1
     5     5     6    2
     6     6     7    1
     7     7     8    2
     8     7     9   am
     9     9    10    1
    10    10    11    1
    11    11    12    2
    12    12    13    1
    13    13    14    2
    14    14    15    1
    15    15    16    2
    16     6    17    1
    17    17    18    2
    18    18     3    1
    19    16    11    1
@<TRIPOS>SUBSTRUCTURE
     1 RES1        1 GROUP             0 ****  ****    0  
@<TRIPOS>MOLECULE
ligand_14
    18    19     1     0     0
SMALL
NO_CHARGES
****
Generated from the CSD

@<TRIPOS>ATOM
     1 N1     -20.3964  52.8054  39.6090   N.pl3     1 RES1   0.0000
     2 C2     -21.1610  52.7252  38.6148   C.2       1 RES1   0.0000
     3 C3     -22.3221  51.8740  38.7177   C.2       1 RES1   0.0000
     4 N4     -22.4916  51.2104  39.9256   N.2       1 RES1   0.0000
     5 C5     -23.6594  50.4765  40.0791   C.2       1 RES1   0.0000
     6 C6     -24.6374  50.4300  39.0564   C.2       1 RES1   0.0000
     7 C7     -25.8573  49.5040  39.3060   C.2       1 RES1   0.0000
     8 O8     -26.9549  49.8325  38.7642   O.2       1 RES1   0.0000
     9 N9     -25.7033  48.4711  40.2252   N.am      1 RES1   0.0000
    10 C10    -26.8233  47.6293  40.7145   C.3       1 RES1   0.0000
    11 C11    -26.9620  46.2782  39.9230   C.2       1 RES1   0.0000
    12 C12    -27.3284  46.2523  38.5381   C.2       1 RES1   0.0000
    13 C13    -27.4668  45.0310  37.8276   C.2       1 RES1   0.0000
    14 C14    -27.2124  43.7955  38.4865   C.2       1 RES1   0.0000
    15 C15    -26.8432  43.7861  39.8683   C.2       1 RES1   0.0000
    16 C16    -26.7189  45.0202  40.5803   C.2       1 RES1   0.0000
    17 C17    -24.4389  51.1722  37.8464   C.2       1 RES1   0.0000
    18 N18    -23.2765  51.8777  37.7088   N.2       1 RES1   0.0000
@<TRIPOS>BOND
     1     1     2    2
     2     2     3    1
     3     3     4    2
     4     4     5    1
     5     5     6    2
     6     6     7    1
     7     7     8    2
     8     7     9   am
     9     9    10    1
    10    10    11    1
    11    11    12    2
    12    12    13    1
    13    13    14    2
    14    14    15    1
    15    15    16    2
    16     6    17    1
    17    17    18    2
    18    18     3    1
    19    16    11    1
@<TRIPOS>SUBSTRUCTURE
     1 RES1        1 GROUP             0 ****  ****    0  
@<TRIPOS>MOLECULE
ligand_15
    18    19     1     0     0
SMALL
NO_CHARGES
****
Generated from the CSD

@<TRIPOS>ATOM
     1 N1     -20.3964  52.8054  39.6090   N.pl3     1 RES1   0.0000
     2 C2     -21.1610  52.7252  38.6148   C.2       1 RES1   0.0000
     3 C3     -22.3221  51.8740  38.7177   C.2       1 RES1   0.0000
     4 N4     -22.4916  51.2104  39.9256   N.2       1 RES1   0.0000
     5 C5     -23.6594  50.4765  40.0791   C.2       1 RES1   0.0000
     6 C6     -24.6374  50.4300  39.0564   C.2       1 RES1   0.0000
     7 C7     -25.8573  49.5040  39.3060   C.2       1 RES1   0.0000
     8 O8     -26.9549  49.8325  38.7642   O.2       1 RES1   0.0000
     9 N9     -25.7033  48.4711  40.2252   N.am      1 RES1   0.0000
    10 C10    -26.8233  47.6293  40.7145   C.3       1 RES1   0.0000
    11 C11    -26.9620  46.2782  39.9230   C.2       1 RES1   0.0000
    12 C12    -25.9527  45.2632  39.9853   C.2       1 RES1   0.0000
    13 C13    -26.0723  44.0491  39.2593   C.2       1 RES1   0.0000
    14 C14    -27.2299  43.8086  38.4672   C.2       1 RES1   0.0000
    15 C15    -28.2570  44.8006  38.3844   C.2       1 RES1   0.0000
    16 C16    -28.1225  46.0266  39.1084   C.2       1 RES1   0.0000
    17 C17    -24.4389  51.1722  37.8464   C.2       1 RES1   0.0000
    18 N18    -23.2765  51.8777  37.7088   N.2       1 RES1   0.0000
@<TRIPOS>BOND
     1     1     2    2
     2     2     3    1
     3     3     4    2
     4     4     5    1
     5     5     6    2
     6     6     7    1
     7     7     8    2
     8     7     9   am
     9     9    10    1
    10    10    11    1
    11    11    12    2
    12    12    13    1
    13    13    14    2
    14    14    15    1
    15    15    16    2
    16     6    17    1
    17    17    18    2
    18    18     3    1
    19    16    11    1
@<TRIPOS>SUBSTRUCTURE
     1 RES1        1 GROUP             0 ****  ****    0  
@<TRIPOS>MOLECULE
ligand_16
    18    19     1     0     0
SMALL
NO_CHARGES
****
Generated from the CSD

@<TRIPOS>ATOM
     1 N1     -20.3690  52.7620  39.5820   N.pl3     1 RES1   0.0000
     2 C2     -21.1570  52.7170  38.6040   C.2       1 RES1   0.0000
     3 C3     -22.3210  51.8700  38.7080   C.2       1 RES1   0.0000
     4 N4     -22.4668  51.1704  39.8986   N.2       1 RES1   0.0000
     5 C5     -23.6356  50.4392  40.0568   C.2       1 RES1   0.0000
     6 C6     -24.6374  50.4300  39.0564   C.2       1 RES1   0.0000
     7 C7     -25.8573  49.5040  39.3060   C.2       1 RES1   0.0000
     8 O8     -25.6711  48.4836  40.0343   O.2       1 RES1   0.0000
     9 N9     -27.0226  49.7693  38.5938   N.am      1 RES1   0.0000
    10 C10    -28.2107  48.8801  38.5962   C.3       1 RES1   0.0000
    11 C11    -28.2397  47.8972  37.3697   C.2       1 RES1   0.0000
    12 C12    -27.3135  48.0225  36.2838   C.2       1 RES1   0.0000
    13 C13    -27.3491  47.1429  35.1699   C.2       1 RES1   0.0000
    14 C14    -28.3053  46.0896  35.1296   C.2       1 RES1   0.0000
    15 C15    -29.2435  45.9357  36.1982   C.2       1 RES1   0.0000
    16 C16    -29.2093  46.8342  37.3103   C.2       1 RES1   0.0000
    17 C17    -24.4621  51.2080  37.8654   C.2       1 RES1   0.0000
    18 N18    -23.2986  51.9104  37.7223   N.2       1 RES1   0.0000
@<TRIPOS>BOND
     1     1     2    2
     2     2     3    1
     3     3     4    2
     4     4     5    1
     5     5     6    2
     6     6     7    1
     7     7     8    2
     8     7     9   am
     9     9    10    1
    10    10    11    1
    11    11    12    2
    12    12    13    1
    13    13    14    2
    14    14    15    1
    15    15    16    2
    16     6    17    1
    17    17    18    2
    18    18     3    1
    19    16    11    1
@<TRIPOS>SUBSTRUCTURE
     1 RES1        1 GROUP             0 ****  ****    0  
@<TRIPOS>MOLECULE
ligand_17
    18    19     1     0     0
SMALL
NO_CHARGES
****
Generated from the CSD

@<TRIPOS>ATOM
     1 N1     -20.3690  52.7620  39.5820   N.pl3     1 RES1   0.0000
     2 C2     -21.1570  52.7170  38.6040   C.2       1 RES1   0.0000
     3 C3     -22.3210  51.8700  38.7080   C.2       1 RES1   0.0000
     4 N4     -22.4668  51.1704  39.8986   N.2       1 RES1   0.0000
     5 C5     -23.6356  50.4392  40.0568   C.2       1 RES1   0.0000
     6 C6     -24.6374  50.4300  39.0564   C.2       1 RES1   0.0000
     7 C7     -25.8573  49.5040  39.3060   C.2       1 RES1   0.0000
     8 O8     -25.6711  48.4836  40.0343   O.2       1 RES1   0.0000
     9 N9     -27.0226  49.7693  38.5938   N.am      1 RES1   0.0000
    10 C10    -28.2107  48.8801  38.5962   C.3       1 RES1   0.0000
    11 C11    -29.3017  49.3225  39.6379   C.2       1 RES1   0.0000
    12 C12    -29.0468  50.3504  40.6029   C.2       1 RES1   0.0000
    13 C13    -30.0279  50.7399  41.5522   C.2       1 RES1   0.0000
    14 C14    -31.3099  50.1220  41.5401   C.2       1 RES1   0.0000
    15 C15    -31.5976  49.0933  40.5888   C.2       1 RES1   0.0000
    16 C16    -30.5990  48.6976  39.6445   C.2       1 RES1   0.0000
    17 C17    -24.4621  51.2080  37.8654   C.2       1 RES1   0.0000
    18 N18    -23.2986  51.9104  37.7223   N.2       1 RES1   0.0000
@<TRIPOS>BOND
     1     1     2    2
     2     2     3    1
     3     3     4    2
     4     4     5    1
     5     5     6    2
     6     6     7    1
     7     7     8    2
     8     7     9   am
     9     9    10    1
    10    10    11    1
    11    11    12    2
    12    12    13    1
    13    13    14    2
    14    14    15    1
    15    15    16    2
    16     6    17    1
    17    17    18    2
    18    18     3    1
    19    16    11    1
@<TRIPOS>SUBSTRUCTURE
     1 RES1        1 GROUP             0 ****  ****    0  
@<TRIPOS>MOLECULE
ligand_18
    18    19     1     0     0
SMALL
NO_CHARGES
****
Generated from the CSD

@<TRIPOS>ATOM
     1 N1     -20.3690  52.7620  39.5820   N.pl3     1 RES1   0.0000
     2 C2     -21.1570  52.7170  38.6040   C.2       1 RES1   0.0000
     3 C3     -22.3210  51.8700  38.7080   C.2       1 RES1   0.0000
     4 N4     -22.4668  51.1704  39.8986   N.2       1 RES1   0.0000
     5 C5     -23.6356  50.4392  40.0568   C.2       1 RES1   0.0000
     6 C6     -24.6374  50.4300  39.0564   C.2       1 RES1   0.0000
     7 C7     -25.8573  49.5040  39.3060   C.2       1 RES1   0.0000
     8 O8     -26.1546  49.2491  40.5114   O.2       1 RES1   0.0000
     9 N9     -26.4413  48.8971  38.1987   N.am      1 RES1   0.0000
    10 C10    -27.5000  47.8609  38.2892   C.3       1 RES1   0.0000
    11 C11    -26.9305  46.3981  38.2067   C.2       1 RES1   0.0000
    12 C12    -25.5613  46.1420  37.8711   C.2       1 RES1   0.0000
    13 C13    -25.0512  44.8201  37.7834   C.2       1 RES1   0.0000
    14 C14    -25.9018  43.7129  38.0591   C.2       1 RES1   0.0000
    15 C15    -27.2736  43.9337  38.3985   C.2       1 RES1   0.0000
    16 C16    -27.7829  45.2681  38.4718   C.2       1 RES1   0.0000
    17 C17    -24.4621  51.2080  37.8654   C.2       1 RES1   0.0000
    18 N18    -23.2986  51.9104  37.7223   N.2       1 RES1   0.0000
@<TRIPOS>BOND
     1     1     2    2
     2     2     3    1
     3     3     4    2
     4     4     5    1
     5     5     6    2
     6     6     7    1
     7     7     8    2
     8     7     9   am
     9     9    10    1
    10    10    11    1
    11    11    12    2
    12    12    13    1
    13    13    14    2
    14    14    15    1
    15    15    16    2
    16     6    17    1
    17    17    18    2
    18    18     3    1
    19    16    11    1
@<TRIPOS>SUBSTRUCTURE
     1 RES1        1 GROUP             0 ****  ****    0  
@<TRIPOS>MOLECULE
ligand_19
    18    19     1     0     0
SMALL
NO_CHARGES
****
Generated from the CSD

@<TRIPOS>ATOM
     1 N1     -20.3690  52.7620  39.5820   N.pl3     1 RES1   0.0000
     2 C2     -21.1570  52.7170  38.6040   C.2       1 RES1   0.0000
     3 C3     -22.3210  51.8700  38.7080   C.2       1 RES1   0.0000
     4 N4     -22.4668  51.1704  39.8986   N.2       1 RES1   0.0000
     5 C5     -23.6356  50.4392  40.0568   C.2       1 RES1   0.0000
     6 C6     -24.6374  50.4300  39.0564   C.2       1 RES1   0.0000
     7 C7     -25.8573  49.5040  39.3060   C.2       1 RES1   0.0000
     8 O8     -26.1546  49.2491  40.5114   O.2       1 RES1   0.0000
     9 N9     -26.4413  48.8971  38.1987   N.am      1 RES1   0.0000
    10 C10    -27.5000  47.8609  38.2892   C.3       1 RES1   0.0000
    11 C11    -28.9484  48.4544  38.1440   C.2       1 RES1   0.0000
    12 C12    -29.1848  49.8675  38.1368   C.2       1 RES1   0.0000
    13 C13    -30.4946  50.4024  38.0193   C.2       1 RES1   0.0000
    14 C14    -31.6072  49.5264  37.8774   C.2       1 RES1   0.0000
    15 C15    -31.4059  48.1104  37.8792   C.2       1 RES1   0.0000
    16 C16    -30.0845  47.5795  38.0113   C.2       1 RES1   0.0000
    17 C17    -24.4621  51.2080  37.8654   C.2       1 RES1   0.0000
    18 N18    -23.2986  51.9104  37.7223   N.2       1 RES1   0.0000
@<TRIPOS>BOND
     1     1     2    2
     2     2     3    1
     3     3     4    2
     4     4     5    1
     5     5     6    2
     6     6     7    1
     7     7     8    2
     8     7     9   am
     9     9    10    1
    10    10    11    1
    11    11    12    2
    12    12    13    1
    13    13    14    2
    14    14    15    1
    15    15    16    2
    16     6    17    1
    17    17    18    2
    18    18     3    1
    19    16    11    1
@<TRIPOS>SUBSTRUCTURE
     1 RES1        1 GROUP             0 ****  ****    0  
@<TRIPOS>MOLECULE
ligand_20
    18    19     1     0     0
SMALL
NO_CHARGES
****
Generated from the CSD

@<TRIPOS>ATOM
     1 N1     -20.3627  52.7519  39.5754   N.pl3     1 RES1   0.0000
     2 C2     -21.1561  52.7151  38.6014   C.2       1 RES1   0.0000
     3 C3     -22.3208  51.8691  38.7057   C.2       1 RES1   0.0000
     4 N4     -22.4611  51.1612  39.8920   N.2       1 RES1   0.0000
     5 C5     -23.6301  50.4305  40.0514   C.2       1 RES1   0.0000
     6 C6     -24.6374  50.4300  39.0564   C.2       1 RES1   0.0000
     7 C7     -25.8573  49.5040  39.3060   C.2       1 RES1   0.0000
     8 O8     -26.4715  49.0671  38.2871   O.2       1 RES1   0.0000
     9 N9     -26.2846  49.3433  40.6202   N.am      1 RES1   0.0000
    10 C10    -27.5279  48.6281  41.0012   C.3       1 RES1   0.0000
    11 C11    -28.7475  49.5965  41.2151   C.2       1 RES1   0.0000
    12 C12    -28.5832  51.0196  41.2352   C.2       1 RES1   0.0000
    13 C13    -29.6831  51.8930  41.4421   C.2       1 RES1   0.0000
    14 C14    -30.9912  51.3575  41.6084   C.2       1 RES1   0.0000
    15 C15    -31.1902  49.9413  41.5921   C.2       1 RES1   0.0000
    16 C16    -30.0747  49.0679  41.3963   C.2       1 RES1   0.0000
    17 C17    -24.4675  51.2163  37.8701   C.2       1 RES1   0.0000
    18 N18    -23.3037  51.9181  37.7257   N.2       1 RES1   0.0000
@<TRIPOS>BOND
     1     1     2    2
     2     2     3    1
     3     3     4    2
     4     4     5    1
     5     5     6    2
     6     6     7    1
     7     7     8    2
     8     7     9   am
     9     9    10    1
    10    10    11    1
    11    11    12    2
    12    12    13    1
    13    13    14    2
    14    14    15    1
    15    15    16    2
    16     6    17    1
    17    17    18    2
    18    18     3    1
    19    16    11    1
@<TRIPOS>SUBSTRUCTURE
     1 RES1        1 GROUP             0 ****  ****    0  
@<TRIPOS>MOLECULE
ligand_21
    18    19     1     0     0
SMALL
NO_CHARGES
****
Generated from the CSD

@<TRIPOS>ATOM
     1 N1     -20.3627  52.7519  39.5754   N.pl3     1 RES1   0.0000
     2 C2     -21.1561  52.7151  38.6014   C.2       1 RES1   0.0000
     3 C3     -22.3208  51.8691  38.7057   C.2       1 RES1   0.0000
     4 N4     -22.4611  51.1612  39.8920   N.2       1 RES1   0.0000
     5 C5     -23.6301  50.4305  40.0514   C.2       1 RES1   0.0000
     6 C6     -24.6374  50.4300  39.0564   C.2       1 RES1   0.0000
     7 C7     -25.8573  49.5040  39.3060   C.2       1 RES1   0.0000
     8 O8     -26.4715  49.0671  38.2871   O.2       1 RES1   0.0000
     9 N9     -26.2846  49.3433  40.6202   N.am      1 RES1   0.0000
    10 C10    -27.5279  48.6281  41.0012   C.3       1 RES1   0.0000
    11 C11    -27.2727  47.1272  41.3927   C.2       1 RES1   0.0000
    12 C12    -25.9993  46.5030  41.1889   C.2       1 RES1   0.0000
    13 C13    -25.7736  45.1435  41.5300   C.2       1 RES1   0.0000
    14 C14    -26.8205  44.3768  42.1144   C.2       1 RES1   0.0000
    15 C15    -28.1036  44.9699  42.3328   C.2       1 RES1   0.0000
    16 C16    -28.3264  46.3364  41.9740   C.2       1 RES1   0.0000
    17 C17    -24.4675  51.2163  37.8701   C.2       1 RES1   0.0000
    18 N18    -23.3037  51.9181  37.7257   N.2       1 RES1   0.0000
@<TRIPOS>BOND
     1     1     2    2
     2     2     3    1
     3     3     4    2
     4     4     5    1
     5     5     6    2
     6     6     7    1
     7     7     8    2
     8     7     9   am
     9     9    10    1
    10    10    11    1
    11    11    12    2
    12    12    13    1
    13    13    14    2
    14    14    15    1
    15    15    16    2
    16     6    17    1
    17    17    18    2
    18    18     3    1
    19    16    11    1
@<TRIPOS>SUBSTRUCTURE
     1 RES1        1 GROUP             0 ****  ****    0  
@<TRIPOS>MOLECULE
ligand_22
    18    19     1     0     0
SMALL
NO_CHARGES
****
Generated from the CSD

@<TRIPOS>ATOM
     1 N1     -20.3964  52.8054  39.6090   N.pl3     1 RES1   0.0000
     2 C2     -21.1610  52.7252  38.6148   C.2       1 RES1   0.0000
     3 C3     -22.3221  51.8740  38.7177   C.2       1 RES1   0.0000
     4 N4     -22.4916  51.2104  39.9256   N.2       1 RES1   0.0000
     5 C5     -23.6594  50.4765  40.0791   C.2       1 RES1   0.0000
     6 C6     -24.6374  50.4300  39.0564   C.2       1 RES1   0.0000
     7 C7     -25.8573  49.5040  39.3060   C.2       1 RES1   0.0000
     8 O8     -26.9549  49.8325  38.7642   O.2       1 RES1   0.0000
     9 N9     -25.7033  48.4711  40.2252   N.am      1 RES1   0.0000
    10 C10    -26.8233  47.6293  40.7145   C.3       1 RES1   0.0000
    11 C11    -27.4124  48.1326  42.0823   C.2       1 RES1   0.0000
    12 C12    -26.7738  49.1668  42.8409   C.2       1 RES1   0.0000
    13 C13    -27.2990  49.6112  44.0827   C.2       1 RES1   0.0000
    14 C14    -28.5031  49.0438  44.5863   C.2       1 RES1   0.0000
    15 C15    -29.1666  48.0104  43.8530   C.2       1 RES1   0.0000
    16 C16    -28.6236  47.5592  42.6092   C.2       1 RES1   0.0000
    17 C17    -24.4389  51.1722  37.8464   C.2       1 RES1   0.0000
    18 N18    -23.2765  51.8777  37.7088   N.2       1 RES1   0.0000
@<TRIPOS>BOND
     1     1     2    2
     2     2     3    1
     3     3     4    2
     4     4     5    1
     5     5     6    2
     6     6     7    1
     7     7     8    2
     8     7     9   am
     9     9    10    1
    10    10    11    1
    11    11    12    2
    12    12    13    1
    13    13    14    2
    14    14    15    1
    15    15    16    2
    16     6    17    1
    17    17    18    2
    18    18     3    1
    19    16    11    1
@<TRIPOS>SUBSTRUCTURE
     1 RES1        1 GROUP             0 ****  ****    0  
@<TRIPOS>MOLECULE
ligand_23
    18    19     1     0     0
SMALL
NO_CHARGES
****
Generated from the CSD

@<TRIPOS>ATOM
     1 N1     -20.3964  52.8054  39.6090   N.pl3     1 RES1   0.0000
     2 C2     -21.1610  52.7252  38.6148   C.2       1 RES1   0.0000
     3 C3     -22.3221  51.8740  38.7177   C.2       1 RES1   0.0000
     4 N4     -22.4916  51.2104  39.9256   N.2       1 RES1   0.0000
     5 C5     -23.6594  50.4765  40.0791   C.2       1 RES1   0.0000
     6 C6     -24.6374  50.4300  39.0564   C.2       1 RES1   0.0000
     7 C7     -25.8573  49.5040  39.3060   C.2       1 RES1   0.0000
     8 O8     -26.9549  49.8325  38.7642   O.2       1 RES1   0.0000
     9 N9     -25.7033  48.4711  40.2252   N.am      1 RES1   0.0000
    10 C10    -26.8233  47.6293  40.7145   C.3       1 RES1   0.0000
    11 C11    -26.9620  46.2782  39.9230   C.2       1 RES1   0.0000
    12 C12    -26.2045  46.0221  38.7341   C.2       1 RES1   0.0000
    13 C13    -26.3405  44.8072  38.0123   C.2       1 RES1   0.0000
    14 C14    -27.2271  43.7987  38.4837   C.2       1 RES1   0.0000
    15 C15    -27.9970  44.0217  39.6682   C.2       1 RES1   0.0000
    16 C16    -27.8639  45.2538  40.3822   C.2       1 RES1   0.0000
    17 C17    -24.4389  51.1722  37.8464   C.2       1 RES1   0.0000
    18 N18    -23.2765  51.8777  37.7088   N.2       1 RES1   0.0000
@<TRIPOS>BOND
     1     1     2    2
     2     2     3    1
     3     3     4    2
     4     4     5    1
     5     5     6    2
     6     6     7    1
     7     7     8    2
     8     7     9   am
     9     9    10    1
    10    10    11    1
    11    11    12    2
    12    12    13    1
    13    13    14    2
    14    14    15    1
    15    15    16    2
    16     6    17    1
    17    17    18    2
    18    18     3    1
    19    16    11    1
@<TRIPOS>SUBSTRUCTURE
     1 RES1        1 GROUP             0 ****  ****    0  
@<TRIPOS>MOLECULE
ligand_24
    18    19     1     0     0
SMALL
NO_CHARGES
****
Generated from the CSD

@<TRIPOS>ATOM
     1 N1     -20.3690  52.7620  39.5820   N.pl3     1 RES1   0.0000
     2 C2     -21.1570  52.7170  38.6040   C.2       1 RES1   0.0000
     3 C3     -22.3210  51.8700  38.7080   C.2       1 RES1   0.0000
     4 N4     -22.4668  51.1704  39.8986   N.2       1 RES1   0.0000
     5 C5     -23.6356  50.4392  40.0568   C.2       1 RES1   0.0000
     6 C6     -24.6374  50.4300  39.0564   C.2       1 RES1   0.0000
     7 C7     -25.8573  49.5040  39.3060   C.2       1 RES1   0.0000
     8 O8     -25.6711  48.4836  40.0343   O.2       1 RES1   0.0000
     9 N9     -27.0226  49.7693  38.5938   N.am      1 RES1   0.0000
    10 C10    -28.2107  48.8801  38.5962   C.3       1 RES1   0.0000
    11 C11    -29.3241  49.3468  37.5893   C.2       1 RES1   0.0000
    12 C12    -30.0369  50.5759  37.7733   C.2       1 RES1   0.0000
    13 C13    -31.0517  50.9900  36.8710   C.2       1 RES1   0.0000
    14 C14    -31.3610  50.1882  35.7366   C.2       1 RES1   0.0000
    15 C15    -30.6670  48.9560  35.5225   C.2       1 RES1   0.0000
    16 C16    -29.6552  48.5397  36.4436   C.2       1 RES1   0.0000
    17 C17    -24.4621  51.2080  37.8654   C.2       1 RES1   0.0000
    18 N18    -23.2986  51.9104  37.7223   N.2       1 RES1   0.0000
@<TRIPOS>BOND
     1     1     2    2
     2     2     3    1
     3     3     4    2
     4     4     5    1
     5     5     6    2
     6     6     7    1
     7     7     8    2
     8     7     9   am
     9     9    10    1
    10    10    11    1
    11    11    12    2
    12    12    13    1
    13    13    14    2
    14    14    15    1
    15    15    16    2
    16     6    17    1
    17    17    18    2
    18    18     3    1
    19    16    11    1
@<TRIPOS>SUBSTRUCTURE
     1 RES1        1 GROUP             0 ****  ****    0  
@<TRIPOS>MOLECULE
ligand_25
    18    19     1     0     0
SMALL
NO_CHARGES
****
Generated from the CSD

@<TRIPOS>ATOM
     1 N1     -20.3690  52.7620  39.5820   N.pl3     1 RES1   0.0000
     2 C2     -21.1570  52.7170  38.6040   C.2       1 RES1   0.0000
     3 C3     -22.3210  51.8700  38.7080   C.2       1 RES1   0.0000
     4 N4     -22.4668  51.1704  39.8986   N.2       1 RES1   0.0000
     5 C5     -23.6356  50.4392  40.0568   C.2       1 RES1   0.0000
     6 C6     -24.6374  50.4300  39.0564   C.2       1 RES1   0.0000
     7 C7     -25.8573  49.5040  39.3060   C.2       1 RES1   0.0000
     8 O8     -25.6711  48.4836  40.0343   O.2       1 RES1   0.0000
     9 N9     -27.0226  49.7693  38.5938   N.am      1 RES1   0.0000
    10 C10    -28.2107  48.8801  38.5962   C.3       1 RES1   0.0000
    11 C11    -29.3241  49.3468  37.5893   C.2       1 RES1   0.0000
    12 C12    -29.1102  49.3332  36.1727   C.2       1 RES1   0.0000
    13 C13    -30.1113  49.7678  35.2647   C.2       1 RES1   0.0000
    14 C14    -31.3728  50.2051  35.7574   C.2       1 RES1   0.0000
    15 C15    -31.6195  50.2296  37.1661   C.2       1 RES1   0.0000
    16 C16    -30.6009  49.8026  38.0746   C.2       1 RES1   0.0000
    17 C17    -24.4621  51.2080  37.8654   C.2       1 RES1   0.0000
    18 N18    -23.2986  51.9104  37.7223   N.2       1 RES1   0.0000
@<TRIPOS>BOND
     1     1     2    2
     2     2     3    1
     3     3     4    2
     4     4     5    1
     5     5     6    2
     6     6     7    1
     7     7     8    2
     8     7     9   am
     9     9    10    1
    10    10    11    1
    11    11    12    2
    12    12    13    1
    13    13    14    2
    14    14    15    1
    15    15    16    2
    16     6    17    1
    17    17    18    2
    18    18     3    1
    19    16    11    1
@<TRIPOS>SUBSTRUCTURE
     1 RES1        1 GROUP             0 ****  ****    0  
@<TRIPOS>MOLECULE
ligand_26
    18    19     1     0     0
SMALL
NO_CHARGES
****
Generated from the CSD

@<TRIPOS>ATOM
     1 N1     -20.3690  52.7620  39.5820   N.pl3     1 RES1   0.0000
     2 C2     -21.1570  52.7170  38.6040   C.2       1 RES1   0.0000
     3 C3     -22.3210  51.8700  38.7080   C.2       1 RES1   0.0000
     4 N4     -22.4668  51.1704  39.8986   N.2       1 RES1   0.0000
     5 C5     -23.6356  50.4392  40.0568   C.2       1 RES1   0.0000
     6 C6     -24.6374  50.4300  39.0564   C.2       1 RES1   0.0000
     7 C7     -25.8573  49.5040  39.3060   C.2       1 RES1   0.0000
     8 O8     -26.1546  49.2491  40.5114   O.2       1 RES1   0.0000
     9 N9     -26.4413  48.8971  38.1987   N.am      1 RES1   0.0000
    10 C10    -27.5000  47.8609  38.2892   C.3       1 RES1   0.0000
    11 C11    -27.8699  47.2431  36.8919   C.2       1 RES1   0.0000
    12 C12    -28.4912  48.0251  35.8647   C.2       1 RES1   0.0000
    13 C13    -28.8374  47.4628  34.6079   C.2       1 RES1   0.0000
    14 C14    -28.5419  46.0971  34.3375   C.2       1 RES1   0.0000
    15 C15    -27.9206  45.2889  35.3407   C.2       1 RES1   0.0000
    16 C16    -27.5871  45.8597  36.6089   C.2       1 RES1   0.0000
    17 C17    -24.4621  51.2080  37.8654   C.2       1 RES1   0.0000
    18 N18    -23.2986  51.9104  37.7223   N.2       1 RES1   0.0000
@<TRIPOS>BOND
     1     1     2    2
     2     2     3    1
     3     3     4    2
     4     4     5    1
     5     5     6    2
     6     6     7    1
     7     7     8    2
     8     7     9   am
     9     9    10    1
    10    10    11    1
    11    11    12    2
    12    12    13    1
    13    13    14    2
    14    14    15    1
    15    15    16    2
    16     6    17    1
    17    17    18    2
    18    18     3    1
    19    16    11    1
@<TRIPOS>SUBSTRUCTURE
     1 RES1        1 GROUP             0 ****  ****    0  
@<TRIPOS>MOLECULE
ligand_27
    18    19     1     0     0
SMALL
NO_CHARGES
****
Generated from the CSD

@<TRIPOS>ATOM
     1 N1     -20.3690  52.7620  39.5820   N.pl3     1 RES1   0.0000
     2 C2     -21.1570  52.7170  38.6040   C.2       1 RES1   0.0000
     3 C3     -22.3210  51.8700  38.7080   C.2       1 RES1   0.0000
     4 N4     -22.4668  51.1704  39.8986   N.2       1 RES1   0.0000
     5 C5     -23.6356  50.4392  40.0568   C.2       1 RES1   0.0000
     6 C6     -24.6374  50.4300  39.0564   C.2       1 RES1   0.0000
     7 C7     -25.8573  49.5040  39.3060   C.2       1 RES1   0.0000
     8 O8     -26.1546  49.2491  40.5114   O.2       1 RES1   0.0000
     9 N9     -26.4413  48.8971  38.1987   N.am      1 RES1   0.0000
    10 C10    -27.5000  47.8609  38.2892   C.3       1 RES1   0.0000
    11 C11    -27.8699  47.2431  36.8919   C.2       1 RES1   0.0000
    12 C12    -26.9328  46.4573  36.1454   C.2       1 RES1   0.0000
    13 C13    -27.2631  45.9111  34.8773   C.2       1 RES1   0.0000
    14 C14    -28.5619  46.1181  34.3335   C.2       1 RES1   0.0000
    15 C15    -29.5217  46.8965  35.0536   C.2       1 RES1   0.0000
    16 C16    -29.1764  47.4543  36.3245   C.2       1 RES1   0.0000
    17 C17    -24.4621  51.2080  37.8654   C.2       1 RES1   0.0000
    18 N18    -23.2986  51.9104  37.7223   N.2       1 RES1   0.0000
@<TRIPOS>BOND
     1     1     2    2
     2     2     3    1
     3     3     4    2
     4     4     5    1
     5     5     6    2
     6     6     7    1
     7     7     8    2
     8     7     9   am
     9     9    10    1
    10    10    11    1
    11    11    12    2
    12    12    13    1
    13    13    14    2
    14    14    15    1
    15    15    16    2
    16     6    17    1
    17    17    18    2
    18    18     3    1
    19    16    11    1
@<TRIPOS>SUBSTRUCTURE
     1 RES1        1 GROUP             0 ****  ****    0  
@<TRIPOS>MOLECULE
ligand_28
    18    19     1     0     0
SMALL
NO_CHARGES
****
Generated from the CSD

@<TRIPOS>ATOM
     1 N1     -20.3627  52.7519  39.5754   N.pl3     1 RES1   0.0000
     2 C2     -21.1561  52.7151  38.6014   C.2       1 RES1   0.0000
     3 C3     -22.3208  51.8691  38.7057   C.2       1 RES1   0.0000
     4 N4     -22.4611  51.1612  39.8920   N.2       1 RES1   0.0000
     5 C5     -23.6301  50.4305  40.0514   C.2       1 RES1   0.0000
     6 C6     -24.6374  50.4300  39.0564   C.2       1 RES1   0.0000
     7 C7     -25.8573  49.5040  39.3060   C.2       1 RES1   0.0000
     8 O8     -26.4715  49.0671  38.2871   O.2       1 RES1   0.0000
     9 N9     -26.2846  49.3433  40.6202   N.am      1 RES1   0.0000
    10 C10    -27.5279  48.6281  41.0012   C.3       1 RES1   0.0000
    11 C11    -27.8422  48.7276  42.5382   C.2       1 RES1   0.0000
    12 C12    -26.9942  48.1196  43.5201   C.2       1 RES1   0.0000
    13 C13    -27.2863  48.1983  44.9071   C.2       1 RES1   0.0000
    14 C14    -28.4313  48.9181  45.3501   C.2       1 RES1   0.0000
    15 C15    -29.2980  49.5381  44.3961   C.2       1 RES1   0.0000
    16 C16    -29.0037  49.4428  42.9998   C.2       1 RES1   0.0000
    17 C17    -24.4675  51.2163  37.8701   C.2       1 RES1   0.0000
    18 N18    -23.3037  51.9181  37.7257   N.2       1 RES1   0.0000
@<TRIPOS>BOND
     1     1     2    2
     2     2     3    1
     3     3     4    2
     4     4     5    1
     5     5     6    2
     6     6     7    1
     7     7     8    2
     8     7     9   am
     9     9    10    1
    10    10    11    1
    11    11    12    2
    12    12    13    1
    13    13    14    2
    14    14    15    1
    15    15    16    2
    16     6    17    1
    17    17    18    2
    18    18     3    1
    19    16    11    1
@<TRIPOS>SUBSTRUCTURE
     1 RES1        1 GROUP             0 ****  ****    0  
@<TRIPOS>MOLECULE
ligand_29
    18    19     1     0     0
SMALL
NO_CHARGES
****
Generated from the CSD

@<TRIPOS>ATOM
     1 N1     -20.3627  52.7519  39.5754   N.pl3     1 RES1   0.0000
     2 C2     -21.1561  52.7151  38.6014   C.2       1 RES1   0.0000
     3 C3     -22.3208  51.8691  38.7057   C.2       1 RES1   0.0000
     4 N4     -22.4611  51.1612  39.8920   N.2       1 RES1   0.0000
     5 C5     -23.6301  50.4305  40.0514   C.2       1 RES1   0.0000
     6 C6     -24.6374  50.4300  39.0564   C.2       1 RES1   0.0000
     7 C7     -25.8573  49.5040  39.3060   C.2       1 RES1   0.0000
     8 O8     -26.4715  49.0671  38.2871   O.2       1 RES1   0.0000
     9 N9     -26.2846  49.3433  40.6202   N.am      1 RES1   0.0000
    10 C10    -27.5279  48.6281  41.0012   C.3       1 RES1   0.0000
    11 C11    -27.8422  48.7276  42.5382   C.2       1 RES1   0.0000
    12 C12    -28.1727  49.9759  43.1589   C.2       1 RES1   0.0000
    13 C13    -28.4431  50.0671  44.5496   C.2       1 RES1   0.0000
    14 C14    -28.4153  48.8940  45.3549   C.2       1 RES1   0.0000
    15 C15    -28.0903  47.6316  44.7665   C.2       1 RES1   0.0000
    16 C16    -27.8063  47.5506  43.3671   C.2       1 RES1   0.0000
    17 C17    -24.4675  51.2163  37.8701   C.2       1 RES1   0.0000
    18 N18    -23.3037  51.9181  37.7257   N.2       1 RES1   0.0000
@<TRIPOS>BOND
     1     1     2    2
     2     2     3    1
     3     3     4    2
     4     4     5    1
     5     5     6    2
     6     6     7    1
     7     7     8    2
     8     7     9   am
     9     9    10    1
    10    10    11    1
    11    11    12    2
    12    12    13    1
    13    13    14    2
    14    14    15    1
    15    15    16    2
    16     6    17    1
    17    17    18    2
    18    18     3    1
    19    16    11    1
@<TRIPOS>SUBSTRUCTURE
     1 RES1        1 GROUP             0 ****  ****    0  
@<TRIPOS>MOLECULE
ligand_30
    18    19     1     0     0
SMALL
NO_CHARGES
****
Generated from the CSD

@<TRIPOS>ATOM
     1 N1     -20.3964  52.8054  39.6090   N.pl3     1 RES1   0.0000
     2 C2     -21.1610  52.7252  38.6148   C.2       1 RES1   0.0000
     3 C3     -22.3221  51.8740  38.7177   C.2       1 RES1   0.0000
     4 N4     -22.4916  51.2104  39.9256   N.2       1 RES1   0.0000
     5 C5     -23.6594  50.4765  40.0791   C.2       1 RES1   0.0000
     6 C6     -24.6374  50.4300  39.0564   C.2       1 RES1   0.0000
     7 C7     -25.8573  49.5040  39.3060   C.2       1 RES1   0.0000
     8 O8     -26.9549  49.8325  38.7642   O.2       1 RES1   0.0000
     9 N9     -25.7033  48.4711  40.2252   N.am      1 RES1   0.0000
    10 C10    -26.8233  47.6293  40.7145   C.3       1 RES1   0.0000
    11 C11    -26.3892  46.6401  41.8566   C.2       1 RES1   0.0000
    12 C12    -25.4703  45.5680  41.6138   C.2       1 RES1   0.0000
    13 C13    -25.0893  44.6669  42.6425   C.2       1 RES1   0.0000
    14 C14    -25.6037  44.8362  43.9587   C.2       1 RES1   0.0000
    15 C15    -26.5220  45.8973  44.2353   C.2       1 RES1   0.0000
    16 C16    -26.9108  46.7927  43.1901   C.2       1 RES1   0.0000
    17 C17    -24.4389  51.1722  37.8464   C.2       1 RES1   0.0000
    18 N18    -23.2765  51.8777  37.7088   N.2       1 RES1   0.0000
@<TRIPOS>BOND
     1     1     2    2
     2     2     3    1
     3     3     4    2
     4     4     5    1
     5     5     6    2
     6     6     7    1
     7     7     8    2
     8     7     9   am
     9     9    10    1
    10    10    11    1
    11    11    12    2
    12    12    13    1
    13    13    14    2
    14    14    15    1
    15    15    16    2
    16     6    17    1
    17    17    18    2
    18    18     3    1
    19    16    11    1
@<TRIPOS>SUBSTRUCTURE
     1 RES1        1 GROUP             0 ****  ****    0  
@<TRIPOS>MOLECULE
ligand_31
    18    19     1     0     0
SMALL
NO_CHARGES
****
Generated from the CSD

@<TRIPOS>ATOM
     1 N1     -20.3964  52.8054  39.6090   N.pl3     1 RES1   0.0000
     2 C2     -21.1610  52.7252  38.6148   C.2       1 RES1   0.0000
     3 C3     -22.3221  51.8740  38.7177   C.2       1 RES1   0.0000
     4 N4     -22.4916  51.2104  39.9256   N.2       1 RES1   0.0000
     5 C5     -23.6594  50.4765  40.0791   C.2       1 RES1   0.0000
     6 C6     -24.6374  50.4300  39.0564   C.2       1 RES1   0.0000
     7 C7     -25.8573  49.5040  39.3060   C.2       1 RES1   0.0000
     8 O8     -26.9549  49.8325  38.7642   O.2       1 RES1   0.0000
     9 N9     -25.7033  48.4711  40.2252   N.am      1 RES1   0.0000
    10 C10    -26.8233  47.6293  40.7145   C.3       1 RES1   0.0000
    11 C11    -26.3892  46.6401  41.8566   C.2       1 RES1   0.0000
    12 C12    -25.9651  47.1138  43.1406   C.2       1 RES1   0.0000
    13 C13    -25.5601  46.2204  44.1669   C.2       1 RES1   0.0000
    14 C14    -25.5965  44.8161  43.9386   C.2       1 RES1   0.0000
    15 C15    -26.0164  44.3100  42.6684   C.2       1 RES1   0.0000
    16 C16    -26.4101  45.2174  41.6355   C.2       1 RES1   0.0000
    17 C17    -24.4389  51.1722  37.8464   C.2       1 RES1   0.0000
    18 N18    -23.2765  51.8777  37.7088   N.2       1 RES1   0.0000
@<TRIPOS>BOND
     1     1     2    2
     2     2     3    1
     3     3     4    2
     4     4     5    1
     5     5     6    2
     6     6     7    1
     7     7     8    2
     8     7     9   am
     9     9    10    1
    10    10    11    1
    11    11    12    2
    12    12    13    1
    13    13    14    2
    14    14    15    1
    15    15    16    2
    16     6    17    1
    17    17    18    2
    18    18     3    1
    19    16    11    1
@<TRIPOS>SUBSTRUCTURE
     1 RES1        1 GROUP             0 ****  ****    0  
@<TRIPOS>MOLECULE
ligand_32
    18    19     1     0     0
SMALL
NO_CHARGES
****
Generated from the CSD

@<TRIPOS>ATOM
     1 N1     -20.3690  52.7620  39.5820   N.pl3     1 RES1   0.0000
     2 C2     -21.1570  52.7170  38.6040   C.2       1 RES1   0.0000
     3 C3     -22.3210  51.8700  38.7080   C.2       1 RES1   0.0000
     4 N4     -22.4668  51.1704  39.8986   N.2       1 RES1   0.0000
     5 C5     -23.6356  50.4392  40.0568   C.2       1 RES1   0.0000
     6 C6     -24.6374  50.4300  39.0564   C.2       1 RES1   0.0000
     7 C7     -25.8573  49.5040  39.3060   C.2       1 RES1   0.0000
     8 O8     -25.6711  48.4836  40.0343   O.2       1 RES1   0.0000
     9 N9     -27.0226  49.7693  38.5938   N.am      1 RES1   0.0000
    10 C10    -28.2107  48.8801  38.5962   C.3       1 RES1   0.0000
    11 C11    -29.3353  49.3619  37.6091   C.2       1 RES1   0.0000
    12 C12    -29.3105  50.6681  37.0210   C.2       1 RES1   0.0000
    13 C13    -30.3337  51.1074  36.1403   C.2       1 RES1   0.0000
    14 C14    -31.4026  50.2304  35.8030   C.2       1 RES1   0.0000
    15 C15    -31.4566  48.9190  36.3715   C.2       1 RES1   0.0000
    16 C16    -30.4288  48.4891  37.2682   C.2       1 RES1   0.0000
    17 C17    -24.4621  51.2080  37.8654   C.2       1 RES1   0.0000
    18 N18    -23.2986  51.9104  37.7223   N.2       1 RES1   0.0000
@<TRIPOS>BOND
     1     1     2    2
     2     2     3    1
     3     3     4    2
     4     4     5    1
     5     5     6    2
     6     6     7    1
     7     7     8    2
     8     7     9   am
     9     9    10    1
    10    10    11    1
    11    11    12    2
    12    12    13    1
    13    13    14    2
    14    14    15    1
    15    15    16    2
    16     6    17    1
    17    17    18    2
    18    18     3    1
    19    16    11    1
@<TRIPOS>SUBSTRUCTURE
     1 RES1        1 GROUP             0 ****  ****    0  
@<TRIPOS>MOLECULE
ligand_33
    18    19     1     0     0
SMALL
NO_CHARGES
****
Generated from the CSD

@<TRIPOS>ATOM
     1 N1     -20.3690  52.7620  39.5820   N.pl3     1 RES1   0.0000
     2 C2     -21.1570  52.7170  38.6040   C.2       1 RES1   0.0000
     3 C3     -22.3210  51.8700  38.7080   C.2       1 RES1   0.0000
     4 N4     -22.4668  51.1704  39.8986   N.2       1 RES1   0.0000
     5 C5     -23.6356  50.4392  40.0568   C.2       1 RES1   0.0000
     6 C6     -24.6374  50.4300  39.0564   C.2       1 RES1   0.0000
     7 C7     -25.8573  49.5040  39.3060   C.2       1 RES1   0.0000
     8 O8     -26.1546  49.2491  40.5114   O.2       1 RES1   0.0000
     9 N9     -26.4413  48.8971  38.1987   N.am      1 RES1   0.0000
    10 C10    -27.5000  47.8609  38.2892   C.3       1 RES1   0.0000
    11 C11    -27.8890  47.2623  36.8887   C.2       1 RES1   0.0000
    12 C12    -27.4709  47.8791  35.6650   C.2       1 RES1   0.0000
    13 C13    -27.8341  47.3455  34.4006   C.2       1 RES1   0.0000
    14 C14    -28.6098  46.1543  34.3309   C.2       1 RES1   0.0000
    15 C15    -29.0424  45.5126  35.5337   C.2       1 RES1   0.0000
    16 C16    -28.6831  46.0641  36.8035   C.2       1 RES1   0.0000
    17 C17    -24.4621  51.2080  37.8654   C.2       1 RES1   0.0000
    18 N18    -23.2986  51.9104  37.7223   N.2       1 RES1   0.0000
@<TRIPOS>BOND
     1     1     2    2
     2     2     3    1
     3     3     4    2
     4     4     5    1
     5     5     6    2
     6     6     7    1
     7     7     8    2
     8     7     9   am
     9     9    10    1
    10    10    11    1
    11    11    12    2
    12    12    13    1
    13    13    14    2
    14    14    15    1
    15    15    16    2
    16     6    17    1
    17    17    18    2
    18    18     3    1
    19    16    11    1
@<TRIPOS>SUBSTRUCTURE
     1 RES1        1 GROUP             0 ****  ****    0  
@<TRIPOS>MOLECULE
ligand_34
    18    19     1     0     0
SMALL
NO_CHARGES
****
Generated from the CSD

@<TRIPOS>ATOM
     1 N1     -20.3624  52.7514  39.5750   N.pl3     1 RES1   0.0000
     2 C2     -21.1561  52.7150  38.6013   C.2       1 RES1   0.0000
     3 C3     -22.3208  51.8691  38.7056   C.2       1 RES1   0.0000
     4 N4     -22.4608  51.1607  39.8916   N.2       1 RES1   0.0000
     5 C5     -23.6298  50.4300  40.0511   C.2       1 RES1   0.0000
     6 C6     -24.6374  50.4300  39.0564   C.2       1 RES1   0.0000
     7 C7     -25.8573  49.5040  39.3060   C.2       1 RES1   0.0000
     8 O8     -26.4715  49.0671  38.2871   O.2       1 RES1   0.0000
     9 N9     -26.2846  49.3433  40.6202   N.am      1 RES1   0.0000
    10 C10    -27.5278  48.6280  41.0012   C.3       1 RES1   0.0000
    11 C11    -27.8299  48.7080  42.5418   C.2       1 RES1   0.0000
    12 C12    -26.8474  49.1679  43.4778   C.2       1 RES1   0.0000
    13 C13    -27.1164  49.2268  44.8705   C.2       1 RES1   0.0000
    14 C14    -28.3978  48.8486  45.3610   C.2       1 RES1   0.0000
    15 C15    -29.4018  48.3863  44.4532   C.2       1 RES1   0.0000
    16 C16    -29.1182  48.3174  43.0532   C.2       1 RES1   0.0000
    17 C17    -24.4678  51.2167  37.8704   C.2       1 RES1   0.0000
    18 N18    -23.3040  51.9185  37.7259   N.2       1 RES1   0.0000
@<TRIPOS>BOND
     1     1     2    2
     2     2     3    1
     3     3     4    2
     4     4     5    1
     5     5     6    2
     6     6     7    1
     7     7     8    2
     8     7     9   am
     9     9    10    1
    10    10    11    1
    11    11    12    2
    12    12    13    1
    13    13    14    2
    14    14    15    1
    15    15    16    2
    16     6    17    1
    17    17    18    2
    18    18     3    1
    19    16    11    1
@<TRIPOS>SUBSTRUCTURE
     1 RES1        1 GROUP             0 ****  ****    0  
@<TRIPOS>MOLECULE
ligand_35
    18    19     1     0     0
SMALL
NO_CHARGES
****
Generated from the CSD

@<TRIPOS>ATOM
     1 N1     -20.3968  52.8061  39.6094   N.pl3     1 RES1   0.0000
     2 C2     -21.1610  52.7253  38.6149   C.2       1 RES1   0.0000
     3 C3     -22.3221  51.8741  38.7179   C.2       1 RES1   0.0000
     4 N4     -22.4919  51.2110  39.9260   N.2       1 RES1   0.0000
     5 C5     -23.6598  50.4771  40.0794   C.2       1 RES1   0.0000
     6 C6     -24.6374  50.4300  39.0564   C.2       1 RES1   0.0000
     7 C7     -25.8573  49.5040  39.3060   C.2       1 RES1   0.0000
     8 O8     -26.9549  49.8325  38.7642   O.2       1 RES1   0.0000
     9 N9     -25.7033  48.4711  40.2252   N.am      1 RES1   0.0000
    10 C10    -26.8235  47.6299  40.7153   C.3       1 RES1   0.0000
    11 C11    -26.3844  46.6255  41.8420   C.2       1 RES1   0.0000
    12 C12    -25.0034  46.3711  42.1262   C.2       1 RES1   0.0000
    13 C13    -24.6077  45.4536  43.1347   C.2       1 RES1   0.0000
    14 C14    -25.5956  44.7826  43.9088   C.2       1 RES1   0.0000
    15 C15    -26.9834  45.0150  43.6518   C.2       1 RES1   0.0000
    16 C16    -27.3734  45.9310  42.6251   C.2       1 RES1   0.0000
    17 C17    -24.4385  51.1716  37.8461   C.2       1 RES1   0.0000
    18 N18    -23.2762  51.8772  37.7086   N.2       1 RES1   0.0000
@<TRIPOS>BOND
     1     1     2    2
     2     2     3    1
     3     3     4    2
     4     4     5    1
     5     5     6    2
     6     6     7    1
     7     7     8    2
     8     7     9   am
     9     9    10    1
    10    10    11    1
    11    11    12    2
    12    12    13    1
    13    13    14    2
    14    14    15    1
    15    15    16    2
    16     6    17    1
    17    17    18    2
    18    18     3    1
    19    16    11    1
@<TRIPOS>SUBSTRUCTURE
     1 RES1        1 GROUP             0 ****  ****    0  
@<TRIPOS>MOLECULE
ligand_36
    18    19     1     0     0
SMALL
NO_CHARGES
****
Generated from the CSD

@<TRIPOS>ATOM
     1 N1     -20.3690  52.7620  39.5820   N.pl3     1 RES1   0.0000
     2 C2     -21.1570  52.7170  38.6040   C.2       1 RES1   0.0000
     3 C3     -22.3210  51.8700  38.7080   C.2       1 RES1   0.0000
     4 N4     -22.4668  51.1704  39.8986   N.2       1 RES1   0.0000
     5 C5     -23.6356  50.4392  40.0568   C.2       1 RES1   0.0000
     6 C6     -24.6374  50.4300  39.0564   C.2       1 RES1   0.0000
     7 C7     -25.8573  49.5040  39.3060   C.2       1 RES1   0.0000
     8 O8     -25.6711  48.4836  40.0343   O.2       1 RES1   0.0000
     9 N9     -27.0226  49.7693  38.5938   N.am      1 RES1   0.0000
    10 C10    -28.2107  48.8801  38.5962   C.3       1 RES1   0.0000
    11 C11    -28.7150  48.5317  37.1486   C.2       1 RES1   0.0000
    12 C12    -27.8194  48.4857  36.0312   C.2       1 RES1   0.0000
    13 C13    -28.2779  48.1844  34.7218   C.2       1 RES1   0.0000
    14 C14    -29.6535  47.8924  34.5028   C.2       1 RES1   0.0000
    15 C15    -30.5740  47.9282  35.5969   C.2       1 RES1   0.0000
    16 C16    -30.1061  48.2456  36.9106   C.2       1 RES1   0.0000
    17 C17    -24.4621  51.2080  37.8654   C.2       1 RES1   0.0000
    18 N18    -23.2986  51.9104  37.7223   N.2       1 RES1   0.0000
@<TRIPOS>BOND
     1     1     2    2
     2     2     3    1
     3     3     4    2
     4     4     5    1
     5     5     6    2
     6     6     7    1
     7     7     8    2
     8     7     9   am
     9     9    10    1
    10    10    11    1
    11    11    12    2
    12    12    13    1
    13    13    14    2
    14    14    15    1
    15    15    16    2
    16     6    17    1
    17    17    18    2
    18    18     3    1
    19    16    11    1
@<TRIPOS>SUBSTRUCTURE
     1 RES1        1 GROUP             0 ****  ****    0  
@<TRIPOS>MOLECULE
ligand_37
    18    19     1     0     0
SMALL
NO_CHARGES
****
Generated from the CSD

@<TRIPOS>ATOM
     1 N1     -20.3690  52.7620  39.5820   N.pl3     1 RES1   0.0000
     2 C2     -21.1570  52.7170  38.6040   C.2       1 RES1   0.0000
     3 C3     -22.3210  51.8700  38.7080   C.2       1 RES1   0.0000
     4 N4     -22.4668  51.1704  39.8986   N.2       1 RES1   0.0000
     5 C5     -23.6356  50.4392  40.0568   C.2       1 RES1   0.0000
     6 C6     -24.6374  50.4300  39.0564   C.2       1 RES1   0.0000
     7 C7     -25.8573  49.5040  39.3060   C.2       1 RES1   0.0000
     8 O8     -25.6711  48.4836  40.0343   O.2       1 RES1   0.0000
     9 N9     -27.0226  49.7693  38.5938   N.am      1 RES1   0.0000
    10 C10    -28.2107  48.8801  38.5962   C.3       1 RES1   0.0000
    11 C11    -29.5448  49.6454  38.9211   C.2       1 RES1   0.0000
    12 C12    -29.7175  51.0289  38.5911   C.2       1 RES1   0.0000
    13 C13    -30.9175  51.7230  38.8972   C.2       1 RES1   0.0000
    14 C14    -31.9942  51.0340  39.5229   C.2       1 RES1   0.0000
    15 C15    -31.8552  49.6520  39.8643   C.2       1 RES1   0.0000
    16 C16    -30.6380  48.9637  39.5644   C.2       1 RES1   0.0000
    17 C17    -24.4621  51.2080  37.8654   C.2       1 RES1   0.0000
    18 N18    -23.2986  51.9104  37.7223   N.2       1 RES1   0.0000
@<TRIPOS>BOND
     1     1     2    2
     2     2     3    1
     3     3     4    2
     4     4     5    1
     5     5     6    2
     6     6     7    1
     7     7     8    2
     8     7     9   am
     9     9    10    1
    10    10    11    1
    11    11    12    2
    12    12    13    1
    13    13    14    2
    14    14    15    1
    15    15    16    2
    16     6    17    1
    17    17    18    2
    18    18     3    1
    19    16    11    1
@<TRIPOS>SUBSTRUCTURE
     1 RES1        1 GROUP             0 ****  ****    0  
@<TRIPOS>MOLECULE
ligand_38
    18    19     1     0     0
SMALL
NO_CHARGES
****
Generated from the CSD

@<TRIPOS>ATOM
     1 N1     -20.3690  52.7620  39.5820   N.pl3     1 RES1   0.0000
     2 C2     -21.1570  52.7170  38.6040   C.2       1 RES1   0.0000
     3 C3     -22.3210  51.8700  38.7080   C.2       1 RES1   0.0000
     4 N4     -22.4668  51.1704  39.8986   N.2       1 RES1   0.0000
     5 C5     -23.6356  50.4392  40.0568   C.2       1 RES1   0.0000
     6 C6     -24.6374  50.4300  39.0564   C.2       1 RES1   0.0000
     7 C7     -25.8573  49.5040  39.3060   C.2       1 RES1   0.0000
     8 O8     -26.1546  49.2491  40.5114   O.2       1 RES1   0.0000
     9 N9     -26.4413  48.8971  38.1987   N.am      1 RES1   0.0000
    10 C10    -27.5000  47.8609  38.2892   C.3       1 RES1   0.0000
    11 C11    -27.1725  46.5785  37.4411   C.2       1 RES1   0.0000
    12 C12    -25.8232  46.1680  37.1892   C.2       1 RES1   0.0000
    13 C13    -25.5281  45.0174  36.4117   C.2       1 RES1   0.0000
    14 C14    -26.5884  44.2272  35.8854   C.2       1 RES1   0.0000
    15 C15    -27.9470  44.6083  36.1196   C.2       1 RES1   0.0000
    16 C16    -28.2354  45.7764  36.8929   C.2       1 RES1   0.0000
    17 C17    -24.4621  51.2080  37.8654   C.2       1 RES1   0.0000
    18 N18    -23.2986  51.9104  37.7223   N.2       1 RES1   0.0000
@<TRIPOS>BOND
     1     1     2    2
     2     2     3    1
     3     3     4    2
     4     4     5    1
     5     5     6    2
     6     6     7    1
     7     7     8    2
     8     7     9   am
     9     9    10    1
    10    10    11    1
    11    11    12    2
    12    12    13    1
    13    13    14    2
    14    14    15    1
    15    15    16    2
    16     6    17    1
    17    17    18    2
    18    18     3    1
    19    16    11    1
@<TRIPOS>SUBSTRUCTURE
     1 RES1        1 GROUP             0 ****  ****    0  
@<TRIPOS>MOLECULE
ligand_39
    18    19     1     0     0
SMALL
NO_CHARGES
****
Generated from the CSD

@<TRIPOS>ATOM
     1 N1     -20.3690  52.7620  39.5820   N.pl3     1 RES1   0.0000
     2 C2     -21.1570  52.7170  38.6040   C.2       1 RES1   0.0000
     3 C3     -22.3210  51.8700  38.7080   C.2       1 RES1   0.0000
     4 N4     -22.4668  51.1704  39.8986   N.2       1 RES1   0.0000
     5 C5     -23.6356  50.4392  40.0568   C.2       1 RES1   0.0000
     6 C6     -24.6374  50.4300  39.0564   C.2       1 RES1   0.0000
     7 C7     -25.8573  49.5040  39.3060   C.2       1 RES1   0.0000
     8 O8     -26.1546  49.2491  40.5114   O.2       1 RES1   0.0000
     9 N9     -26.4413  48.8971  38.1987   N.am      1 RES1   0.0000
    10 C10    -27.5000  47.8609  38.2892   C.3       1 RES1   0.0000
    11 C11    -28.7494  48.1854  37.3921   C.2       1 RES1   0.0000
    12 C12    -28.6308  48.9490  36.1856   C.2       1 RES1   0.0000
    13 C13    -29.7618  49.2531  35.3831   C.2       1 RES1   0.0000
    14 C14    -31.0472  48.7719  35.7593   C.2       1 RES1   0.0000
    15 C15    -31.2001  48.0053  36.9571   C.2       1 RES1   0.0000
    16 C16    -30.0576  47.7146  37.7668   C.2       1 RES1   0.0000
    17 C17    -24.4621  51.2080  37.8654   C.2       1 RES1   0.0000
    18 N18    -23.2986  51.9104  37.7223   N.2       1 RES1   0.0000
@<TRIPOS>BOND
     1     1     2    2
     2     2     3    1
     3     3     4    2
     4     4     5    1
     5     5     6    2
     6     6     7    1
     7     7     8    2
     8     7     9   am
     9     9    10    1
    10    10    11    1
    11    11    12    2
    12    12    13    1
    13    13    14    2
    14    14    15    1
    15    15    16    2
    16     6    17    1
    17    17    18    2
    18    18     3    1
    19    16    11    1
@<TRIPOS>SUBSTRUCTURE
     1 RES1        1 GROUP             0 ****  ****    0  
@<TRIPOS>MOLECULE
ligand_40
    18    19     1     0     0
SMALL
NO_CHARGES
****
Generated from the CSD

@<TRIPOS>ATOM
     1 N1     -20.3627  52.7519  39.5754   N.pl3     1 RES1   0.0000
     2 C2     -21.1561  52.7151  38.6014   C.2       1 RES1   0.0000
     3 C3     -22.3208  51.8691  38.7057   C.2       1 RES1   0.0000
     4 N4     -22.4611  51.1612  39.8920   N.2       1 RES1   0.0000
     5 C5     -23.6301  50.4305  40.0514   C.2       1 RES1   0.0000
     6 C6     -24.6374  50.4300  39.0564   C.2       1 RES1   0.0000
     7 C7     -25.8573  49.5040  39.3060   C.2       1 RES1   0.0000
     8 O8     -26.4715  49.0671  38.2871   O.2       1 RES1   0.0000
     9 N9     -26.2846  49.3433  40.6202   N.am      1 RES1   0.0000
    10 C10    -27.5279  48.6281  41.0012   C.3       1 RES1   0.0000
    11 C11    -28.4417  49.4658  41.9679   C.2       1 RES1   0.0000
    12 C12    -28.4481  50.8983  41.9432   C.2       1 RES1   0.0000
    13 C13    -29.2635  51.6542  42.8259   C.2       1 RES1   0.0000
    14 C14    -30.1207  50.9865  43.7450   C.2       1 RES1   0.0000
    15 C15    -30.1396  49.5571  43.7945   C.2       1 RES1   0.0000
    16 C16    -29.3052  48.8033  42.9108   C.2       1 RES1   0.0000
    17 C17    -24.4675  51.2163  37.8701   C.2       1 RES1   0.0000
    18 N18    -23.3037  51.9181  37.7257   N.2       1 RES1   0.0000
@<TRIPOS>BOND
     1     1     2    2
     2     2     3    1
     3     3     4    2
     4     4     5    1
     5     5     6    2
     6     6     7    1
     7     7     8    2
     8     7     9   am
     9     9    10    1
    10    10    11    1
    11    11    12    2
    12    12    13    1
    13    13    14    2
    14    14    15    1
    15    15    16    2
    16     6    17    1
    17    17    18    2
    18    18     3    1
    19    16    11    1
@<TRIPOS>SUBSTRUCTURE
     1 RES1        1 GROUP             0 ****  ****    0  
@<TRIPOS>MOLECULE
ligand_41
    18    19     1     0     0
SMALL
NO_CHARGES
****
Generated from the CSD

@<TRIPOS>ATOM
     1 N1     -20.3627  52.7519  39.5754   N.pl3     1 RES1   0.0000
     2 C2     -21.1561  52.7151  38.6014   C.2       1 RES1   0.0000
     3 C3     -22.3208  51.8691  38.7057   C.2       1 RES1   0.0000
     4 N4     -22.4611  51.1612  39.8920   N.2       1 RES1   0.0000
     5 C5     -23.6301  50.4305  40.0514   C.2       1 RES1   0.0000
     6 C6     -24.6374  50.4300  39.0564   C.2       1 RES1   0.0000
     7 C7     -25.8573  49.5040  39.3060   C.2       1 RES1   0.0000
     8 O8     -26.4715  49.0671  38.2871   O.2       1 RES1   0.0000
     9 N9     -26.2846  49.3433  40.6202   N.am      1 RES1   0.0000
    10 C10    -27.5279  48.6281  41.0012   C.3       1 RES1   0.0000
    11 C11    -27.2892  47.5362  42.1066   C.2       1 RES1   0.0000
    12 C12    -26.2402  47.6626  43.0743   C.2       1 RES1   0.0000
    13 C13    -26.0167  46.6693  44.0637   C.2       1 RES1   0.0000
    14 C14    -26.8640  45.5276  44.1252   C.2       1 RES1   0.0000
    15 C15    -27.9216  45.3714  43.1750   C.2       1 RES1   0.0000
    16 C16    -28.1316  46.3702  42.1732   C.2       1 RES1   0.0000
    17 C17    -24.4675  51.2163  37.8701   C.2       1 RES1   0.0000
    18 N18    -23.3037  51.9181  37.7257   N.2       1 RES1   0.0000
@<TRIPOS>BOND
     1     1     2    2
     2     2     3    1
     3     3     4    2
     4     4     5    1
     5     5     6    2
     6     6     7    1
     7     7     8    2
     8     7     9   am
     9     9    10    1
    10    10    11    1
    11    11    12    2
    12    12    13    1
    13    13    14    2
    14    14    15    1
    15    15    16    2
    16     6    17    1
    17    17    18    2
    18    18     3    1
    19    16    11    1
@<TRIPOS>SUBSTRUCTURE
     1 RES1        1 GROUP             0 ****  ****    0  
@<TRIPOS>MOLECULE
ligand_42
    18    19     1     0     0
SMALL
NO_CHARGES
****
Generated from the CSD

@<TRIPOS>ATOM
     1 N1     -20.3964  52.8054  39.6090   N.pl3     1 RES1   0.0000
     2 C2     -21.1610  52.7252  38.6148   C.2       1 RES1   0.0000
     3 C3     -22.3221  51.8740  38.7177   C.2       1 RES1   0.0000
     4 N4     -22.4916  51.2104  39.9256   N.2       1 RES1   0.0000
     5 C5     -23.6594  50.4765  40.0791   C.2       1 RES1   0.0000
     6 C6     -24.6374  50.4300  39.0564   C.2       1 RES1   0.0000
     7 C7     -25.8573  49.5040  39.3060   C.2       1 RES1   0.0000
     8 O8     -26.9549  49.8325  38.7642   O.2       1 RES1   0.0000
     9 N9     -25.7033  48.4711  40.2252   N.am      1 RES1   0.0000
    10 C10    -26.8233  47.6293  40.7145   C.3       1 RES1   0.0000
    11 C11    -26.8786  47.5392  42.2830   C.2       1 RES1   0.0000
    12 C12    -26.3985  48.6024  43.1146   C.2       1 RES1   0.0000
    13 C13    -26.4362  48.5145  44.5310   C.2       1 RES1   0.0000
    14 C14    -26.9863  47.3595  45.1546   C.2       1 RES1   0.0000
    15 C15    -27.4758  46.2804  44.3534   C.2       1 RES1   0.0000
    16 C16    -27.4219  46.3715  42.9271   C.2       1 RES1   0.0000
    17 C17    -24.4389  51.1722  37.8464   C.2       1 RES1   0.0000
    18 N18    -23.2765  51.8777  37.7088   N.2       1 RES1   0.0000
@<TRIPOS>BOND
     1     1     2    2
     2     2     3    1
     3     3     4    2
     4     4     5    1
     5     5     6    2
     6     6     7    1
     7     7     8    2
     8     7     9   am
     9     9    10    1
    10    10    11    1
    11    11    12    2
    12    12    13    1
    13    13    14    2
    14    14    15    1
    15    15    16    2
    16     6    17    1
    17    17    18    2
    18    18     3    1
    19    16    11    1
@<TRIPOS>SUBSTRUCTURE
     1 RES1        1 GROUP             0 ****  ****    0  
@<TRIPOS>MOLECULE
ligand_43
    18    19     1     0     0
SMALL
NO_CHARGES
****
Generated from the CSD

@<TRIPOS>ATOM
     1 N1     -20.3964  52.8054  39.6090   N.pl3     1 RES1   0.0000
     2 C2     -21.1610  52.7252  38.6148   C.2       1 RES1   0.0000
     3 C3     -22.3221  51.8740  38.7177   C.2       1 RES1   0.0000
     4 N4     -22.4916  51.2104  39.9256   N.2       1 RES1   0.0000
     5 C5     -23.6594  50.4765  40.0791   C.2       1 RES1   0.0000
     6 C6     -24.6374  50.4300  39.0564   C.2       1 RES1   0.0000
     7 C7     -25.8573  49.5040  39.3060   C.2       1 RES1   0.0000
     8 O8     -26.9549  49.8325  38.7642   O.2       1 RES1   0.0000
     9 N9     -25.7033  48.4711  40.2252   N.am      1 RES1   0.0000
    10 C10    -26.8233  47.6293  40.7145   C.3       1 RES1   0.0000
    11 C11    -26.5267  46.0901  40.5956   C.2       1 RES1   0.0000
    12 C12    -25.1920  45.5739  40.6658   C.2       1 RES1   0.0000
    13 C13    -24.9238  44.1851  40.5446   C.2       1 RES1   0.0000
    14 C14    -25.9991  43.2682  40.3758   C.2       1 RES1   0.0000
    15 C15    -27.3437  43.7503  40.3031   C.2       1 RES1   0.0000
    16 C16    -27.6041  45.1523  40.4129   C.2       1 RES1   0.0000
    17 C17    -24.4389  51.1722  37.8464   C.2       1 RES1   0.0000
    18 N18    -23.2765  51.8777  37.7088   N.2       1 RES1   0.0000
@<TRIPOS>BOND
     1     1     2    2
     2     2     3    1
     3     3     4    2
     4     4     5    1
     5     5     6    2
     6     6     7    1
     7     7     8    2
     8     7     9   am
     9     9    10    1
    10    10    11    1
    11    11    12    2
    12    12    13    1
    13    13    14    2
    14    14    15    1
    15    15    16    2
    16     6    17    1
    17    17    18    2
    18    18     3    1
    19    16    11    1
@<TRIPOS>SUBSTRUCTURE
     1 RES1        1 GROUP             0 ****  ****    0  
@<TRIPOS>MOLECULE
ligand_44
    18    19     1     0     0
SMALL
NO_CHARGES
****
Generated from the CSD

@<TRIPOS>ATOM
     1 N1     -20.3690  52.7620  39.5820   N.pl3     1 RES1   0.0000
     2 C2     -21.1570  52.7170  38.6040   C.2       1 RES1   0.0000
     3 C3     -22.3210  51.8700  38.7080   C.2       1 RES1   0.0000
     4 N4     -22.4668  51.1704  39.8986   N.2       1 RES1   0.0000
     5 C5     -23.6356  50.4392  40.0568   C.2       1 RES1   0.0000
     6 C6     -24.6374  50.4300  39.0564   C.2       1 RES1   0.0000
     7 C7     -25.8573  49.5040  39.3060   C.2       1 RES1   0.0000
     8 O8     -25.6711  48.4836  40.0343   O.2       1 RES1   0.0000
     9 N9     -27.0226  49.7693  38.5938   N.am      1 RES1   0.0000
    10 C10    -28.2107  48.8801  38.5962   C.3       1 RES1   0.0000
    11 C11    -28.9085  48.7982  40.0025   C.2       1 RES1   0.0000
    12 C12    -28.8588  49.8880  40.9311   C.2       1 RES1   0.0000
    13 C13    -29.4776  49.8081  42.2063   C.2       1 RES1   0.0000
    14 C14    -30.1912  48.6332  42.5749   C.2       1 RES1   0.0000
    15 C15    -30.2614  47.5273  41.6705   C.2       1 RES1   0.0000
    16 C16    -29.6240  47.6111  40.3930   C.2       1 RES1   0.0000
    17 C17    -24.4621  51.2080  37.8654   C.2       1 RES1   0.0000
    18 N18    -23.2986  51.9104  37.7223   N.2       1 RES1   0.0000
@<TRIPOS>BOND
     1     1     2    2
     2     2     3    1
     3     3     4    2
     4     4     5    1
     5     5     6    2
     6     6     7    1
     7     7     8    2
     8     7     9   am
     9     9    10    1
    10    10    11    1
    11    11    12    2
    12    12    13    1
    13    13    14    2
    14    14    15    1
    15    15    16    2
    16     6    17    1
    17    17    18    2
    18    18     3    1
    19    16    11    1
@<TRIPOS>SUBSTRUCTURE
     1 RES1        1 GROUP             0 ****  ****    0  
@<TRIPOS>MOLECULE
ligand_45
    18    19     1     0     0
SMALL
NO_CHARGES
****
Generated from the CSD

@<TRIPOS>ATOM
     1 N1     -20.3690  52.7620  39.5820   N.pl3     1 RES1   0.0000
     2 C2     -21.1570  52.7170  38.6040   C.2       1 RES1   0.0000
     3 C3     -22.3210  51.8700  38.7080   C.2       1 RES1   0.0000
     4 N4     -22.4668  51.1704  39.8986   N.2       1 RES1   0.0000
     5 C5     -23.6356  50.4392  40.0568   C.2       1 RES1   0.0000
     6 C6     -24.6374  50.4300  39.0564   C.2       1 RES1   0.0000
     7 C7     -25.8573  49.5040  39.3060   C.2       1 RES1   0.0000
     8 O8     -26.1546  49.2491  40.5114   O.2       1 RES1   0.0000
     9 N9     -26.4413  48.8971  38.1987   N.am      1 RES1   0.0000
    10 C10    -27.5000  47.8609  38.2892   C.3       1 RES1   0.0000
    11 C11    -28.8453  48.4138  38.8857   C.2       1 RES1   0.0000
    12 C12    -29.2312  49.7844  38.7265   C.2       1 RES1   0.0000
    13 C13    -30.4397  50.2860  39.2772   C.2       1 RES1   0.0000
    14 C14    -31.3124  49.4119  39.9842   C.2       1 RES1   0.0000
    15 C15    -30.9578  48.0375  40.1598   C.2       1 RES1   0.0000
    16 C16    -29.7321  47.5432  39.6132   C.2       1 RES1   0.0000
    17 C17    -24.4621  51.2080  37.8654   C.2       1 RES1   0.0000
    18 N18    -23.2986  51.9104  37.7223   N.2       1 RES1   0.0000
@<TRIPOS>BOND
     1     1     2    2
     2     2     3    1
     3     3     4    2
     4     4     5    1
     5     5     6    2
     6     6     7    1
     7     7     8    2
     8     7     9   am
     9     9    10    1
    10    10    11    1
    11    11    12    2
    12    12    13    1
    13    13    14    2
    14    14    15    1
    15    15    16    2
    16     6    17    1
    17    17    18    2
    18    18     3    1
    19    16    11    1
@<TRIPOS>SUBSTRUCTURE
     1 RES1        1 GROUP             0 ****  ****    0  
@<TRIPOS>MOLECULE
ligand_46
    18    19     1     0     0
SMALL
NO_CHARGES
****
Generated from the CSD

@<TRIPOS>ATOM
     1 N1     -20.3627  52.7519  39.5754   N.pl3     1 RES1   0.0000
     2 C2     -21.1561  52.7151  38.6014   C.2       1 RES1   0.0000
     3 C3     -22.3208  51.8691  38.7057   C.2       1 RES1   0.0000
     4 N4     -22.4611  51.1612  39.8920   N.2       1 RES1   0.0000
     5 C5     -23.6301  50.4305  40.0514   C.2       1 RES1   0.0000
     6 C6     -24.6374  50.4300  39.0564   C.2       1 RES1   0.0000
     7 C7     -25.8573  49.5040  39.3060   C.2       1 RES1   0.0000
     8 O8     -26.4715  49.0671  38.2871   O.2       1 RES1   0.0000
     9 N9     -26.2846  49.3433  40.6202   N.am      1 RES1   0.0000
    10 C10    -27.5279  48.6281  41.0012   C.3       1 RES1   0.0000
    11 C11    -27.4737  47.0921  40.6710   C.2       1 RES1   0.0000
    12 C12    -26.2368  46.3691  40.6574   C.2       1 RES1   0.0000
    13 C13    -26.1872  44.9850  40.3456   C.2       1 RES1   0.0000
    14 C14    -27.3903  44.2789  40.0639   C.2       1 RES1   0.0000
    15 C15    -28.6423  44.9704  40.0706   C.2       1 RES1   0.0000
    16 C16    -28.6820  46.3678  40.3727   C.2       1 RES1   0.0000
    17 C17    -24.4675  51.2163  37.8701   C.2       1 RES1   0.0000
    18 N18    -23.3037  51.9181  37.7257   N.2       1 RES1   0.0000
@<TRIPOS>BOND
     1     1     2    2
     2     2     3    1
     3     3     4    2
     4     4     5    1
     5     5     6    2
     6     6     7    1
     7     7     8    2
     8     7     9   am
     9     9    10    1
    10    10    11    1
    11    11    12    2
    12    12    13    1
    13    13    14    2
    14    14    15    1
    15    15    16    2
    16     6    17    1
    17    17    18    2
    18    18     3    1
    19    16    11    1
@<TRIPOS>SUBSTRUCTURE
     1 RES1        1 GROUP             0 ****  ****    0  
@<TRIPOS>MOLECULE
ligand_47
    18    19     1     0     0
SMALL
NO_CHARGES
****
Generated from the CSD

@<TRIPOS>ATOM
     1 N1     -20.3964  52.8054  39.6090   N.pl3     1 RES1   0.0000
     2 C2     -21.1610  52.7252  38.6148   C.2       1 RES1   0.0000
     3 C3     -22.3221  51.8740  38.7177   C.2       1 RES1   0.0000
     4 N4     -22.4916  51.2104  39.9256   N.2       1 RES1   0.0000
     5 C5     -23.6594  50.4765  40.0791   C.2       1 RES1   0.0000
     6 C6     -24.6374  50.4300  39.0564   C.2       1 RES1   0.0000
     7 C7     -25.8573  49.5040  39.3060   C.2       1 RES1   0.0000
     8 O8     -26.9549  49.8325  38.7642   O.2       1 RES1   0.0000
     9 N9     -25.7033  48.4711  40.2252   N.am      1 RES1   0.0000
    10 C10    -26.8233  47.6293  40.7145   C.3       1 RES1   0.0000
    11 C11    -27.4523  46.7344  39.5855   C.2       1 RES1   0.0000
    12 C12    -26.6777  46.2748  38.4713   C.2       1 RES1   0.0000
    13 C13    -27.2500  45.4780  37.4450   C.2       1 RES1   0.0000
    14 C14    -28.6186  45.0961  37.5250   C.2       1 RES1   0.0000
    15 C15    -29.4197  45.5367  38.6250   C.2       1 RES1   0.0000
    16 C16    -28.8387  46.3501  39.6478   C.2       1 RES1   0.0000
    17 C17    -24.4389  51.1722  37.8464   C.2       1 RES1   0.0000
    18 N18    -23.2765  51.8777  37.7088   N.2       1 RES1   0.0000
@<TRIPOS>BOND
     1     1     2    2
     2     2     3    1
     3     3     4    2
     4     4     5    1
     5     5     6    2
     6     6     7    1
     7     7     8    2
     8     7     9   am
     9     9    10    1
    10    10    11    1
    11    11    12    2
    12    12    13    1
    13    13    14    2
    14    14    15    1
    15    15    16    2
    16     6    17    1
    17    17    18    2
    18    18     3    1
    19    16    11    1
@<TRIPOS>SUBSTRUCTURE
     1 RES1        1 GROUP             0 ****  ****    0  
@<TRIPOS>MOLECULE
ligand_48
    18    19     1     0     0
SMALL
NO_CHARGES
****
Generated from the CSD

@<TRIPOS>ATOM
     1 N1     -20.3690  52.7620  39.5820   N.pl3     1 RES1   0.0000
     2 C2     -21.1570  52.7170  38.6040   C.2       1 RES1   0.0000
     3 C3     -22.3210  51.8700  38.7080   C.2       1 RES1   0.0000
     4 N4     -22.4668  51.1704  39.8986   N.2       1 RES1   0.0000
     5 C5     -23.6356  50.4392  40.0568   C.2       1 RES1   0.0000
     6 C6     -24.6374  50.4300  39.0564   C.2       1 RES1   0.0000
     7 C7     -25.8573  49.5040  39.3060   C.2       1 RES1   0.0000
     8 O8     -25.6711  48.4836  40.0343   O.2       1 RES1   0.0000
     9 N9     -27.0226  49.7693  38.5938   N.am      1 RES1   0.0000
    10 C10    -28.1952  48.8602  38.5634   C.3       1 RES1   0.0000
    11 C11    -27.9598  47.5906  37.6669   C.2       1 RES1   0.0000
    12 C12    -26.6468  47.0655  37.4368   C.2       1 RES1   0.0000
    13 C13    -26.4338  45.9270  36.6159   C.2       1 RES1   0.0000
    14 C14    -27.5444  45.2643  36.0220   C.2       1 RES1   0.0000
    15 C15    -28.8688  45.7617  36.2328   C.2       1 RES1   0.0000
    16 C16    -29.0734  46.9171  37.0504   C.2       1 RES1   0.0000
    17 C17    -24.4621  51.2080  37.8654   C.2       1 RES1   0.0000
    18 N18    -23.2986  51.9104  37.7223   N.2       1 RES1   0.0000
@<TRIPOS>BOND
     1     1     2    2
     2     2     3    1
     3     3     4    2
     4     4     5    1
     5     5     6    2
     6     6     7    1
     7     7     8    2
     8     7     9   am
     9     9    10    1
    10    10    11    1
    11    11    12    2
    12    12    13    1
    13    13    14    2
    14    14    15    1
    15    15    16    2
    16     6    17    1
    17    17    18    2
    18    18     3    1
    19    16    11    1
@<TRIPOS>SUBSTRUCTURE
     1 RES1        1 GROUP             0 ****  ****    0  
@<TRIPOS>MOLECULE
ligand_49
    18    19     1     0     0
SMALL
NO_CHARGES
****
Generated from the CSD

@<TRIPOS>ATOM
     1 N1     -20.3690  52.7620  39.5820   N.pl3     1 RES1   0.0000
     2 C2     -21.1570  52.7170  38.6040   C.2       1 RES1   0.0000
     3 C3     -22.3210  51.8700  38.7080   C.2       1 RES1   0.0000
     4 N4     -22.4668  51.1704  39.8986   N.2       1 RES1   0.0000
     5 C5     -23.6356  50.4392  40.0568   C.2       1 RES1   0.0000
     6 C6     -24.6374  50.4300  39.0564   C.2       1 RES1   0.0000
     7 C7     -25.8573  49.5040  39.3060   C.2       1 RES1   0.0000
     8 O8     -26.1546  49.2491  40.5114   O.2       1 RES1   0.0000
     9 N9     -26.4413  48.8971  38.1987   N.am      1 RES1   0.0000
    10 C10    -27.4706  47.8318  38.2897   C.3       1 RES1   0.0000
    11 C11    -26.8730  46.4406  38.7123   C.2       1 RES1   0.0000
    12 C12    -25.6768  46.3425  39.4948   C.2       1 RES1   0.0000
    13 C13    -25.1303  45.0855  39.8644   C.2       1 RES1   0.0000
    14 C14    -25.7903  43.8851  39.4784   C.2       1 RES1   0.0000
    15 C15    -26.9874  43.9477  38.6982   C.2       1 RES1   0.0000
    16 C16    -27.5241  45.2180  38.3188   C.2       1 RES1   0.0000
    17 C17    -24.4621  51.2080  37.8654   C.2       1 RES1   0.0000
    18 N18    -23.2986  51.9104  37.7223   N.2       1 RES1   0.0000
@<TRIPOS>BOND
     1     1     2    2
     2     2     3    1
     3     3     4    2
     4     4     5    1
     5     5     6    2
     6     6     7    1
     7     7     8    2
     8     7     9   am
     9     9    10    1
    10    10    11    1
    11    11    12    2
    12    12    13    1
    13    13    14    2
    14    14    15    1
    15    15    16    2
    16     6    17    1
    17    17    18    2
    18    18     3    1
    19    16    11    1
@<TRIPOS>SUBSTRUCTURE
     1 RES1        1 GROUP             0 ****  ****    0  
@<TRIPOS>MOLECULE
ligand_50
    18    19     1     0     0
SMALL
NO_CHARGES
****
Generated from the CSD

@<TRIPOS>ATOM
     1 N1     -20.3603  52.7480  39.5728   N.pl3     1 RES1   0.0000
     2 C2     -21.1558  52.7144  38.6004   C.2       1 RES1   0.0000
     3 C3     -22.3207  51.8688  38.7048   C.2       1 RES1   0.0000
     4 N4     -22.4589  51.1576  39.8894   N.2       1 RES1   0.0000
     5 C5     -23.6280  50.4271  40.0492   C.2       1 RES1   0.0000
     6 C6     -24.6374  50.4300  39.0564   C.2       1 RES1   0.0000
     7 C7     -25.8573  49.5040  39.3060   C.2       1 RES1   0.0000
     8 O8     -26.4715  49.0671  38.2871   O.2       1 RES1   0.0000
     9 N9     -26.2846  49.3433  40.6202   N.am      1 RES1   0.0000
    10 C10    -27.5483  48.6636  40.9989   C.3       1 RES1   0.0000
    11 C11    -28.8216  49.5403  40.7139   C.2       1 RES1   0.0000
    12 C12    -28.8316  50.5406  39.6881   C.2       1 RES1   0.0000
    13 C13    -29.9775  51.3413  39.4405   C.2       1 RES1   0.0000
    14 C14    -31.1615  51.1387  40.2038   C.2       1 RES1   0.0000
    15 C15    -31.1856  50.1473  41.2345   C.2       1 RES1   0.0000
    16 C16    -30.0226  49.3540  41.4863   C.2       1 RES1   0.0000
    17 C17    -24.4695  51.2195  37.8720   C.2       1 RES1   0.0000
    18 N18    -23.3057  51.9210  37.7270   N.2       1 RES1   0.0000
@<TRIPOS>BOND
     1     1     2    2
     2     2     3    1
     3     3     4    2
     4     4     5    1
     5     5     6    2
     6     6     7    1
     7     7     8    2
     8     7     9   am
     9     9    10    1
    10    10    11    1
    11    11    12    2
    12    12    13    1
    13    13    14    2
    14    14    15    1
    15    15    16    2
    16     6    17    1
    17    17    18    2
    18    18     3    1
    19    16    11    1
@<TRIPOS>SUBSTRUCTURE
     1 RES1        1 GROUP             0 ****  ****    0  
@<TRIPOS>MOLECULE
ligand_51
    18    19     1     0     0
SMALL
NO_CHARGES
****
Generated from the CSD

@<TRIPOS>ATOM
     1 N1     -20.3919  52.7983  39.6047   N.pl3     1 RES1   0.0000
     2 C2     -21.1603  52.7238  38.6130   C.2       1 RES1   0.0000
     3 C3     -22.3219  51.8733  38.7162   C.2       1 RES1   0.0000
     4 N4     -22.4875  51.2038  39.9213   N.2       1 RES1   0.0000
     5 C5     -23.6555  50.4704  40.0756   C.2       1 RES1   0.0000
     6 C6     -24.6374  50.4300  39.0564   C.2       1 RES1   0.0000
     7 C7     -25.8573  49.5040  39.3060   C.2       1 RES1   0.0000
     8 O8     -26.9549  49.8325  38.7642   O.2       1 RES1   0.0000
     9 N9     -25.7033  48.4711  40.2252   N.am      1 RES1   0.0000
    10 C10    -26.8285  47.6526  40.7417   C.3       1 RES1   0.0000
    11 C11    -27.7175  48.4255  41.7825   C.2       1 RES1   0.0000
    12 C12    -27.8302  49.8536  41.7614   C.2       1 RES1   0.0000
    13 C13    -28.6225  50.5518  42.7103   C.2       1 RES1   0.0000
    14 C14    -29.3496  49.8271  43.6960   C.2       1 RES1   0.0000
    15 C15    -29.2602  48.4004  43.7440   C.2       1 RES1   0.0000
    16 C16    -28.4493  47.7057  42.7925   C.2       1 RES1   0.0000
    17 C17    -24.4427  51.1780  37.8494   C.2       1 RES1   0.0000
    18 N18    -23.2801  51.8830  37.7109   N.2       1 RES1   0.0000
@<TRIPOS>BOND
     1     1     2    2
     2     2     3    1
     3     3     4    2
     4     4     5    1
     5     5     6    2
     6     6     7    1
     7     7     8    2
     8     7     9   am
     9     9    10    1
    10    10    11    1
    11    11    12    2
    12    12    13    1
    13    13    14    2
    14    14    15    1
    15    15    16    2
    16     6    17    1
    17    17    18    2
    18    18     3    1
    19    16    11    1
@<TRIPOS>SUBSTRUCTURE
     1 RES1        1 GROUP             0 ****  ****    0  
@<TRIPOS>MOLECULE
ligand_52
    18    19     1     0     0
SMALL
NO_CHARGES
****
Generated from the CSD

@<TRIPOS>ATOM
     1 N1     -20.3690  52.7620  39.5820   N.pl3     1 RES1   0.0000
     2 C2     -21.1570  52.7170  38.6040   C.2       1 RES1   0.0000
     3 C3     -22.3210  51.8700  38.7080   C.2       1 RES1   0.0000
     4 N4     -23.1654  51.8490  37.6059   N.2       1 RES1   0.0000
     5 C5     -24.2276  50.9569  37.6470   C.2       1 RES1   0.0000
     6 C6     -24.4215  50.0960  38.7542   C.2       1 RES1   0.0000
     7 C7     -25.6939  49.2084  38.7273   C.2       1 RES1   0.0000
     8 O8     -26.1647  48.9044  37.5906   O.2       1 RES1   0.0000
     9 N9     -26.3154  48.9381  39.9423   N.am      1 RES1   0.0000
    10 C10    -27.6052  48.2144  40.0655   C.3       1 RES1   0.0000
    11 C11    -27.4602  46.6660  39.8360   C.2       1 RES1   0.0000
    12 C12    -28.3696  45.7299  40.4272   C.2       1 RES1   0.0000
    13 C13    -28.2298  44.3308  40.2306   C.2       1 RES1   0.0000
    14 C14    -27.1816  43.8326  39.4069   C.2       1 RES1   0.0000
    15 C15    -26.2573  44.7403  38.8005   C.2       1 RES1   0.0000
    16 C16    -26.3974  46.1474  39.0144   C.2       1 RES1   0.0000
    17 C17    -23.4938  50.1206  39.8466   C.2       1 RES1   0.0000
    18 N18    -22.4623  51.0154  39.7936   N.2       1 RES1   0.0000
@<TRIPOS>BOND
     1     1     2    2
     2     2     3    1
     3     3     4    2
     4     4     5    1
     5     5     6    2
     6     6     7    1
     7     7     8    2
     8     7     9   am
     9     9    10    1
    10    10    11    1
    11    11    12    2
    12    12    13    1
    13    13    14    2
    14    14    15    1
    15    15    16    2
    16     6    17    1
    17    17    18    2
    18    18     3    1
    19    16    11    1
@<TRIPOS>SUBSTRUCTURE
     1 RES1        1 GROUP             0 ****  ****    0  
@<TRIPOS>MOLECULE
ligand_53
    18    19     1     0     0
SMALL
NO_CHARGES
****
Generated from the CSD

@<TRIPOS>ATOM
     1 N1     -20.3690  52.7620  39.5820   N.pl3     1 RES1   0.0000
     2 C2     -21.1570  52.7170  38.6040   C.2       1 RES1   0.0000
     3 C3     -22.3210  51.8700  38.7080   C.2       1 RES1   0.0000
     4 N4     -22.4668  51.1704  39.8986   N.2       1 RES1   0.0000
     5 C5     -23.6356  50.4392  40.0568   C.2       1 RES1   0.0000
     6 C6     -24.6374  50.4300  39.0564   C.2       1 RES1   0.0000
     7 C7     -25.8573  49.5040  39.3060   C.2       1 RES1   0.0000
     8 O8     -25.6219  48.2727  39.4926   O.2       1 RES1   0.0000
     9 N9     -27.1254  50.0560  39.1550   N.am      1 RES1   0.0000
    10 C10    -28.3795  49.2634  39.1937   C.3       1 RES1   0.0000
    11 C11    -29.0580  49.2640  40.6117   C.2       1 RES1   0.0000
    12 C12    -28.9075  50.3643  41.5168   C.2       1 RES1   0.0000
    13 C13    -29.5094  50.3581  42.8026   C.2       1 RES1   0.0000
    14 C14    -30.3067  49.2505  43.2060   C.2       1 RES1   0.0000
    15 C15    -30.4785  48.1363  42.3258   C.2       1 RES1   0.0000
    16 C16    -29.8579  48.1447  41.0373   C.2       1 RES1   0.0000
    17 C17    -24.4621  51.2080  37.8654   C.2       1 RES1   0.0000
    18 N18    -23.2986  51.9104  37.7223   N.2       1 RES1   0.0000
@<TRIPOS>BOND
     1     1     2    2
     2     2     3    1
     3     3     4    2
     4     4     5    1
     5     5     6    2
     6     6     7    1
     7     7     8    2
     8     7     9   am
     9     9    10    1
    10    10    11    1
    11    11    12    2
    12    12    13    1
    13    13    14    2
    14    14    15    1
    15    15    16    2
    16     6    17    1
    17    17    18    2
    18    18     3    1
    19    16    11    1
@<TRIPOS>SUBSTRUCTURE
     1 RES1        1 GROUP             0 ****  ****    0  
@<TRIPOS>MOLECULE
ligand_54
    18    19     1     0     0
SMALL
NO_CHARGES
****
Generated from the CSD

@<TRIPOS>ATOM
     1 N1     -20.3690  52.7620  39.5820   N.pl3     1 RES1   0.0000
     2 C2     -21.1570  52.7170  38.6040   C.2       1 RES1   0.0000
     3 C3     -22.3210  51.8700  38.7080   C.2       1 RES1   0.0000
     4 N4     -22.4668  51.1704  39.8986   N.2       1 RES1   0.0000
     5 C5     -23.6356  50.4392  40.0568   C.2       1 RES1   0.0000
     6 C6     -24.6374  50.4300  39.0564   C.2       1 RES1   0.0000
     7 C7     -25.8573  49.5040  39.3060   C.2       1 RES1   0.0000
     8 O8     -26.5149  49.6868  40.3739   O.2       1 RES1   0.0000
     9 N9     -26.0516  48.4448  38.4253   N.am      1 RES1   0.0000
    10 C10    -27.0664  47.3807  38.6266   C.3       1 RES1   0.0000
    11 C11    -28.4053  47.6602  37.8518   C.2       1 RES1   0.0000
    12 C12    -28.4257  48.4131  36.6330   C.2       1 RES1   0.0000
    13 C13    -29.6370  48.6767  35.9411   C.2       1 RES1   0.0000
    14 C14    -30.8658  48.1642  36.4439   C.2       1 RES1   0.0000
    15 C15    -30.8804  47.4073  37.6575   C.2       1 RES1   0.0000
    16 C16    -29.6573  47.1576  38.3553   C.2       1 RES1   0.0000
    17 C17    -24.4621  51.2080  37.8654   C.2       1 RES1   0.0000
    18 N18    -23.2986  51.9104  37.7223   N.2       1 RES1   0.0000
@<TRIPOS>BOND
     1     1     2    2
     2     2     3    1
     3     3     4    2
     4     4     5    1
     5     5     6    2
     6     6     7    1
     7     7     8    2
     8     7     9   am
     9     9    10    1
    10    10    11    1
    11    11    12    2
    12    12    13    1
    13    13    14    2
    14    14    15    1
    15    15    16    2
    16     6    17    1
    17    17    18    2
    18    18     3    1
    19    16    11    1
@<TRIPOS>SUBSTRUCTURE
     1 RES1        1 GROUP             0 ****  ****    0  
@<TRIPOS>MOLECULE
ligand_55
    18    19     1     0     0
SMALL
NO_CHARGES
****
Generated from the CSD

@<TRIPOS>ATOM
     1 N1     -20.3690  52.7620  39.5820   N.pl3     1 RES1   0.0000
     2 C2     -21.1570  52.7170  38.6040   C.2       1 RES1   0.0000
     3 C3     -22.3210  51.8700  38.7080   C.2       1 RES1   0.0000
     4 N4     -22.4668  51.1704  39.8986   N.2       1 RES1   0.0000
     5 C5     -23.6356  50.4392  40.0568   C.2       1 RES1   0.0000
     6 C6     -24.6374  50.4300  39.0564   C.2       1 RES1   0.0000
     7 C7     -25.8573  49.5040  39.3060   C.2       1 RES1   0.0000
     8 O8     -26.1111  48.6294  38.4246   O.2       1 RES1   0.0000
     9 N9     -26.6743  49.7956  40.3937   N.am      1 RES1   0.0000
    10 C10    -27.9631  49.1110  40.6637   C.3       1 RES1   0.0000
    11 C11    -27.8209  47.9231  41.6834   C.2       1 RES1   0.0000
    12 C12    -26.8111  47.9213  42.6997   C.2       1 RES1   0.0000
    13 C13    -26.6747  46.8418  43.6115   C.2       1 RES1   0.0000
    14 C14    -27.5728  45.7398  43.5439   C.2       1 RES1   0.0000
    15 C15    -28.5933  45.7110  42.5421   C.2       1 RES1   0.0000
    16 C16    -28.7154  46.7965  41.6190   C.2       1 RES1   0.0000
    17 C17    -24.4621  51.2080  37.8654   C.2       1 RES1   0.0000
    18 N18    -23.2986  51.9104  37.7223   N.2       1 RES1   0.0000
@<TRIPOS>BOND
     1     1     2    2
     2     2     3    1
     3     3     4    2
     4     4     5    1
     5     5     6    2
     6     6     7    1
     7     7     8    2
     8     7     9   am
     9     9    10    1
    10    10    11    1
    11    11    12    2
    12    12    13    1
    13    13    14    2
    14    14    15    1
    15    15    16    2
    16     6    17    1
    17    17    18    2
    18    18     3    1
    19    16    11    1
@<TRIPOS>SUBSTRUCTURE
     1 RES1        1 GROUP             0 ****  ****    0  
@<TRIPOS>MOLECULE
ligand_56
    18    19     1     0     0
SMALL
NO_CHARGES
****
Generated from the CSD

@<TRIPOS>ATOM
     1 N1     -20.3690  52.7620  39.5820   N.pl3     1 RES1   0.0000
     2 C2     -21.1570  52.7170  38.6040   C.2       1 RES1   0.0000
     3 C3     -22.3210  51.8700  38.7080   C.2       1 RES1   0.0000
     4 N4     -22.4668  51.1704  39.8986   N.2       1 RES1   0.0000
     5 C5     -23.6356  50.4392  40.0568   C.2       1 RES1   0.0000
     6 C6     -24.6374  50.4300  39.0564   C.2       1 RES1   0.0000
     7 C7     -25.8573  49.5040  39.3060   C.2       1 RES1   0.0000
     8 O8     -27.0042  50.0434  39.3059   O.2       1 RES1   0.0000
     9 N9     -25.6005  48.1844  39.6639   N.am      1 RES1   0.0000
    10 C10    -26.6500  47.2284  40.0966   C.3       1 RES1   0.0000
    11 C11    -27.1683  46.3194  38.9235   C.2       1 RES1   0.0000
    12 C12    -26.3292  45.9701  37.8159   C.2       1 RES1   0.0000
    13 C13    -26.8023  45.1604  36.7500   C.2       1 RES1   0.0000
    14 C14    -28.1318  44.6536  36.7818   C.2       1 RES1   0.0000
    15 C15    -28.9952  44.9821  37.8738   C.2       1 RES1   0.0000
    16 C16    -28.5149  45.8093  38.9370   C.2       1 RES1   0.0000
    17 C17    -24.4621  51.2080  37.8654   C.2       1 RES1   0.0000
    18 N18    -23.2986  51.9104  37.7223   N.2       1 RES1   0.0000
@<TRIPOS>BOND
     1     1     2    2
     2     2     3    1
     3     3     4    2
     4     4     5    1
     5     5     6    2
     6     6     7    1
     7     7     8    2
     8     7     9   am
     9     9    10    1
    10    10    11    1
    11    11    12    2
    12    12    13    1
    13    13    14    2
    14    14    15    1
    15    15    16    2
    16     6    17    1
    17    17    18    2
    18    18     3    1
    19    16    11    1
@<TRIPOS>SUBSTRUCTURE
     1 RES1        1 GROUP             0 ****  ****    0  
@<TRIPOS>MOLECULE
ligand_57
    18    19     1     0     0
SMALL
NO_CHARGES
****
Generated from the CSD

@<TRIPOS>ATOM
     1 N1     -20.3690  52.7620  39.5820   N.pl3     1 RES1   0.0000
     2 C2     -21.1570  52.7170  38.6040   C.2       1 RES1   0.0000
     3 C3     -22.3210  51.8700  38.7080   C.2       1 RES1   0.0000
     4 N4     -23.1654  51.8490  37.6059   N.2       1 RES1   0.0000
     5 C5     -24.2276  50.9569  37.6470   C.2       1 RES1   0.0000
     6 C6     -24.4215  50.0960  38.7542   C.2       1 RES1   0.0000
     7 C7     -25.6939  49.2084  38.7273   C.2       1 RES1   0.0000
     8 O8     -25.5283  47.9550  38.8151   O.2       1 RES1   0.0000
     9 N9     -26.9074  49.8319  38.4549   N.am      1 RES1   0.0000
    10 C10    -28.1783  49.0994  38.2295   C.3       1 RES1   0.0000
    11 C11    -28.4875  48.8687  36.7056   C.2       1 RES1   0.0000
    12 C12    -27.4400  48.7503  35.7353   C.2       1 RES1   0.0000
    13 C13    -27.7204  48.5557  34.3573   C.2       1 RES1   0.0000
    14 C14    -29.0696  48.4468  33.9176   C.2       1 RES1   0.0000
    15 C15    -30.1391  48.5590  34.8606   C.2       1 RES1   0.0000
    16 C16    -29.8482  48.7682  36.2452   C.2       1 RES1   0.0000
    17 C17    -23.4938  50.1206  39.8466   C.2       1 RES1   0.0000
    18 N18    -22.4623  51.0154  39.7936   N.2       1 RES1   0.0000
@<TRIPOS>BOND
     1     1     2    2
     2     2     3    1
     3     3     4    2
     4     4     5    1
     5     5     6    2
     6     6     7    1
     7     7     8    2
     8     7     9   am
     9     9    10    1
    10    10    11    1
    11    11    12    2
    12    12    13    1
    13    13    14    2
    14    14    15    1
    15    15    16    2
    16     6    17    1
    17    17    18    2
    18    18     3    1
    19    16    11    1
@<TRIPOS>SUBSTRUCTURE
     1 RES1        1 GROUP             0 ****  ****    0  
@<TRIPOS>MOLECULE
ligand_58
    18    19     1     0     0
SMALL
NO_CHARGES
****
Generated from the CSD

@<TRIPOS>ATOM
     1 N1     -20.3470  52.7266  39.5582   N.pl3     1 RES1   0.0000
     2 C2     -21.1539  52.7105  38.5948   C.2       1 RES1   0.0000
     3 C3     -22.3203  51.8669  38.6998   C.2       1 RES1   0.0000
     4 N4     -22.4469  51.1379  39.8749   N.2       1 RES1   0.0000
     5 C5     -23.6165  50.4086  40.0371   C.2       1 RES1   0.0000
     6 C6     -24.6374  50.4300  39.0564   C.2       1 RES1   0.0000
     7 C7     -25.8573  49.5040  39.3060   C.2       1 RES1   0.0000
     8 O8     -26.4715  49.0671  38.2871   O.2       1 RES1   0.0000
     9 N9     -26.2846  49.3433  40.6202   N.am      1 RES1   0.0000
    10 C10    -27.6577  48.9234  40.9951   C.3       1 RES1   0.0000
    11 C11    -28.3178  49.8749  42.0582   C.2       1 RES1   0.0000
    12 C12    -27.8070  49.9805  43.3926   C.2       1 RES1   0.0000
    13 C13    -28.4120  50.8298  44.3561   C.2       1 RES1   0.0000
    14 C14    -29.5377  51.6219  43.9945   C.2       1 RES1   0.0000
    15 C15    -30.0717  51.5413  42.6701   C.2       1 RES1   0.0000
    16 C16    -29.4643  50.6733  41.7094   C.2       1 RES1   0.0000
    17 C17    -24.4809  51.2373  37.8824   C.2       1 RES1   0.0000
    18 N18    -23.3165  51.9374  37.7347   N.2       1 RES1   0.0000
@<TRIPOS>BOND
     1     1     2    2
     2     2     3    1
     3     3     4    2
     4     4     5    1
     5     5     6    2
     6     6     7    1
     7     7     8    2
     8     7     9   am
     9     9    10    1
    10    10    11    1
    11    11    12    2
    12    12    13    1
    13    13    14    2
    14    14    15    1
    15    15    16    2
    16     6    17    1
    17    17    18    2
    18    18     3    1
    19    16    11    1
@<TRIPOS>SUBSTRUCTURE
     1 RES1        1 GROUP             0 ****  ****    0  
@<TRIPOS>MOLECULE
ligand_59
    18    19     1     0     0
SMALL
NO_CHARGES
****
Generated from the CSD

@<TRIPOS>ATOM
     1 N1     -20.3690  52.7620  39.5820   N.pl3     1 RES1   0.0000
     2 C2     -21.1570  52.7170  38.6040   C.2       1 RES1   0.0000
     3 C3     -22.3210  51.8700  38.7080   C.2       1 RES1   0.0000
     4 N4     -22.4668  51.1704  39.8986   N.2       1 RES1   0.0000
     5 C5     -23.6356  50.4392  40.0568   C.2       1 RES1   0.0000
     6 C6     -24.6374  50.4300  39.0564   C.2       1 RES1   0.0000
     7 C7     -25.8573  49.5040  39.3060   C.2       1 RES1   0.0000
     8 O8     -26.4715  49.0671  38.2871   O.2       1 RES1   0.0000
     9 N9     -26.2846  49.3433  40.6202   N.am      1 RES1   0.0000
    10 C10    -27.3329  48.3778  41.0340   C.3       1 RES1   0.0000
    11 C11    -26.8818  47.4629  42.2301   C.2       1 RES1   0.0000
    12 C12    -25.8236  46.5074  42.0884   C.2       1 RES1   0.0000
    13 C13    -25.4260  45.6720  43.1652   C.2       1 RES1   0.0000
    14 C14    -26.0668  45.7938  44.4301   C.2       1 RES1   0.0000
    15 C15    -27.1260  46.7388  44.6058   C.2       1 RES1   0.0000
    16 C16    -27.5293  47.5674  43.5121   C.2       1 RES1   0.0000
    17 C17    -24.4621  51.2080  37.8654   C.2       1 RES1   0.0000
    18 N18    -23.2986  51.9104  37.7223   N.2       1 RES1   0.0000
@<TRIPOS>BOND
     1     1     2    2
     2     2     3    1
     3     3     4    2
     4     4     5    1
     5     5     6    2
     6     6     7    1
     7     7     8    2
     8     7     9   am
     9     9    10    1
    10    10    11    1
    11    11    12    2
    12    12    13    1
    13    13    14    2
    14    14    15    1
    15    15    16    2
    16     6    17    1
    17    17    18    2
    18    18     3    1
    19    16    11    1
@<TRIPOS>SUBSTRUCTURE
     1 RES1        1 GROUP             0 ****  ****    0  
@<TRIPOS>MOLECULE
ligand_60
    18    19     1     0     0
SMALL
NO_CHARGES
****
Generated from the CSD

@<TRIPOS>ATOM
     1 N1     -20.3690  52.7620  39.5820   N.pl3     1 RES1   0.0000
     2 C2     -21.1570  52.7170  38.6040   C.2       1 RES1   0.0000
     3 C3     -22.3210  51.8700  38.7080   C.2       1 RES1   0.0000
     4 N4     -22.4668  51.1704  39.8986   N.2       1 RES1   0.0000
     5 C5     -23.6356  50.4392  40.0568   C.2       1 RES1   0.0000
     6 C6     -24.6374  50.4300  39.0564   C.2       1 RES1   0.0000
     7 C7     -25.8573  49.5040  39.3060   C.2       1 RES1   0.0000
     8 O8     -26.9549  49.8325  38.7642   O.2       1 RES1   0.0000
     9 N9     -25.7033  48.4711  40.2252   N.am      1 RES1   0.0000
    10 C10    -26.8345  47.8243  40.9356   C.3       1 RES1   0.0000
    11 C11    -26.6225  47.7634  42.4920   C.2       1 RES1   0.0000
    12 C12    -25.5835  46.9704  43.0789   C.2       1 RES1   0.0000
    13 C13    -25.4014  46.9052  44.4853   C.2       1 RES1   0.0000
    14 C14    -26.2467  47.6616  45.3448   C.2       1 RES1   0.0000
    15 C15    -27.2928  48.4647  44.7913   C.2       1 RES1   0.0000
    16 C16    -27.4779  48.5145  43.3740   C.2       1 RES1   0.0000
    17 C17    -24.4621  51.2080  37.8654   C.2       1 RES1   0.0000
    18 N18    -23.2986  51.9104  37.7223   N.2       1 RES1   0.0000
@<TRIPOS>BOND
     1     1     2    2
     2     2     3    1
     3     3     4    2
     4     4     5    1
     5     5     6    2
     6     6     7    1
     7     7     8    2
     8     7     9   am
     9     9    10    1
    10    10    11    1
    11    11    12    2
    12    12    13    1
    13    13    14    2
    14    14    15    1
    15    15    16    2
    16     6    17    1
    17    17    18    2
    18    18     3    1
    19    16    11    1
@<TRIPOS>SUBSTRUCTURE
     1 RES1        1 GROUP             0 ****  ****    0  
@<TRIPOS>MOLECULE
ligand_61
    18    19     1     0     0
SMALL
NO_CHARGES
****
Generated from the CSD

@<TRIPOS>ATOM
     1 N1     -20.4312  52.8594  39.6393   N.pl3     1 RES1   0.0000
     2 C2     -21.1663  52.7355  38.6274   C.2       1 RES1   0.0000
     3 C3     -22.3237  51.8793  38.7294   C.2       1 RES1   0.0000
     4 N4     -22.5231  51.2601  39.9562   N.2       1 RES1   0.0000
     5 C5     -23.6896  50.5230  40.1040   C.2       1 RES1   0.0000
     6 C6     -24.6374  50.4300  39.0564   C.2       1 RES1   0.0000
     7 C7     -25.8573  49.5040  39.3060   C.2       1 RES1   0.0000
     8 O8     -26.9549  49.8325  38.7642   O.2       1 RES1   0.0000
     9 N9     -25.7033  48.4711  40.2252   N.am      1 RES1   0.0000
    10 C10    -26.7354  47.4362  40.4829   C.3       1 RES1   0.0000
    11 C11    -26.1655  45.9733  40.4039   C.2       1 RES1   0.0000
    12 C12    -25.6806  45.4207  39.1742   C.2       1 RES1   0.0000
    13 C13    -25.1787  44.0947  39.1008   C.2       1 RES1   0.0000
    14 C14    -25.1247  43.2919  40.2747   C.2       1 RES1   0.0000
    15 C15    -25.5995  43.8137  41.5190   C.2       1 RES1   0.0000
    16 C16    -26.1158  45.1460  41.5814   C.2       1 RES1   0.0000
    17 C17    -24.4095  51.1278  37.8254   C.2       1 RES1   0.0000
    18 N18    -23.2487  51.8372  37.6943   N.2       1 RES1   0.0000
@<TRIPOS>BOND
     1     1     2    2
     2     2     3    1
     3     3     4    2
     4     4     5    1
     5     5     6    2
     6     6     7    1
     7     7     8    2
     8     7     9   am
     9     9    10    1
    10    10    11    1
    11    11    12    2
    12    12    13    1
    13    13    14    2
    14    14    15    1
    15    15    16    2
    16     6    17    1
    17    17    18    2
    18    18     3    1
    19    16    11    1
@<TRIPOS>SUBSTRUCTURE
     1 RES1        1 GROUP             0 ****  ****    0  
@<TRIPOS>MOLECULE
ligand_62
    18    19     1     0     0
SMALL
NO_CHARGES
****
Generated from the CSD

@<TRIPOS>ATOM
     1 N1     -20.3690  52.7620  39.5820   N.pl3     1 RES1   0.0000
     2 C2     -21.1570  52.7170  38.6040   C.2       1 RES1   0.0000
     3 C3     -22.3210  51.8700  38.7080   C.2       1 RES1   0.0000
     4 N4     -23.1654  51.8490  37.6059   N.2       1 RES1   0.0000
     5 C5     -24.2276  50.9569  37.6470   C.2       1 RES1   0.0000
     6 C6     -24.4215  50.0960  38.7542   C.2       1 RES1   0.0000
     7 C7     -25.6939  49.2084  38.7273   C.2       1 RES1   0.0000
     8 O8     -26.1739  48.8492  39.8439   O.2       1 RES1   0.0000
     9 N9     -26.1273  48.7428  37.4900   N.am      1 RES1   0.0000
    10 C10    -27.4047  48.0160  37.2840   C.3       1 RES1   0.0000
    11 C11    -28.2740  48.6266  36.1253   C.2       1 RES1   0.0000
    12 C12    -28.8437  49.9376  36.2233   C.2       1 RES1   0.0000
    13 C13    -29.6399  50.4829  35.1822   C.2       1 RES1   0.0000
    14 C14    -29.8645  49.7314  33.9946   C.2       1 RES1   0.0000
    15 C15    -29.3090  48.4199  33.8639   C.2       1 RES1   0.0000
    16 C16    -28.5189  47.8727  34.9231   C.2       1 RES1   0.0000
    17 C17    -23.4938  50.1206  39.8466   C.2       1 RES1   0.0000
    18 N18    -22.4623  51.0154  39.7936   N.2       1 RES1   0.0000
@<TRIPOS>BOND
     1     1     2    2
     2     2     3    1
     3     3     4    2
     4     4     5    1
     5     5     6    2
     6     6     7    1
     7     7     8    2
     8     7     9   am
     9     9    10    1
    10    10    11    1
    11    11    12    2
    12    12    13    1
    13    13    14    2
    14    14    15    1
    15    15    16    2
    16     6    17    1
    17    17    18    2
    18    18     3    1
    19    16    11    1
@<TRIPOS>SUBSTRUCTURE
     1 RES1        1 GROUP             0 ****  ****    0  
@<TRIPOS>MOLECULE
ligand_63
    18    19     1     0     0
SMALL
NO_CHARGES
****
Generated from the CSD

@<TRIPOS>ATOM
     1 N1     -20.3690  52.7620  39.5820   N.pl3     1 RES1   0.0000
     2 C2     -21.1570  52.7170  38.6040   C.2       1 RES1   0.0000
     3 C3     -22.3210  51.8700  38.7080   C.2       1 RES1   0.0000
     4 N4     -23.1654  51.8490  37.6059   N.2       1 RES1   0.0000
     5 C5     -24.2276  50.9569  37.6470   C.2       1 RES1   0.0000
     6 C6     -24.4215  50.0960  38.7542   C.2       1 RES1   0.0000
     7 C7     -25.6939  49.2084  38.7273   C.2       1 RES1   0.0000
     8 O8     -26.1739  48.8492  39.8439   O.2       1 RES1   0.0000
     9 N9     -26.1273  48.7428  37.4900   N.am      1 RES1   0.0000
    10 C10    -27.4047  48.0160  37.2840   C.3       1 RES1   0.0000
    11 C11    -28.2740  48.6266  36.1253   C.2       1 RES1   0.0000
    12 C12    -27.8405  48.5892  34.7602   C.2       1 RES1   0.0000
    13 C13    -28.6198  49.1530  33.7161   C.2       1 RES1   0.0000
    14 C14    -29.8772  49.7496  34.0137   C.2       1 RES1   0.0000
    15 C15    -30.3402  49.8022  35.3660   C.2       1 RES1   0.0000
    16 C16    -29.5428  49.2436  36.4136   C.2       1 RES1   0.0000
    17 C17    -23.4938  50.1206  39.8466   C.2       1 RES1   0.0000
    18 N18    -22.4623  51.0154  39.7936   N.2       1 RES1   0.0000
@<TRIPOS>BOND
     1     1     2    2
     2     2     3    1
     3     3     4    2
     4     4     5    1
     5     5     6    2
     6     6     7    1
     7     7     8    2
     8     7     9   am
     9     9    10    1
    10    10    11    1
    11    11    12    2
    12    12    13    1
    13    13    14    2
    14    14    15    1
    15    15    16    2
    16     6    17    1
    17    17    18    2
    18    18     3    1
    19    16    11    1
@<TRIPOS>SUBSTRUCTURE
     1 RES1        1 GROUP             0 ****  ****    0  
@<TRIPOS>MOLECULE
ligand_64
    18    19     1     0     0
SMALL
NO_CHARGES
****
Generated from the CSD

@<TRIPOS>ATOM
     1 N1     -20.3690  52.7620  39.5820   N.pl3     1 RES1   0.0000
     2 C2     -21.1570  52.7170  38.6040   C.2       1 RES1   0.0000
     3 C3     -22.3210  51.8700  38.7080   C.2       1 RES1   0.0000
     4 N4     -23.1654  51.8490  37.6059   N.2       1 RES1   0.0000
     5 C5     -24.2276  50.9569  37.6470   C.2       1 RES1   0.0000
     6 C6     -24.4215  50.0960  38.7542   C.2       1 RES1   0.0000
     7 C7     -25.6939  49.2084  38.7273   C.2       1 RES1   0.0000
     8 O8     -25.6502  48.1130  39.3633   O.2       1 RES1   0.0000
     9 N9     -26.7322  49.5979  37.8872   N.am      1 RES1   0.0000
    10 C10    -27.7672  48.6684  37.3703   C.3       1 RES1   0.0000
    11 C11    -27.9420  48.7564  35.8105   C.2       1 RES1   0.0000
    12 C12    -28.4483  49.9370  35.1760   C.2       1 RES1   0.0000
    13 C13    -28.6187  50.0107  33.7685   C.2       1 RES1   0.0000
    14 C14    -28.2569  48.9025  32.9523   C.2       1 RES1   0.0000
    15 C15    -27.7470  47.7091  33.5537   C.2       1 RES1   0.0000
    16 C16    -27.5909  47.6384  34.9736   C.2       1 RES1   0.0000
    17 C17    -23.4938  50.1206  39.8466   C.2       1 RES1   0.0000
    18 N18    -22.4623  51.0154  39.7936   N.2       1 RES1   0.0000
@<TRIPOS>BOND
     1     1     2    2
     2     2     3    1
     3     3     4    2
     4     4     5    1
     5     5     6    2
     6     6     7    1
     7     7     8    2
     8     7     9   am
     9     9    10    1
    10    10    11    1
    11    11    12    2
    12    12    13    1
    13    13    14    2
    14    14    15    1
    15    15    16    2
    16     6    17    1
    17    17    18    2
    18    18     3    1
    19    16    11    1
@<TRIPOS>SUBSTRUCTURE
     1 RES1        1 GROUP             0 ****  ****    0  
@<TRIPOS>MOLECULE
ligand_65
    18    19     1     0     0
SMALL
NO_CHARGES
****
Generated from the CSD

@<TRIPOS>ATOM
     1 N1     -20.4064  52.8154  39.5907   N.pl3     1 RES1   0.0000
     2 C2     -21.1450  52.7005  38.5803   C.2       1 RES1   0.0000
     3 C3     -22.3155  51.8627  38.6863   C.2       1 RES1   0.0000
     4 N4     -23.1042  51.7629  37.5478   N.2       1 RES1   0.0000
     5 C5     -24.1700  50.8757  37.5994   C.2       1 RES1   0.0000
     6 C6     -24.4215  50.0960  38.7542   C.2       1 RES1   0.0000
     7 C7     -25.6939  49.2084  38.7273   C.2       1 RES1   0.0000
     8 O8     -25.6502  48.1130  39.3633   O.2       1 RES1   0.0000
     9 N9     -26.7322  49.5979  37.8872   N.am      1 RES1   0.0000
    10 C10    -28.0522  48.9212  37.8396   C.3       1 RES1   0.0000
    11 C11    -29.2563  49.9227  37.9753   C.2       1 RES1   0.0000
    12 C12    -29.4906  50.6577  39.1826   C.2       1 RES1   0.0000
    13 C13    -30.5862  51.5516  39.3090   C.2       1 RES1   0.0000
    14 C14    -31.4663  51.7532  38.2089   C.2       1 RES1   0.0000
    15 C15    -31.2598  51.0362  36.9886   C.2       1 RES1   0.0000
    16 C16    -30.1613  50.1276  36.8741   C.2       1 RES1   0.0000
    17 C17    -23.5492  50.1987  39.8870   C.2       1 RES1   0.0000
    18 N18    -22.5133  51.0878  39.8218   N.2       1 RES1   0.0000
@<TRIPOS>BOND
     1     1     2    2
     2     2     3    1
     3     3     4    2
     4     4     5    1
     5     5     6    2
     6     6     7    1
     7     7     8    2
     8     7     9   am
     9     9    10    1
    10    10    11    1
    11    11    12    2
    12    12    13    1
    13    13    14    2
    14    14    15    1
    15    15    16    2
    16     6    17    1
    17    17    18    2
    18    18     3    1
    19    16    11    1
@<TRIPOS>SUBSTRUCTURE
     1 RES1        1 GROUP             0 ****  ****    0  
@<TRIPOS>MOLECULE
ligand_66
    18    19     1     0     0
SMALL
NO_CHARGES
****
Generated from the CSD

@<TRIPOS>ATOM
     1 N1     -20.4064  52.8154  39.5907   N.pl3     1 RES1   0.0000
     2 C2     -21.1450  52.7005  38.5803   C.2       1 RES1   0.0000
     3 C3     -22.3155  51.8627  38.6863   C.2       1 RES1   0.0000
     4 N4     -23.1042  51.7629  37.5478   N.2       1 RES1   0.0000
     5 C5     -24.1700  50.8757  37.5994   C.2       1 RES1   0.0000
     6 C6     -24.4215  50.0960  38.7542   C.2       1 RES1   0.0000
     7 C7     -25.6939  49.2084  38.7273   C.2       1 RES1   0.0000
     8 O8     -25.6502  48.1130  39.3633   O.2       1 RES1   0.0000
     9 N9     -26.7322  49.5979  37.8872   N.am      1 RES1   0.0000
    10 C10    -28.0522  48.9212  37.8396   C.3       1 RES1   0.0000
    11 C11    -29.2563  49.9227  37.9753   C.2       1 RES1   0.0000
    12 C12    -29.5364  50.9026  36.9683   C.2       1 RES1   0.0000
    13 C13    -30.6157  51.8156  37.0981   C.2       1 RES1   0.0000
    14 C14    -31.4653  51.7505  38.2380   C.2       1 RES1   0.0000
    15 C15    -31.2143  50.7830  39.2611   C.2       1 RES1   0.0000
    16 C16    -30.1169  49.8756  39.1289   C.2       1 RES1   0.0000
    17 C17    -23.5492  50.1987  39.8870   C.2       1 RES1   0.0000
    18 N18    -22.5133  51.0878  39.8218   N.2       1 RES1   0.0000
@<TRIPOS>BOND
     1     1     2    2
     2     2     3    1
     3     3     4    2
     4     4     5    1
     5     5     6    2
     6     6     7    1
     7     7     8    2
     8     7     9   am
     9     9    10    1
    10    10    11    1
    11    11    12    2
    12    12    13    1
    13    13    14    2
    14    14    15    1
    15    15    16    2
    16     6    17    1
    17    17    18    2
    18    18     3    1
    19    16    11    1
@<TRIPOS>SUBSTRUCTURE
     1 RES1        1 GROUP             0 ****  ****    0  
@<TRIPOS>MOLECULE
ligand_67
    18    19     1     0     0
SMALL
NO_CHARGES
****
Generated from the CSD

@<TRIPOS>ATOM
     1 N1     -20.3690  52.7620  39.5820   N.pl3     1 RES1   0.0000
     2 C2     -21.1570  52.7170  38.6040   C.2       1 RES1   0.0000
     3 C3     -22.3210  51.8700  38.7080   C.2       1 RES1   0.0000
     4 N4     -22.4668  51.1704  39.8986   N.2       1 RES1   0.0000
     5 C5     -23.6356  50.4392  40.0568   C.2       1 RES1   0.0000
     6 C6     -24.6374  50.4300  39.0564   C.2       1 RES1   0.0000
     7 C7     -25.8573  49.5040  39.3060   C.2       1 RES1   0.0000
     8 O8     -26.9549  49.8325  38.7642   O.2       1 RES1   0.0000
     9 N9     -25.7033  48.4711  40.2252   N.am      1 RES1   0.0000
    10 C10    -26.8345  47.8243  40.9356   C.3       1 RES1   0.0000
    11 C11    -26.6225  47.7634  42.4920   C.2       1 RES1   0.0000
    12 C12    -25.3710  48.1146  43.0948   C.2       1 RES1   0.0000
    13 C13    -25.1762  48.0462  44.4993   C.2       1 RES1   0.0000
    14 C14    -26.2492  47.6465  45.3446   C.2       1 RES1   0.0000
    15 C15    -27.5121  47.2906  44.7752   C.2       1 RES1   0.0000
    16 C16    -27.6959  47.3496  43.3581   C.2       1 RES1   0.0000
    17 C17    -24.4621  51.2080  37.8654   C.2       1 RES1   0.0000
    18 N18    -23.2986  51.9104  37.7223   N.2       1 RES1   0.0000
@<TRIPOS>BOND
     1     1     2    2
     2     2     3    1
     3     3     4    2
     4     4     5    1
     5     5     6    2
     6     6     7    1
     7     7     8    2
     8     7     9   am
     9     9    10    1
    10    10    11    1
    11    11    12    2
    12    12    13    1
    13    13    14    2
    14    14    15    1
    15    15    16    2
    16     6    17    1
    17    17    18    2
    18    18     3    1
    19    16    11    1
@<TRIPOS>SUBSTRUCTURE
     1 RES1        1 GROUP             0 ****  ****    0  
@<TRIPOS>MOLECULE
ligand_68
    18    19     1     0     0
SMALL
NO_CHARGES
****
Generated from the CSD

@<TRIPOS>ATOM
     1 N1     -20.3690  52.7620  39.5820   N.pl3     1 RES1   0.0000
     2 C2     -21.1570  52.7170  38.6040   C.2       1 RES1   0.0000
     3 C3     -22.3210  51.8700  38.7080   C.2       1 RES1   0.0000
     4 N4     -23.1654  51.8490  37.6059   N.2       1 RES1   0.0000
     5 C5     -24.2276  50.9569  37.6470   C.2       1 RES1   0.0000
     6 C6     -24.4215  50.0960  38.7542   C.2       1 RES1   0.0000
     7 C7     -25.6939  49.2084  38.7273   C.2       1 RES1   0.0000
     8 O8     -26.1647  48.9044  37.5906   O.2       1 RES1   0.0000
     9 N9     -26.3154  48.9381  39.9423   N.am      1 RES1   0.0000
    10 C10    -27.7424  48.5509  40.0702   C.3       1 RES1   0.0000
    11 C11    -28.5190  49.4224  41.1230   C.2       1 RES1   0.0000
    12 C12    -27.8383  50.3371  41.9906   C.2       1 RES1   0.0000
    13 C13    -28.5390  51.1139  42.9504   C.2       1 RES1   0.0000
    14 C14    -29.9552  51.0120  43.0466   C.2       1 RES1   0.0000
    15 C15    -30.6656  50.1095  42.1942   C.2       1 RES1   0.0000
    16 C16    -29.9507  49.3209  41.2390   C.2       1 RES1   0.0000
    17 C17    -23.4938  50.1206  39.8466   C.2       1 RES1   0.0000
    18 N18    -22.4623  51.0154  39.7936   N.2       1 RES1   0.0000
@<TRIPOS>BOND
     1     1     2    2
     2     2     3    1
     3     3     4    2
     4     4     5    1
     5     5     6    2
     6     6     7    1
     7     7     8    2
     8     7     9   am
     9     9    10    1
    10    10    11    1
    11    11    12    2
    12    12    13    1
    13    13    14    2
    14    14    15    1
    15    15    16    2
    16     6    17    1
    17    17    18    2
    18    18     3    1
    19    16    11    1
@<TRIPOS>SUBSTRUCTURE
     1 RES1        1 GROUP             0 ****  ****    0  
@<TRIPOS>MOLECULE
ligand_69
    18    19     1     0     0
SMALL
NO_CHARGES
****
Generated from the CSD

@<TRIPOS>ATOM
     1 N1     -20.3690  52.7620  39.5820   N.pl3     1 RES1   0.0000
     2 C2     -21.1570  52.7170  38.6040   C.2       1 RES1   0.0000
     3 C3     -22.3210  51.8700  38.7080   C.2       1 RES1   0.0000
     4 N4     -23.1654  51.8490  37.6059   N.2       1 RES1   0.0000
     5 C5     -24.2276  50.9569  37.6470   C.2       1 RES1   0.0000
     6 C6     -24.4215  50.0960  38.7542   C.2       1 RES1   0.0000
     7 C7     -25.6939  49.2084  38.7273   C.2       1 RES1   0.0000
     8 O8     -25.6502  48.1130  39.3633   O.2       1 RES1   0.0000
     9 N9     -26.7322  49.5979  37.8872   N.am      1 RES1   0.0000
    10 C10    -27.7672  48.6684  37.3703   C.3       1 RES1   0.0000
    11 C11    -27.9420  48.7564  35.8105   C.2       1 RES1   0.0000
    12 C12    -27.3031  49.7807  35.0389   C.2       1 RES1   0.0000
    13 C13    -27.4725  49.8676  33.6320   C.2       1 RES1   0.0000
    14 C14    -28.2719  48.9049  32.9541   C.2       1 RES1   0.0000
    15 C15    -28.9225  47.8684  33.6944   C.2       1 RES1   0.0000
    16 C16    -28.7573  47.7958  35.1132   C.2       1 RES1   0.0000
    17 C17    -23.4938  50.1206  39.8466   C.2       1 RES1   0.0000
    18 N18    -22.4623  51.0154  39.7936   N.2       1 RES1   0.0000
@<TRIPOS>BOND
     1     1     2    2
     2     2     3    1
     3     3     4    2
     4     4     5    1
     5     5     6    2
     6     6     7    1
     7     7     8    2
     8     7     9   am
     9     9    10    1
    10    10    11    1
    11    11    12    2
    12    12    13    1
    13    13    14    2
    14    14    15    1
    15    15    16    2
    16     6    17    1
    17    17    18    2
    18    18     3    1
    19    16    11    1
@<TRIPOS>SUBSTRUCTURE
     1 RES1        1 GROUP             0 ****  ****    0  
@<TRIPOS>MOLECULE
ligand_70
    18    19     1     0     0
SMALL
NO_CHARGES
****
Generated from the CSD

@<TRIPOS>ATOM
     1 N1     -20.3690  52.7620  39.5820   N.pl3     1 RES1   0.0000
     2 C2     -21.1570  52.7170  38.6040   C.2       1 RES1   0.0000
     3 C3     -22.3210  51.8700  38.7080   C.2       1 RES1   0.0000
     4 N4     -22.4668  51.1704  39.8986   N.2       1 RES1   0.0000
     5 C5     -23.6356  50.4392  40.0568   C.2       1 RES1   0.0000
     6 C6     -24.6374  50.4300  39.0564   C.2       1 RES1   0.0000
     7 C7     -25.8573  49.5040  39.3060   C.2       1 RES1   0.0000
     8 O8     -26.1546  49.2491  40.5114   O.2       1 RES1   0.0000
     9 N9     -26.4413  48.8971  38.1987   N.am      1 RES1   0.0000
    10 C10    -27.2520  47.6561  38.2708   C.3       1 RES1   0.0000
    11 C11    -26.7830  46.5607  37.2455   C.2       1 RES1   0.0000
    12 C12    -26.9533  45.1626  37.5084   C.2       1 RES1   0.0000
    13 C13    -26.5171  44.1736  36.5881   C.2       1 RES1   0.0000
    14 C14    -25.9185  44.5658  35.3579   C.2       1 RES1   0.0000
    15 C15    -25.7350  45.9534  35.0636   C.2       1 RES1   0.0000
    16 C16    -26.1653  46.9430  36.0022   C.2       1 RES1   0.0000
    17 C17    -24.4621  51.2080  37.8654   C.2       1 RES1   0.0000
    18 N18    -23.2986  51.9104  37.7223   N.2       1 RES1   0.0000
@<TRIPOS>BOND
     1     1     2    2
     2     2     3    1
     3     3     4    2
     4     4     5    1
     5     5     6    2
     6     6     7    1
     7     7     8    2
     8     7     9   am
     9     9    10    1
    10    10    11    1
    11    11    12    2
    12    12    13    1
    13    13    14    2
    14    14    15    1
    15    15    16    2
    16     6    17    1
    17    17    18    2
    18    18     3    1
    19    16    11    1
@<TRIPOS>SUBSTRUCTURE
     1 RES1        1 GROUP             0 ****  ****    0  
@<TRIPOS>MOLECULE
ligand_71
    18    19     1     0     0
SMALL
NO_CHARGES
****
Generated from the CSD

@<TRIPOS>ATOM
     1 N1     -20.3690  52.7620  39.5820   N.pl3     1 RES1   0.0000
     2 C2     -21.1570  52.7170  38.6040   C.2       1 RES1   0.0000
     3 C3     -22.3210  51.8700  38.7080   C.2       1 RES1   0.0000
     4 N4     -22.4668  51.1704  39.8986   N.2       1 RES1   0.0000
     5 C5     -23.6356  50.4392  40.0568   C.2       1 RES1   0.0000
     6 C6     -24.6374  50.4300  39.0564   C.2       1 RES1   0.0000
     7 C7     -25.8573  49.5040  39.3060   C.2       1 RES1   0.0000
     8 O8     -25.6711  48.4836  40.0343   O.2       1 RES1   0.0000
     9 N9     -27.0226  49.7693  38.5938   N.am      1 RES1   0.0000
    10 C10    -28.3115  49.0737  38.8332   C.3       1 RES1   0.0000
    11 C11    -28.2566  47.5453  38.4694   C.2       1 RES1   0.0000
    12 C12    -28.0764  47.0996  37.1197   C.2       1 RES1   0.0000
    13 C13    -28.0406  45.7192  36.7903   C.2       1 RES1   0.0000
    14 C14    -28.1586  44.7424  37.8186   C.2       1 RES1   0.0000
    15 C15    -28.3381  45.1535  39.1767   C.2       1 RES1   0.0000
    16 C16    -28.3863  46.5462  39.4983   C.2       1 RES1   0.0000
    17 C17    -24.4621  51.2080  37.8654   C.2       1 RES1   0.0000
    18 N18    -23.2986  51.9104  37.7223   N.2       1 RES1   0.0000
@<TRIPOS>BOND
     1     1     2    2
     2     2     3    1
     3     3     4    2
     4     4     5    1
     5     5     6    2
     6     6     7    1
     7     7     8    2
     8     7     9   am
     9     9    10    1
    10    10    11    1
    11    11    12    2
    12    12    13    1
    13    13    14    2
    14    14    15    1
    15    15    16    2
    16     6    17    1
    17    17    18    2
    18    18     3    1
    19    16    11    1
@<TRIPOS>SUBSTRUCTURE
     1 RES1        1 GROUP             0 ****  ****    0  
@<TRIPOS>MOLECULE
ligand_72
    18    19     1     0     0
SMALL
NO_CHARGES
****
Generated from the CSD

@<TRIPOS>ATOM
     1 N1     -20.3690  52.7620  39.5820   N.pl3     1 RES1   0.0000
     2 C2     -21.1570  52.7170  38.6040   C.2       1 RES1   0.0000
     3 C3     -22.3210  51.8700  38.7080   C.2       1 RES1   0.0000
     4 N4     -22.4668  51.1704  39.8986   N.2       1 RES1   0.0000
     5 C5     -23.6356  50.4392  40.0568   C.2       1 RES1   0.0000
     6 C6     -24.6374  50.4300  39.0564   C.2       1 RES1   0.0000
     7 C7     -25.8573  49.5040  39.3060   C.2       1 RES1   0.0000
     8 O8     -26.4715  49.0671  38.2871   O.2       1 RES1   0.0000
     9 N9     -26.2846  49.3433  40.6202   N.am      1 RES1   0.0000
    10 C10    -27.3329  48.3778  41.0340   C.3       1 RES1   0.0000
    11 C11    -28.7512  48.7325  40.4563   C.2       1 RES1   0.0000
    12 C12    -29.4509  49.9174  40.8554   C.2       1 RES1   0.0000
    13 C13    -30.7376  50.2299  40.3435   C.2       1 RES1   0.0000
    14 C14    -31.3488  49.3686  39.3895   C.2       1 RES1   0.0000
    15 C15    -30.6767  48.1783  38.9686   C.2       1 RES1   0.0000
    16 C16    -29.3863  47.8639  39.4992   C.2       1 RES1   0.0000
    17 C17    -24.4621  51.2080  37.8654   C.2       1 RES1   0.0000
    18 N18    -23.2986  51.9104  37.7223   N.2       1 RES1   0.0000
@<TRIPOS>BOND
     1     1     2    2
     2     2     3    1
     3     3     4    2
     4     4     5    1
     5     5     6    2
     6     6     7    1
     7     7     8    2
     8     7     9   am
     9     9    10    1
    10    10    11    1
    11    11    12    2
    12    12    13    1
    13    13    14    2
    14    14    15    1
    15    15    16    2
    16     6    17    1
    17    17    18    2
    18    18     3    1
    19    16    11    1
@<TRIPOS>SUBSTRUCTURE
     1 RES1        1 GROUP             0 ****  ****    0  
@<TRIPOS>MOLECULE
ligand_73
    18    19     1     0     0
SMALL
NO_CHARGES
****
Generated from the CSD

@<TRIPOS>ATOM
     1 N1     -20.4312  52.8594  39.6393   N.pl3     1 RES1   0.0000
     2 C2     -21.1663  52.7355  38.6274   C.2       1 RES1   0.0000
     3 C3     -22.3237  51.8793  38.7294   C.2       1 RES1   0.0000
     4 N4     -22.5231  51.2601  39.9562   N.2       1 RES1   0.0000
     5 C5     -23.6896  50.5230  40.1040   C.2       1 RES1   0.0000
     6 C6     -24.6374  50.4300  39.0564   C.2       1 RES1   0.0000
     7 C7     -25.8573  49.5040  39.3060   C.2       1 RES1   0.0000
     8 O8     -26.9549  49.8325  38.7642   O.2       1 RES1   0.0000
     9 N9     -25.7033  48.4711  40.2252   N.am      1 RES1   0.0000
    10 C10    -26.7354  47.4362  40.4829   C.3       1 RES1   0.0000
    11 C11    -28.0399  48.0244  41.1336   C.2       1 RES1   0.0000
    12 C12    -28.0354  48.5854  42.4520   C.2       1 RES1   0.0000
    13 C13    -29.2169  49.1040  43.0442   C.2       1 RES1   0.0000
    14 C14    -30.4375  49.0977  42.3124   C.2       1 RES1   0.0000
    15 C15    -30.4762  48.5464  40.9932   C.2       1 RES1   0.0000
    16 C16    -29.2843  48.0140  40.4090   C.2       1 RES1   0.0000
    17 C17    -24.4095  51.1278  37.8254   C.2       1 RES1   0.0000
    18 N18    -23.2487  51.8372  37.6943   N.2       1 RES1   0.0000
@<TRIPOS>BOND
     1     1     2    2
     2     2     3    1
     3     3     4    2
     4     4     5    1
     5     5     6    2
     6     6     7    1
     7     7     8    2
     8     7     9   am
     9     9    10    1
    10    10    11    1
    11    11    12    2
    12    12    13    1
    13    13    14    2
    14    14    15    1
    15    15    16    2
    16     6    17    1
    17    17    18    2
    18    18     3    1
    19    16    11    1
@<TRIPOS>SUBSTRUCTURE
     1 RES1        1 GROUP             0 ****  ****    0  
@<TRIPOS>MOLECULE
ligand_74
    18    19     1     0     0
SMALL
NO_CHARGES
****
Generated from the CSD

@<TRIPOS>ATOM
     1 N1     -20.3690  52.7620  39.5820   N.pl3     1 RES1   0.0000
     2 C2     -21.1570  52.7170  38.6040   C.2       1 RES1   0.0000
     3 C3     -22.3210  51.8700  38.7080   C.2       1 RES1   0.0000
     4 N4     -23.1654  51.8490  37.6059   N.2       1 RES1   0.0000
     5 C5     -24.2276  50.9569  37.6470   C.2       1 RES1   0.0000
     6 C6     -24.4215  50.0960  38.7542   C.2       1 RES1   0.0000
     7 C7     -25.6939  49.2084  38.7273   C.2       1 RES1   0.0000
     8 O8     -26.6884  49.6406  38.0712   O.2       1 RES1   0.0000
     9 N9     -25.7106  48.0831  39.5452   N.am      1 RES1   0.0000
    10 C10    -26.9544  47.4230  40.0138   C.3       1 RES1   0.0000
    11 C11    -27.7775  46.7715  38.8437   C.2       1 RES1   0.0000
    12 C12    -27.2710  45.6587  38.0968   C.2       1 RES1   0.0000
    13 C13    -28.0090  45.0797  37.0312   C.2       1 RES1   0.0000
    14 C14    -29.2966  45.5892  36.7026   C.2       1 RES1   0.0000
    15 C15    -29.8323  46.6984  37.4295   C.2       1 RES1   0.0000
    16 C16    -29.0766  47.2843  38.4929   C.2       1 RES1   0.0000
    17 C17    -23.4938  50.1206  39.8466   C.2       1 RES1   0.0000
    18 N18    -22.4623  51.0154  39.7936   N.2       1 RES1   0.0000
@<TRIPOS>BOND
     1     1     2    2
     2     2     3    1
     3     3     4    2
     4     4     5    1
     5     5     6    2
     6     6     7    1
     7     7     8    2
     8     7     9   am
     9     9    10    1
    10    10    11    1
    11    11    12    2
    12    12    13    1
    13    13    14    2
    14    14    15    1
    15    15    16    2
    16     6    17    1
    17    17    18    2
    18    18     3    1
    19    16    11    1
@<TRIPOS>SUBSTRUCTURE
     1 RES1        1 GROUP             0 ****  ****    0  
@<TRIPOS>MOLECULE
ligand_75
    18    19     1     0     0
SMALL
NO_CHARGES
****
Generated from the CSD

@<TRIPOS>ATOM
     1 N1     -20.3690  52.7620  39.5820   N.pl3     1 RES1   0.0000
     2 C2     -21.1570  52.7170  38.6040   C.2       1 RES1   0.0000
     3 C3     -22.3210  51.8700  38.7080   C.2       1 RES1   0.0000
     4 N4     -23.1654  51.8490  37.6059   N.2       1 RES1   0.0000
     5 C5     -24.2276  50.9569  37.6470   C.2       1 RES1   0.0000
     6 C6     -24.4215  50.0960  38.7542   C.2       1 RES1   0.0000
     7 C7     -25.6939  49.2084  38.7273   C.2       1 RES1   0.0000
     8 O8     -26.1647  48.9044  37.5906   O.2       1 RES1   0.0000
     9 N9     -26.3154  48.9381  39.9423   N.am      1 RES1   0.0000
    10 C10    -27.7424  48.5509  40.0702   C.3       1 RES1   0.0000
    11 C11    -28.0547  47.1514  39.4260   C.2       1 RES1   0.0000
    12 C12    -27.5061  45.9394  39.9580   C.2       1 RES1   0.0000
    13 C13    -27.7777  44.6773  39.3674   C.2       1 RES1   0.0000
    14 C14    -28.6357  44.5953  38.2349   C.2       1 RES1   0.0000
    15 C15    -29.2012  45.7860  37.6798   C.2       1 RES1   0.0000
    16 C16    -28.9119  47.0549  38.2729   C.2       1 RES1   0.0000
    17 C17    -23.4938  50.1206  39.8466   C.2       1 RES1   0.0000
    18 N18    -22.4623  51.0154  39.7936   N.2       1 RES1   0.0000
@<TRIPOS>BOND
     1     1     2    2
     2     2     3    1
     3     3     4    2
     4     4     5    1
     5     5     6    2
     6     6     7    1
     7     7     8    2
     8     7     9   am
     9     9    10    1
    10    10    11    1
    11    11    12    2
    12    12    13    1
    13    13    14    2
    14    14    15    1
    15    15    16    2
    16     6    17    1
    17    17    18    2
    18    18     3    1
    19    16    11    1
@<TRIPOS>SUBSTRUCTURE
     1 RES1        1 GROUP             0 ****  ****    0  
@<TRIPOS>MOLECULE
ligand_76
    18    19     1     0     0
SMALL
NO_CHARGES
****
Generated from the CSD

@<TRIPOS>ATOM
     1 N1     -20.3690  52.7620  39.5820   N.pl3     1 RES1   0.0000
     2 C2     -21.1570  52.7170  38.6040   C.2       1 RES1   0.0000
     3 C3     -22.3210  51.8700  38.7080   C.2       1 RES1   0.0000
     4 N4     -23.1654  51.8490  37.6059   N.2       1 RES1   0.0000
     5 C5     -24.2276  50.9569  37.6470   C.2       1 RES1   0.0000
     6 C6     -24.4215  50.0960  38.7542   C.2       1 RES1   0.0000
     7 C7     -25.6939  49.2084  38.7273   C.2       1 RES1   0.0000
     8 O8     -26.1739  48.8492  39.8439   O.2       1 RES1   0.0000
     9 N9     -26.1273  48.7428  37.4900   N.am      1 RES1   0.0000
    10 C10    -27.4047  48.0160  37.2840   C.3       1 RES1   0.0000
    11 C11    -27.4285  46.6120  37.9906   C.2       1 RES1   0.0000
    12 C12    -26.5638  45.5472  37.5768   C.2       1 RES1   0.0000
    13 C13    -26.5955  44.2752  38.2064   C.2       1 RES1   0.0000
    14 C14    -27.4838  44.0454  39.2944   C.2       1 RES1   0.0000
    15 C15    -28.3594  45.0876  39.7335   C.2       1 RES1   0.0000
    16 C16    -28.3304  46.3620  39.0850   C.2       1 RES1   0.0000
    17 C17    -23.4938  50.1206  39.8466   C.2       1 RES1   0.0000
    18 N18    -22.4623  51.0154  39.7936   N.2       1 RES1   0.0000
@<TRIPOS>BOND
     1     1     2    2
     2     2     3    1
     3     3     4    2
     4     4     5    1
     5     5     6    2
     6     6     7    1
     7     7     8    2
     8     7     9   am
     9     9    10    1
    10    10    11    1
    11    11    12    2
    12    12    13    1
    13    13    14    2
    14    14    15    1
    15    15    16    2
    16     6    17    1
    17    17    18    2
    18    18     3    1
    19    16    11    1
@<TRIPOS>SUBSTRUCTURE
     1 RES1        1 GROUP             0 ****  ****    0  
@<TRIPOS>MOLECULE
ligand_77
    18    19     1     0     0
SMALL
NO_CHARGES
****
Generated from the CSD

@<TRIPOS>ATOM
     1 N1     -20.3690  52.7620  39.5820   N.pl3     1 RES1   0.0000
     2 C2     -21.1570  52.7170  38.6040   C.2       1 RES1   0.0000
     3 C3     -22.3210  51.8700  38.7080   C.2       1 RES1   0.0000
     4 N4     -23.1654  51.8490  37.6059   N.2       1 RES1   0.0000
     5 C5     -24.2276  50.9569  37.6470   C.2       1 RES1   0.0000
     6 C6     -24.4215  50.0960  38.7542   C.2       1 RES1   0.0000
     7 C7     -25.6939  49.2084  38.7273   C.2       1 RES1   0.0000
     8 O8     -26.1739  48.8492  39.8439   O.2       1 RES1   0.0000
     9 N9     -26.1273  48.7428  37.4900   N.am      1 RES1   0.0000
    10 C10    -27.3877  47.9854  37.2896   C.3       1 RES1   0.0000
    11 C11    -27.3054  46.5108  37.8280   C.2       1 RES1   0.0000
    12 C12    -27.3243  46.2203  39.2308   C.2       1 RES1   0.0000
    13 C13    -27.2362  44.8892  39.7166   C.2       1 RES1   0.0000
    14 C14    -27.1536  43.8045  38.7990   C.2       1 RES1   0.0000
    15 C15    -27.1339  44.0596  37.3918   C.2       1 RES1   0.0000
    16 C16    -27.2097  45.4045  36.9111   C.2       1 RES1   0.0000
    17 C17    -23.4938  50.1206  39.8466   C.2       1 RES1   0.0000
    18 N18    -22.4623  51.0154  39.7936   N.2       1 RES1   0.0000
@<TRIPOS>BOND
     1     1     2    2
     2     2     3    1
     3     3     4    2
     4     4     5    1
     5     5     6    2
     6     6     7    1
     7     7     8    2
     8     7     9   am
     9     9    10    1
    10    10    11    1
    11    11    12    2
    12    12    13    1
    13    13    14    2
    14    14    15    1
    15    15    16    2
    16     6    17    1
    17    17    18    2
    18    18     3    1
    19    16    11    1
@<TRIPOS>SUBSTRUCTURE
     1 RES1        1 GROUP             0 ****  ****    0  
@<TRIPOS>MOLECULE
ligand_78
    18    19     1     0     0
SMALL
NO_CHARGES
****
Generated from the CSD

@<TRIPOS>ATOM
     1 N1     -20.3690  52.7620  39.5820   N.pl3     1 RES1   0.0000
     2 C2     -21.1570  52.7170  38.6040   C.2       1 RES1   0.0000
     3 C3     -22.3210  51.8700  38.7080   C.2       1 RES1   0.0000
     4 N4     -22.4668  51.1704  39.8986   N.2       1 RES1   0.0000
     5 C5     -23.6356  50.4392  40.0568   C.2       1 RES1   0.0000
     6 C6     -24.6374  50.4300  39.0564   C.2       1 RES1   0.0000
     7 C7     -25.8573  49.5040  39.3060   C.2       1 RES1   0.0000
     8 O8     -25.6711  48.4836  40.0343   O.2       1 RES1   0.0000
     9 N9     -27.0226  49.7693  38.5938   N.am      1 RES1   0.0000
    10 C10    -28.0940  48.7685  38.3636   C.3       1 RES1   0.0000
    11 C11    -28.9406  48.4733  39.6549   C.2       1 RES1   0.0000
    12 C12    -28.4146  47.6962  40.7375   C.2       1 RES1   0.0000
    13 C13    -29.1848  47.4186  41.8974   C.2       1 RES1   0.0000
    14 C14    -30.5036  47.9408  42.0136   C.2       1 RES1   0.0000
    15 C15    -31.0583  48.7218  40.9515   C.2       1 RES1   0.0000
    16 C16    -30.2805  48.9857  39.7807   C.2       1 RES1   0.0000
    17 C17    -24.4621  51.2080  37.8654   C.2       1 RES1   0.0000
    18 N18    -23.2986  51.9104  37.7223   N.2       1 RES1   0.0000
@<TRIPOS>BOND
     1     1     2    2
     2     2     3    1
     3     3     4    2
     4     4     5    1
     5     5     6    2
     6     6     7    1
     7     7     8    2
     8     7     9   am
     9     9    10    1
    10    10    11    1
    11    11    12    2
    12    12    13    1
    13    13    14    2
    14    14    15    1
    15    15    16    2
    16     6    17    1
    17    17    18    2
    18    18     3    1
    19    16    11    1
@<TRIPOS>SUBSTRUCTURE
     1 RES1        1 GROUP             0 ****  ****    0  
@<TRIPOS>MOLECULE
ligand_79
    18    19     1     0     0
SMALL
NO_CHARGES
****
Generated from the CSD

@<TRIPOS>ATOM
     1 N1     -20.3690  52.7620  39.5820   N.pl3     1 RES1   0.0000
     2 C2     -21.1570  52.7170  38.6040   C.2       1 RES1   0.0000
     3 C3     -22.3210  51.8700  38.7080   C.2       1 RES1   0.0000
     4 N4     -22.4668  51.1704  39.8986   N.2       1 RES1   0.0000
     5 C5     -23.6356  50.4392  40.0568   C.2       1 RES1   0.0000
     6 C6     -24.6374  50.4300  39.0564   C.2       1 RES1   0.0000
     7 C7     -25.8573  49.5040  39.3060   C.2       1 RES1   0.0000
     8 O8     -26.1546  49.2491  40.5114   O.2       1 RES1   0.0000
     9 N9     -26.4413  48.8971  38.1987   N.am      1 RES1   0.0000
    10 C10    -27.2843  47.6780  38.2757   C.3       1 RES1   0.0000
    11 C11    -28.7069  47.9575  38.8833   C.2       1 RES1   0.0000
    12 C12    -28.8920  48.2025  40.2827   C.2       1 RES1   0.0000
    13 C13    -30.1789  48.4413  40.8327   C.2       1 RES1   0.0000
    14 C14    -31.3191  48.4675  39.9815   C.2       1 RES1   0.0000
    15 C15    -31.1691  48.2283  38.5794   C.2       1 RES1   0.0000
    16 C16    -29.8707  47.9754  38.0354   C.2       1 RES1   0.0000
    17 C17    -24.4621  51.2080  37.8654   C.2       1 RES1   0.0000
    18 N18    -23.2986  51.9104  37.7223   N.2       1 RES1   0.0000
@<TRIPOS>BOND
     1     1     2    2
     2     2     3    1
     3     3     4    2
     4     4     5    1
     5     5     6    2
     6     6     7    1
     7     7     8    2
     8     7     9   am
     9     9    10    1
    10    10    11    1
    11    11    12    2
    12    12    13    1
    13    13    14    2
    14    14    15    1
    15    15    16    2
    16     6    17    1
    17    17    18    2
    18    18     3    1
    19    16    11    1
@<TRIPOS>SUBSTRUCTURE
     1 RES1        1 GROUP             0 ****  ****    0  
@<TRIPOS>MOLECULE
ligand_80
    18    19     1     0     0
SMALL
NO_CHARGES
****
Generated from the CSD

@<TRIPOS>ATOM
     1 N1     -20.3703  52.7641  39.5834   N.pl3     1 RES1   0.0000
     2 C2     -21.1572  52.7174  38.6045   C.2       1 RES1   0.0000
     3 C3     -22.3210  51.8702  38.7085   C.2       1 RES1   0.0000
     4 N4     -22.4680  51.1724  39.9000   N.2       1 RES1   0.0000
     5 C5     -23.6368  50.4410  40.0580   C.2       1 RES1   0.0000
     6 C6     -24.6374  50.4300  39.0564   C.2       1 RES1   0.0000
     7 C7     -25.8573  49.5040  39.3060   C.2       1 RES1   0.0000
     8 O8     -26.9549  49.8325  38.7642   O.2       1 RES1   0.0000
     9 N9     -25.7033  48.4711  40.2252   N.am      1 RES1   0.0000
    10 C10    -26.8369  47.7995  40.9081   C.3       1 RES1   0.0000
    11 C11    -27.6427  46.8430  39.9558   C.2       1 RES1   0.0000
    12 C12    -28.5222  47.3531  38.9464   C.2       1 RES1   0.0000
    13 C13    -29.2600  46.4884  38.0958   C.2       1 RES1   0.0000
    14 C14    -29.1121  45.0783  38.2190   C.2       1 RES1   0.0000
    15 C15    -28.2410  44.5361  39.2154   C.2       1 RES1   0.0000
    16 C16    -27.5115  45.4141  40.0771   C.2       1 RES1   0.0000
    17 C17    -24.4610  51.2062  37.8645   C.2       1 RES1   0.0000
    18 N18    -23.2975  51.9088  37.7216   N.2       1 RES1   0.0000
@<TRIPOS>BOND
     1     1     2    2
     2     2     3    1
     3     3     4    2
     4     4     5    1
     5     5     6    2
     6     6     7    1
     7     7     8    2
     8     7     9   am
     9     9    10    1
    10    10    11    1
    11    11    12    2
    12    12    13    1
    13    13    14    2
    14    14    15    1
    15    15    16    2
    16     6    17    1
    17    17    18    2
    18    18     3    1
    19    16    11    1
@<TRIPOS>SUBSTRUCTURE
     1 RES1        1 GROUP             0 ****  ****    0  
@<TRIPOS>MOLECULE
ligand_81
    18    19     1     0     0
SMALL
NO_CHARGES
****
Generated from the CSD

@<TRIPOS>ATOM
     1 N1     -20.3690  52.7620  39.5820   N.pl3     1 RES1   0.0000
     2 C2     -21.1570  52.7170  38.6040   C.2       1 RES1   0.0000
     3 C3     -22.3210  51.8700  38.7080   C.2       1 RES1   0.0000
     4 N4     -23.1654  51.8490  37.6059   N.2       1 RES1   0.0000
     5 C5     -24.2276  50.9569  37.6470   C.2       1 RES1   0.0000
     6 C6     -24.4215  50.0960  38.7542   C.2       1 RES1   0.0000
     7 C7     -25.6939  49.2084  38.7273   C.2       1 RES1   0.0000
     8 O8     -26.6884  49.6406  38.0712   O.2       1 RES1   0.0000
     9 N9     -25.7106  48.0831  39.5452   N.am      1 RES1   0.0000
    10 C10    -26.7846  47.0593  39.5169   C.3       1 RES1   0.0000
    11 C11    -28.1725  47.6176  39.9997   C.2       1 RES1   0.0000
    12 C12    -28.2959  48.9169  40.5907   C.2       1 RES1   0.0000
    13 C13    -29.5475  49.4149  41.0390   C.2       1 RES1   0.0000
    14 C14    -30.7215  48.6265  40.8797   C.2       1 RES1   0.0000
    15 C15    -30.6335  47.3254  40.2923   C.2       1 RES1   0.0000
    16 C16    -29.3666  46.8259  39.8553   C.2       1 RES1   0.0000
    17 C17    -23.4938  50.1206  39.8466   C.2       1 RES1   0.0000
    18 N18    -22.4623  51.0154  39.7936   N.2       1 RES1   0.0000
@<TRIPOS>BOND
     1     1     2    2
     2     2     3    1
     3     3     4    2
     4     4     5    1
     5     5     6    2
     6     6     7    1
     7     7     8    2
     8     7     9   am
     9     9    10    1
    10    10    11    1
    11    11    12    2
    12    12    13    1
    13    13    14    2
    14    14    15    1
    15    15    16    2
    16     6    17    1
    17    17    18    2
    18    18     3    1
    19    16    11    1
@<TRIPOS>SUBSTRUCTURE
     1 RES1        1 GROUP             0 ****  ****    0  
@<TRIPOS>MOLECULE
ligand_82
    18    19     1     0     0
SMALL
NO_CHARGES
****
Generated from the CSD

@<TRIPOS>ATOM
     1 N1     -20.3690  52.7620  39.5820   N.pl3     1 RES1   0.0000
     2 C2     -21.1570  52.7170  38.6040   C.2       1 RES1   0.0000
     3 C3     -22.3210  51.8700  38.7080   C.2       1 RES1   0.0000
     4 N4     -23.1654  51.8490  37.6059   N.2       1 RES1   0.0000
     5 C5     -24.2276  50.9569  37.6470   C.2       1 RES1   0.0000
     6 C6     -24.4215  50.0960  38.7542   C.2       1 RES1   0.0000
     7 C7     -25.6939  49.2084  38.7273   C.2       1 RES1   0.0000
     8 O8     -26.1739  48.8492  39.8439   O.2       1 RES1   0.0000
     9 N9     -26.1273  48.7428  37.4900   N.am      1 RES1   0.0000
    10 C10    -27.4047  48.0160  37.2840   C.3       1 RES1   0.0000
    11 C11    -27.4285  46.6120  37.9906   C.2       1 RES1   0.0000
    12 C12    -26.2513  46.0470  38.5803   C.2       1 RES1   0.0000
    13 C13    -26.2706  44.7728  39.2062   C.2       1 RES1   0.0000
    14 C14    -27.4876  44.0388  39.2811   C.2       1 RES1   0.0000
    15 C15    -28.6813  44.5749  38.7037   C.2       1 RES1   0.0000
    16 C16    -28.6503  45.8533  38.0634   C.2       1 RES1   0.0000
    17 C17    -23.4938  50.1206  39.8466   C.2       1 RES1   0.0000
    18 N18    -22.4623  51.0154  39.7936   N.2       1 RES1   0.0000
@<TRIPOS>BOND
     1     1     2    2
     2     2     3    1
     3     3     4    2
     4     4     5    1
     5     5     6    2
     6     6     7    1
     7     7     8    2
     8     7     9   am
     9     9    10    1
    10    10    11    1
    11    11    12    2
    12    12    13    1
    13    13    14    2
    14    14    15    1
    15    15    16    2
    16     6    17    1
    17    17    18    2
    18    18     3    1
    19    16    11    1
@<TRIPOS>SUBSTRUCTURE
     1 RES1        1 GROUP             0 ****  ****    0  
@<TRIPOS>MOLECULE
ligand_83
    18    19     1     0     0
SMALL
NO_CHARGES
****
Generated from the CSD

@<TRIPOS>ATOM
     1 N1     -20.3690  52.7620  39.5820   N.pl3     1 RES1   0.0000
     2 C2     -21.1570  52.7170  38.6040   C.2       1 RES1   0.0000
     3 C3     -22.3210  51.8700  38.7080   C.2       1 RES1   0.0000
     4 N4     -23.1654  51.8490  37.6059   N.2       1 RES1   0.0000
     5 C5     -24.2276  50.9569  37.6470   C.2       1 RES1   0.0000
     6 C6     -24.4215  50.0960  38.7542   C.2       1 RES1   0.0000
     7 C7     -25.6939  49.2084  38.7273   C.2       1 RES1   0.0000
     8 O8     -26.1739  48.8492  39.8439   O.2       1 RES1   0.0000
     9 N9     -26.1273  48.7428  37.4900   N.am      1 RES1   0.0000
    10 C10    -27.4073  48.0207  37.2831   C.3       1 RES1   0.0000
    11 C11    -28.6626  48.9603  37.3941   C.2       1 RES1   0.0000
    12 C12    -29.8689  48.6923  36.6689   C.2       1 RES1   0.0000
    13 C13    -30.9974  49.5489  36.7591   C.2       1 RES1   0.0000
    14 C14    -30.9538  50.6909  37.6072   C.2       1 RES1   0.0000
    15 C15    -29.7654  50.9864  38.3462   C.2       1 RES1   0.0000
    16 C16    -28.6283  50.1256  38.2395   C.2       1 RES1   0.0000
    17 C17    -23.4938  50.1206  39.8466   C.2       1 RES1   0.0000
    18 N18    -22.4623  51.0154  39.7936   N.2       1 RES1   0.0000
@<TRIPOS>BOND
     1     1     2    2
     2     2     3    1
     3     3     4    2
     4     4     5    1
     5     5     6    2
     6     6     7    1
     7     7     8    2
     8     7     9   am
     9     9    10    1
    10    10    11    1
    11    11    12    2
    12    12    13    1
    13    13    14    2
    14    14    15    1
    15    15    16    2
    16     6    17    1
    17    17    18    2
    18    18     3    1
    19    16    11    1
@<TRIPOS>SUBSTRUCTURE
     1 RES1        1 GROUP             0 ****  ****    0  
@<TRIPOS>MOLECULE
ligand_84
    18    19     1     0     0
SMALL
NO_CHARGES
****
Generated from the CSD

@<TRIPOS>ATOM
     1 N1     -20.3690  52.7620  39.5820   N.pl3     1 RES1   0.0000
     2 C2     -21.1570  52.7170  38.6040   C.2       1 RES1   0.0000
     3 C3     -22.3210  51.8700  38.7080   C.2       1 RES1   0.0000
     4 N4     -22.4668  51.1704  39.8986   N.2       1 RES1   0.0000
     5 C5     -23.6356  50.4392  40.0568   C.2       1 RES1   0.0000
     6 C6     -24.6374  50.4300  39.0564   C.2       1 RES1   0.0000
     7 C7     -25.8573  49.5040  39.3060   C.2       1 RES1   0.0000
     8 O8     -25.6219  48.2727  39.4926   O.2       1 RES1   0.0000
     9 N9     -27.1254  50.0560  39.1550   N.am      1 RES1   0.0000
    10 C10    -28.3795  49.2634  39.1937   C.3       1 RES1   0.0000
    11 C11    -29.6523  50.1181  38.8467   C.2       1 RES1   0.0000
    12 C12    -29.5802  51.2561  37.9792   C.2       1 RES1   0.0000
    13 C13    -30.7277  52.0357  37.6772   C.2       1 RES1   0.0000
    14 C14    -31.9924  51.6743  38.2206   C.2       1 RES1   0.0000
    15 C15    -32.0994  50.5429  39.0891   C.2       1 RES1   0.0000
    16 C16    -30.9361  49.7708  39.3988   C.2       1 RES1   0.0000
    17 C17    -24.4621  51.2080  37.8654   C.2       1 RES1   0.0000
    18 N18    -23.2986  51.9104  37.7223   N.2       1 RES1   0.0000
@<TRIPOS>BOND
     1     1     2    2
     2     2     3    1
     3     3     4    2
     4     4     5    1
     5     5     6    2
     6     6     7    1
     7     7     8    2
     8     7     9   am
     9     9    10    1
    10    10    11    1
    11    11    12    2
    12    12    13    1
    13    13    14    2
    14    14    15    1
    15    15    16    2
    16     6    17    1
    17    17    18    2
    18    18     3    1
    19    16    11    1
@<TRIPOS>SUBSTRUCTURE
     1 RES1        1 GROUP             0 ****  ****    0  
@<TRIPOS>MOLECULE
ligand_85
    18    19     1     0     0
SMALL
NO_CHARGES
****
Generated from the CSD

@<TRIPOS>ATOM
     1 N1     -20.3690  52.7620  39.5820   N.pl3     1 RES1   0.0000
     2 C2     -21.1570  52.7170  38.6040   C.2       1 RES1   0.0000
     3 C3     -22.3210  51.8700  38.7080   C.2       1 RES1   0.0000
     4 N4     -22.4668  51.1704  39.8986   N.2       1 RES1   0.0000
     5 C5     -23.6356  50.4392  40.0568   C.2       1 RES1   0.0000
     6 C6     -24.6374  50.4300  39.0564   C.2       1 RES1   0.0000
     7 C7     -25.8573  49.5040  39.3060   C.2       1 RES1   0.0000
     8 O8     -26.5149  49.6868  40.3739   O.2       1 RES1   0.0000
     9 N9     -26.0516  48.4448  38.4253   N.am      1 RES1   0.0000
    10 C10    -27.0664  47.3807  38.6266   C.3       1 RES1   0.0000
    11 C11    -26.9660  46.2319  37.5584   C.2       1 RES1   0.0000
    12 C12    -25.7216  45.8913  36.9352   C.2       1 RES1   0.0000
    13 C13    -25.6343  44.8628  35.9605   C.2       1 RES1   0.0000
    14 C14    -26.7977  44.1252  35.6030   C.2       1 RES1   0.0000
    15 C15    -28.0555  44.4387  36.2074   C.2       1 RES1   0.0000
    16 C16    -28.1373  45.4852  37.1788   C.2       1 RES1   0.0000
    17 C17    -24.4621  51.2080  37.8654   C.2       1 RES1   0.0000
    18 N18    -23.2986  51.9104  37.7223   N.2       1 RES1   0.0000
@<TRIPOS>BOND
     1     1     2    2
     2     2     3    1
     3     3     4    2
     4     4     5    1
     5     5     6    2
     6     6     7    1
     7     7     8    2
     8     7     9   am
     9     9    10    1
    10    10    11    1
    11    11    12    2
    12    12    13    1
    13    13    14    2
    14    14    15    1
    15    15    16    2
    16     6    17    1
    17    17    18    2
    18    18     3    1
    19    16    11    1
@<TRIPOS>SUBSTRUCTURE
     1 RES1        1 GROUP             0 ****  ****    0  
@<TRIPOS>MOLECULE
ligand_86
    18    19     1     0     0
SMALL
NO_CHARGES
****
Generated from the CSD

@<TRIPOS>ATOM
     1 N1     -20.3690  52.7620  39.5820   N.pl3     1 RES1   0.0000
     2 C2     -21.1570  52.7170  38.6040   C.2       1 RES1   0.0000
     3 C3     -22.3210  51.8700  38.7080   C.2       1 RES1   0.0000
     4 N4     -22.4668  51.1704  39.8986   N.2       1 RES1   0.0000
     5 C5     -23.6356  50.4392  40.0568   C.2       1 RES1   0.0000
     6 C6     -24.6374  50.4300  39.0564   C.2       1 RES1   0.0000
     7 C7     -25.8573  49.5040  39.3060   C.2       1 RES1   0.0000
     8 O8     -26.1111  48.6294  38.4246   O.2       1 RES1   0.0000
     9 N9     -26.6743  49.7956  40.3937   N.am      1 RES1   0.0000
    10 C10    -27.9631  49.1110  40.6637   C.3       1 RES1   0.0000
    11 C11    -28.7471  49.7410  41.8718   C.2       1 RES1   0.0000
    12 C12    -28.6152  51.1262  42.2134   C.2       1 RES1   0.0000
    13 C13    -29.3131  51.6913  43.3130   C.2       1 RES1   0.0000
    14 C14    -30.1895  50.8806  44.0878   C.2       1 RES1   0.0000
    15 C15    -30.3451  49.4942  43.7726   C.2       1 RES1   0.0000
    16 C16    -29.6281  48.9298  42.6713   C.2       1 RES1   0.0000
    17 C17    -24.4621  51.2080  37.8654   C.2       1 RES1   0.0000
    18 N18    -23.2986  51.9104  37.7223   N.2       1 RES1   0.0000
@<TRIPOS>BOND
     1     1     2    2
     2     2     3    1
     3     3     4    2
     4     4     5    1
     5     5     6    2
     6     6     7    1
     7     7     8    2
     8     7     9   am
     9     9    10    1
    10    10    11    1
    11    11    12    2
    12    12    13    1
    13    13    14    2
    14    14    15    1
    15    15    16    2
    16     6    17    1
    17    17    18    2
    18    18     3    1
    19    16    11    1
@<TRIPOS>SUBSTRUCTURE
     1 RES1        1 GROUP             0 ****  ****    0  
@<TRIPOS>MOLECULE
ligand_87
    18    19     1     0     0
SMALL
NO_CHARGES
****
Generated from the CSD

@<TRIPOS>ATOM
     1 N1     -20.3690  52.7620  39.5820   N.pl3     1 RES1   0.0000
     2 C2     -21.1570  52.7170  38.6040   C.2       1 RES1   0.0000
     3 C3     -22.3210  51.8700  38.7080   C.2       1 RES1   0.0000
     4 N4     -23.1654  51.8490  37.6059   N.2       1 RES1   0.0000
     5 C5     -24.2276  50.9569  37.6470   C.2       1 RES1   0.0000
     6 C6     -24.4215  50.0960  38.7542   C.2       1 RES1   0.0000
     7 C7     -25.6939  49.2084  38.7273   C.2       1 RES1   0.0000
     8 O8     -26.8103  49.7987  38.6194   O.2       1 RES1   0.0000
     9 N9     -25.5353  47.8491  38.9775   N.am      1 RES1   0.0000
    10 C10    -26.6674  46.9054  39.1520   C.3       1 RES1   0.0000
    11 C11    -26.2009  45.4639  39.5710   C.2       1 RES1   0.0000
    12 C12    -25.0012  45.2513  40.3249   C.2       1 RES1   0.0000
    13 C13    -24.5734  43.9481  40.6911   C.2       1 RES1   0.0000
    14 C14    -25.3591  42.8174  40.3309   C.2       1 RES1   0.0000
    15 C15    -26.5631  42.9948  39.5796   C.2       1 RES1   0.0000
    16 C16    -26.9800  44.3101  39.2032   C.2       1 RES1   0.0000
    17 C17    -23.4938  50.1206  39.8466   C.2       1 RES1   0.0000
    18 N18    -22.4623  51.0154  39.7936   N.2       1 RES1   0.0000
@<TRIPOS>BOND
     1     1     2    2
     2     2     3    1
     3     3     4    2
     4     4     5    1
     5     5     6    2
     6     6     7    1
     7     7     8    2
     8     7     9   am
     9     9    10    1
    10    10    11    1
    11    11    12    2
    12    12    13    1
    13    13    14    2
    14    14    15    1
    15    15    16    2
    16     6    17    1
    17    17    18    2
    18    18     3    1
    19    16    11    1
@<TRIPOS>SUBSTRUCTURE
     1 RES1        1 GROUP             0 ****  ****    0  
@<TRIPOS>MOLECULE
ligand_88
    18    19     1     0     0
SMALL
NO_CHARGES
****
Generated from the CSD

@<TRIPOS>ATOM
     1 N1     -20.3690  52.7620  39.5820   N.pl3     1 RES1   0.0000
     2 C2     -21.1570  52.7170  38.6040   C.2       1 RES1   0.0000
     3 C3     -22.3210  51.8700  38.7080   C.2       1 RES1   0.0000
     4 N4     -22.4668  51.1704  39.8986   N.2       1 RES1   0.0000
     5 C5     -23.6356  50.4392  40.0568   C.2       1 RES1   0.0000
     6 C6     -24.6374  50.4300  39.0564   C.2       1 RES1   0.0000
     7 C7     -25.8573  49.5040  39.3060   C.2       1 RES1   0.0000
     8 O8     -25.6219  48.2727  39.4926   O.2       1 RES1   0.0000
     9 N9     -27.1254  50.0560  39.1550   N.am      1 RES1   0.0000
    10 C10    -28.3795  49.2634  39.1937   C.3       1 RES1   0.0000
    11 C11    -29.3152  49.5416  37.9615   C.2       1 RES1   0.0000
    12 C12    -28.9318  49.1796  36.6293   C.2       1 RES1   0.0000
    13 C13    -29.7715  49.4436  35.5155   C.2       1 RES1   0.0000
    14 C14    -31.0398  50.0579  35.7145   C.2       1 RES1   0.0000
    15 C15    -31.4537  50.4305  37.0319   C.2       1 RES1   0.0000
    16 C16    -30.5960  50.1730  38.1470   C.2       1 RES1   0.0000
    17 C17    -24.4621  51.2080  37.8654   C.2       1 RES1   0.0000
    18 N18    -23.2986  51.9104  37.7223   N.2       1 RES1   0.0000
@<TRIPOS>BOND
     1     1     2    2
     2     2     3    1
     3     3     4    2
     4     4     5    1
     5     5     6    2
     6     6     7    1
     7     7     8    2
     8     7     9   am
     9     9    10    1
    10    10    11    1
    11    11    12    2
    12    12    13    1
    13    13    14    2
    14    14    15    1
    15    15    16    2
    16     6    17    1
    17    17    18    2
    18    18     3    1
    19    16    11    1
@<TRIPOS>SUBSTRUCTURE
     1 RES1        1 GROUP             0 ****  ****    0  
@<TRIPOS>MOLECULE
ligand_89
    18    19     1     0     0
SMALL
NO_CHARGES
****
Generated from the CSD

@<TRIPOS>ATOM
     1 N1     -20.3690  52.7620  39.5820   N.pl3     1 RES1   0.0000
     2 C2     -21.1570  52.7170  38.6040   C.2       1 RES1   0.0000
     3 C3     -22.3210  51.8700  38.7080   C.2       1 RES1   0.0000
     4 N4     -22.4668  51.1704  39.8986   N.2       1 RES1   0.0000
     5 C5     -23.6356  50.4392  40.0568   C.2       1 RES1   0.0000
     6 C6     -24.6374  50.4300  39.0564   C.2       1 RES1   0.0000
     7 C7     -25.8573  49.5040  39.3060   C.2       1 RES1   0.0000
     8 O8     -26.5149  49.6868  40.3739   O.2       1 RES1   0.0000
     9 N9     -26.0516  48.4448  38.4253   N.am      1 RES1   0.0000
    10 C10    -27.0664  47.3807  38.6266   C.3       1 RES1   0.0000
    11 C11    -26.4658  45.9334  38.5019   C.2       1 RES1   0.0000
    12 C12    -25.9504  45.4376  37.2604   C.2       1 RES1   0.0000
    13 C13    -25.4206  44.1255  37.1455   C.2       1 RES1   0.0000
    14 C14    -25.3690  43.2798  38.2890   C.2       1 RES1   0.0000
    15 C15    -25.8738  43.7445  39.5440   C.2       1 RES1   0.0000
    16 C16    -26.4179  45.0630  39.6481   C.2       1 RES1   0.0000
    17 C17    -24.4621  51.2080  37.8654   C.2       1 RES1   0.0000
    18 N18    -23.2986  51.9104  37.7223   N.2       1 RES1   0.0000
@<TRIPOS>BOND
     1     1     2    2
     2     2     3    1
     3     3     4    2
     4     4     5    1
     5     5     6    2
     6     6     7    1
     7     7     8    2
     8     7     9   am
     9     9    10    1
    10    10    11    1
    11    11    12    2
    12    12    13    1
    13    13    14    2
    14    14    15    1
    15    15    16    2
    16     6    17    1
    17    17    18    2
    18    18     3    1
    19    16    11    1
@<TRIPOS>SUBSTRUCTURE
     1 RES1        1 GROUP             0 ****  ****    0  
@<TRIPOS>MOLECULE
ligand_90
    18    19     1     0     0
SMALL
NO_CHARGES
****
Generated from the CSD

@<TRIPOS>ATOM
     1 N1     -20.3690  52.7620  39.5820   N.pl3     1 RES1   0.0000
     2 C2     -21.1570  52.7170  38.6040   C.2       1 RES1   0.0000
     3 C3     -22.3210  51.8700  38.7080   C.2       1 RES1   0.0000
     4 N4     -22.4668  51.1704  39.8986   N.2       1 RES1   0.0000
     5 C5     -23.6356  50.4392  40.0568   C.2       1 RES1   0.0000
     6 C6     -24.6374  50.4300  39.0564   C.2       1 RES1   0.0000
     7 C7     -25.8573  49.5040  39.3060   C.2       1 RES1   0.0000
     8 O8     -26.5149  49.6868  40.3739   O.2       1 RES1   0.0000
     9 N9     -26.0516  48.4448  38.4253   N.am      1 RES1   0.0000
    10 C10    -27.0664  47.3807  38.6266   C.3       1 RES1   0.0000
    11 C11    -26.4658  45.9334  38.5019   C.2       1 RES1   0.0000
    12 C12    -25.5109  45.4318  39.4449   C.2       1 RES1   0.0000
    13 C13    -24.9586  44.1295  39.3238   C.2       1 RES1   0.0000
    14 C14    -25.3741  43.2801  38.2602   C.2       1 RES1   0.0000
    15 C15    -26.3270  43.7495  37.3023   C.2       1 RES1   0.0000
    16 C16    -26.8686  45.0676  37.4241   C.2       1 RES1   0.0000
    17 C17    -24.4621  51.2080  37.8654   C.2       1 RES1   0.0000
    18 N18    -23.2986  51.9104  37.7223   N.2       1 RES1   0.0000
@<TRIPOS>BOND
     1     1     2    2
     2     2     3    1
     3     3     4    2
     4     4     5    1
     5     5     6    2
     6     6     7    1
     7     7     8    2
     8     7     9   am
     9     9    10    1
    10    10    11    1
    11    11    12    2
    12    12    13    1
    13    13    14    2
    14    14    15    1
    15    15    16    2
    16     6    17    1
    17    17    18    2
    18    18     3    1
    19    16    11    1
@<TRIPOS>SUBSTRUCTURE
     1 RES1        1 GROUP             0 ****  ****    0  
@<TRIPOS>MOLECULE
ligand_91
    18    19     1     0     0
SMALL
NO_CHARGES
****
Generated from the CSD

@<TRIPOS>ATOM
     1 N1     -20.3690  52.7620  39.5820   N.pl3     1 RES1   0.0000
     2 C2     -21.1570  52.7170  38.6040   C.2       1 RES1   0.0000
     3 C3     -22.3210  51.8700  38.7080   C.2       1 RES1   0.0000
     4 N4     -22.4668  51.1704  39.8986   N.2       1 RES1   0.0000
     5 C5     -23.6356  50.4392  40.0568   C.2       1 RES1   0.0000
     6 C6     -24.6374  50.4300  39.0564   C.2       1 RES1   0.0000
     7 C7     -25.8573  49.5040  39.3060   C.2       1 RES1   0.0000
     8 O8     -26.1111  48.6294  38.4246   O.2       1 RES1   0.0000
     9 N9     -26.6743  49.7956  40.3937   N.am      1 RES1   0.0000
    10 C10    -27.9631  49.1110  40.6637   C.3       1 RES1   0.0000
    11 C11    -29.1477  50.1151  40.9078   C.2       1 RES1   0.0000
    12 C12    -29.6314  50.9744  39.8684   C.2       1 RES1   0.0000
    13 C13    -30.6922  51.8906  40.0936   C.2       1 RES1   0.0000
    14 C14    -31.3183  51.9494  41.3704   C.2       1 RES1   0.0000
    15 C15    -30.8606  51.1041  42.4295   C.2       1 RES1   0.0000
    16 C16    -29.7825  50.1933  42.1980   C.2       1 RES1   0.0000
    17 C17    -24.4621  51.2080  37.8654   C.2       1 RES1   0.0000
    18 N18    -23.2986  51.9104  37.7223   N.2       1 RES1   0.0000
@<TRIPOS>BOND
     1     1     2    2
     2     2     3    1
     3     3     4    2
     4     4     5    1
     5     5     6    2
     6     6     7    1
     7     7     8    2
     8     7     9   am
     9     9    10    1
    10    10    11    1
    11    11    12    2
    12    12    13    1
    13    13    14    2
    14    14    15    1
    15    15    16    2
    16     6    17    1
    17    17    18    2
    18    18     3    1
    19    16    11    1
@<TRIPOS>SUBSTRUCTURE
     1 RES1        1 GROUP             0 ****  ****    0  
@<TRIPOS>MOLECULE
ligand_92
    18    19     1     0     0
SMALL
NO_CHARGES
****
Generated from the CSD

@<TRIPOS>ATOM
     1 N1     -20.3690  52.7620  39.5820   N.pl3     1 RES1   0.0000
     2 C2     -21.1570  52.7170  38.6040   C.2       1 RES1   0.0000
     3 C3     -22.3210  51.8700  38.7080   C.2       1 RES1   0.0000
     4 N4     -23.1654  51.8490  37.6059   N.2       1 RES1   0.0000
     5 C5     -24.2276  50.9569  37.6470   C.2       1 RES1   0.0000
     6 C6     -24.4215  50.0960  38.7542   C.2       1 RES1   0.0000
     7 C7     -25.6939  49.2084  38.7273   C.2       1 RES1   0.0000
     8 O8     -26.8103  49.7987  38.6194   O.2       1 RES1   0.0000
     9 N9     -25.5353  47.8491  38.9775   N.am      1 RES1   0.0000
    10 C10    -26.6674  46.9054  39.1520   C.3       1 RES1   0.0000
    11 C11    -26.5423  46.0373  40.4565   C.2       1 RES1   0.0000
    12 C12    -26.6148  46.6255  41.7610   C.2       1 RES1   0.0000
    13 C13    -26.4881  45.8427  42.9385   C.2       1 RES1   0.0000
    14 C14    -26.3112  44.4342  42.8370   C.2       1 RES1   0.0000
    15 C15    -26.2362  43.8150  41.5499   C.2       1 RES1   0.0000
    16 C16    -26.3515  44.6127  40.3684   C.2       1 RES1   0.0000
    17 C17    -23.4938  50.1206  39.8466   C.2       1 RES1   0.0000
    18 N18    -22.4623  51.0154  39.7936   N.2       1 RES1   0.0000
@<TRIPOS>BOND
     1     1     2    2
     2     2     3    1
     3     3     4    2
     4     4     5    1
     5     5     6    2
     6     6     7    1
     7     7     8    2
     8     7     9   am
     9     9    10    1
    10    10    11    1
    11    11    12    2
    12    12    13    1
    13    13    14    2
    14    14    15    1
    15    15    16    2
    16     6    17    1
    17    17    18    2
    18    18     3    1
    19    16    11    1
@<TRIPOS>SUBSTRUCTURE
     1 RES1        1 GROUP             0 ****  ****    0  
@<TRIPOS>MOLECULE
ligand_93
    18    19     1     0     0
SMALL
NO_CHARGES
****
Generated from the CSD

@<TRIPOS>ATOM
     1 N1     -20.3690  52.7620  39.5820   N.pl3     1 RES1   0.0000
     2 C2     -21.1570  52.7170  38.6040   C.2       1 RES1   0.0000
     3 C3     -22.3210  51.8700  38.7080   C.2       1 RES1   0.0000
     4 N4     -22.4668  51.1704  39.8986   N.2       1 RES1   0.0000
     5 C5     -23.6356  50.4392  40.0568   C.2       1 RES1   0.0000
     6 C6     -24.6374  50.4300  39.0564   C.2       1 RES1   0.0000
     7 C7     -25.8573  49.5040  39.3060   C.2       1 RES1   0.0000
     8 O8     -26.1111  48.6294  38.4246   O.2       1 RES1   0.0000
     9 N9     -26.6743  49.7956  40.3937   N.am      1 RES1   0.0000
    10 C10    -27.9631  49.1110  40.6637   C.3       1 RES1   0.0000
    11 C11    -28.0678  48.5658  42.1343   C.2       1 RES1   0.0000
    12 C12    -28.1098  49.4482  43.2622   C.2       1 RES1   0.0000
    13 C13    -28.1907  48.9546  44.5909   C.2       1 RES1   0.0000
    14 C14    -28.2594  47.5520  44.8224   C.2       1 RES1   0.0000
    15 C15    -28.2213  46.6435  43.7183   C.2       1 RES1   0.0000
    16 C16    -28.1264  47.1487  42.3837   C.2       1 RES1   0.0000
    17 C17    -24.4621  51.2080  37.8654   C.2       1 RES1   0.0000
    18 N18    -23.2986  51.9104  37.7223   N.2       1 RES1   0.0000
@<TRIPOS>BOND
     1     1     2    2
     2     2     3    1
     3     3     4    2
     4     4     5    1
     5     5     6    2
     6     6     7    1
     7     7     8    2
     8     7     9   am
     9     9    10    1
    10    10    11    1
    11    11    12    2
    12    12    13    1
    13    13    14    2
    14    14    15    1
    15    15    16    2
    16     6    17    1
    17    17    18    2
    18    18     3    1
    19    16    11    1
@<TRIPOS>SUBSTRUCTURE
     1 RES1        1 GROUP             0 ****  ****    0  
@<TRIPOS>MOLECULE
ligand_94
    18    19     1     0     0
SMALL
NO_CHARGES
****
Generated from the CSD

@<TRIPOS>ATOM
     1 N1     -20.3690  52.7620  39.5820   N.pl3     1 RES1   0.0000
     2 C2     -21.1570  52.7170  38.6040   C.2       1 RES1   0.0000
     3 C3     -22.3210  51.8700  38.7080   C.2       1 RES1   0.0000
     4 N4     -22.4668  51.1704  39.8986   N.2       1 RES1   0.0000
     5 C5     -23.6356  50.4392  40.0568   C.2       1 RES1   0.0000
     6 C6     -24.6374  50.4300  39.0564   C.2       1 RES1   0.0000
     7 C7     -25.8573  49.5040  39.3060   C.2       1 RES1   0.0000
     8 O8     -27.0042  50.0434  39.3059   O.2       1 RES1   0.0000
     9 N9     -25.6005  48.1844  39.6639   N.am      1 RES1   0.0000
    10 C10    -26.6500  47.2284  40.0966   C.3       1 RES1   0.0000
    11 C11    -26.5984  45.8685  39.3097   C.2       1 RES1   0.0000
    12 C12    -25.4915  44.9677  39.4370   C.2       1 RES1   0.0000
    13 C13    -25.4393  43.7462  38.7155   C.2       1 RES1   0.0000
    14 C14    -26.5178  43.3813  37.8616   C.2       1 RES1   0.0000
    15 C15    -27.6387  44.2572  37.7131   C.2       1 RES1   0.0000
    16 C16    -27.6773  45.4921  38.4334   C.2       1 RES1   0.0000
    17 C17    -24.4621  51.2080  37.8654   C.2       1 RES1   0.0000
    18 N18    -23.2986  51.9104  37.7223   N.2       1 RES1   0.0000
@<TRIPOS>BOND
     1     1     2    2
     2     2     3    1
     3     3     4    2
     4     4     5    1
     5     5     6    2
     6     6     7    1
     7     7     8    2
     8     7     9   am
     9     9    10    1
    10    10    11    1
    11    11    12    2
    12    12    13    1
    13    13    14    2
    14    14    15    1
    15    15    16    2
    16     6    17    1
    17    17    18    2
    18    18     3    1
    19    16    11    1
@<TRIPOS>SUBSTRUCTURE
     1 RES1        1 GROUP             0 ****  ****    0  
@<TRIPOS>MOLECULE
ligand_95
    18    19     1     0     0
SMALL
NO_CHARGES
****
Generated from the CSD

@<TRIPOS>ATOM
     1 N1     -20.3690  52.7620  39.5820   N.pl3     1 RES1   0.0000
     2 C2     -21.1570  52.7170  38.6040   C.2       1 RES1   0.0000
     3 C3     -22.3210  51.8700  38.7080   C.2       1 RES1   0.0000
     4 N4     -22.4668  51.1704  39.8986   N.2       1 RES1   0.0000
     5 C5     -23.6356  50.4392  40.0568   C.2       1 RES1   0.0000
     6 C6     -24.6374  50.4300  39.0564   C.2       1 RES1   0.0000
     7 C7     -25.8573  49.5040  39.3060   C.2       1 RES1   0.0000
     8 O8     -25.6219  48.2727  39.4926   O.2       1 RES1   0.0000
     9 N9     -27.1254  50.0560  39.1550   N.am      1 RES1   0.0000
    10 C10    -28.3795  49.2634  39.1937   C.3       1 RES1   0.0000
    11 C11    -29.4442  49.8543  40.1878   C.2       1 RES1   0.0000
    12 C12    -29.1206  50.9187  41.0907   C.2       1 RES1   0.0000
    13 C13    -30.0789  51.4425  41.9977   C.2       1 RES1   0.0000
    14 C14    -31.4051  50.9261  42.0033   C.2       1 RES1   0.0000
    15 C15    -31.7616  49.8644  41.1137   C.2       1 RES1   0.0000
    16 C16    -30.7864  49.3334  40.2123   C.2       1 RES1   0.0000
    17 C17    -24.4621  51.2080  37.8654   C.2       1 RES1   0.0000
    18 N18    -23.2986  51.9104  37.7223   N.2       1 RES1   0.0000
@<TRIPOS>BOND
     1     1     2    2
     2     2     3    1
     3     3     4    2
     4     4     5    1
     5     5     6    2
     6     6     7    1
     7     7     8    2
     8     7     9   am
     9     9    10    1
    10    10    11    1
    11    11    12    2
    12    12    13    1
    13    13    14    2
    14    14    15    1
    15    15    16    2
    16     6    17    1
    17    17    18    2
    18    18     3    1
    19    16    11    1
@<TRIPOS>SUBSTRUCTURE
     1 RES1        1 GROUP             0 ****  ****    0  
@<TRIPOS>MOLECULE
ligand_96
    18    19     1     0     0
SMALL
NO_CHARGES
****
Generated from the CSD

@<TRIPOS>ATOM
     1 N1     -20.3690  52.7620  39.5820   N.pl3     1 RES1   0.0000
     2 C2     -21.1570  52.7170  38.6040   C.2       1 RES1   0.0000
     3 C3     -22.3210  51.8700  38.7080   C.2       1 RES1   0.0000
     4 N4     -22.4668  51.1704  39.8986   N.2       1 RES1   0.0000
     5 C5     -23.6356  50.4392  40.0568   C.2       1 RES1   0.0000
     6 C6     -24.6374  50.4300  39.0564   C.2       1 RES1   0.0000
     7 C7     -25.8573  49.5040  39.3060   C.2       1 RES1   0.0000
     8 O8     -26.5149  49.6868  40.3739   O.2       1 RES1   0.0000
     9 N9     -26.0516  48.4448  38.4253   N.am      1 RES1   0.0000
    10 C10    -27.0664  47.3807  38.6266   C.3       1 RES1   0.0000
    11 C11    -27.9747  47.1570  37.3632   C.2       1 RES1   0.0000
    12 C12    -27.9318  48.0449  36.2396   C.2       1 RES1   0.0000
    13 C13    -28.7623  47.8499  35.1048   C.2       1 RES1   0.0000
    14 C14    -29.6448  46.7345  35.0563   C.2       1 RES1   0.0000
    15 C15    -29.7112  45.8280  36.1607   C.2       1 RES1   0.0000
    16 C16    -28.8806  46.0392  37.3057   C.2       1 RES1   0.0000
    17 C17    -24.4621  51.2080  37.8654   C.2       1 RES1   0.0000
    18 N18    -23.2986  51.9104  37.7223   N.2       1 RES1   0.0000
@<TRIPOS>BOND
     1     1     2    2
     2     2     3    1
     3     3     4    2
     4     4     5    1
     5     5     6    2
     6     6     7    1
     7     7     8    2
     8     7     9   am
     9     9    10    1
    10    10    11    1
    11    11    12    2
    12    12    13    1
    13    13    14    2
    14    14    15    1
    15    15    16    2
    16     6    17    1
    17    17    18    2
    18    18     3    1
    19    16    11    1
@<TRIPOS>SUBSTRUCTURE
     1 RES1        1 GROUP             0 ****  ****    0  
@<TRIPOS>MOLECULE
ligand_97
    18    19     1     0     0
SMALL
NO_CHARGES
****
Generated from the CSD

@<TRIPOS>ATOM
     1 N1     -20.3690  52.7620  39.5820   N.pl3     1 RES1   0.0000
     2 C2     -21.1570  52.7170  38.6040   C.2       1 RES1   0.0000
     3 C3     -22.3210  51.8700  38.7080   C.2       1 RES1   0.0000
     4 N4     -22.4668  51.1704  39.8986   N.2       1 RES1   0.0000
     5 C5     -23.6356  50.4392  40.0568   C.2       1 RES1   0.0000
     6 C6     -24.6374  50.4300  39.0564   C.2       1 RES1   0.0000
     7 C7     -25.8573  49.5040  39.3060   C.2       1 RES1   0.0000
     8 O8     -26.1111  48.6294  38.4246   O.2       1 RES1   0.0000
     9 N9     -26.6743  49.7956  40.3937   N.am      1 RES1   0.0000
    10 C10    -27.9631  49.1110  40.6637   C.3       1 RES1   0.0000
    11 C11    -28.0678  48.5658  42.1343   C.2       1 RES1   0.0000
    12 C12    -26.9405  48.5662  43.0185   C.2       1 RES1   0.0000
    13 C13    -27.0324  48.0610  44.3421   C.2       1 RES1   0.0000
    14 C14    -28.2751  47.5633  44.8254   C.2       1 RES1   0.0000
    15 C15    -29.4205  47.5499  43.9690   C.2       1 RES1   0.0000
    16 C16    -29.3159  48.0486  42.6326   C.2       1 RES1   0.0000
    17 C17    -24.4621  51.2080  37.8654   C.2       1 RES1   0.0000
    18 N18    -23.2986  51.9104  37.7223   N.2       1 RES1   0.0000
@<TRIPOS>BOND
     1     1     2    2
     2     2     3    1
     3     3     4    2
     4     4     5    1
     5     5     6    2
     6     6     7    1
     7     7     8    2
     8     7     9   am
     9     9    10    1
    10    10    11    1
    11    11    12    2
    12    12    13    1
    13    13    14    2
    14    14    15    1
    15    15    16    2
    16     6    17    1
    17    17    18    2
    18    18     3    1
    19    16    11    1
@<TRIPOS>SUBSTRUCTURE
     1 RES1        1 GROUP             0 ****  ****    0  
@<TRIPOS>MOLECULE
ligand_98
    18    19     1     0     0
SMALL
NO_CHARGES
****
Generated from the CSD

@<TRIPOS>ATOM
     1 N1     -20.3690  52.7620  39.5820   N.pl3     1 RES1   0.0000
     2 C2     -21.1570  52.7170  38.6040   C.2       1 RES1   0.0000
     3 C3     -22.3210  51.8700  38.7080   C.2       1 RES1   0.0000
     4 N4     -22.4668  51.1704  39.8986   N.2       1 RES1   0.0000
     5 C5     -23.6356  50.4392  40.0568   C.2       1 RES1   0.0000
     6 C6     -24.6374  50.4300  39.0564   C.2       1 RES1   0.0000
     7 C7     -25.8573  49.5040  39.3060   C.2       1 RES1   0.0000
     8 O8     -27.0042  50.0434  39.3059   O.2       1 RES1   0.0000
     9 N9     -25.6005  48.1844  39.6639   N.am      1 RES1   0.0000
    10 C10    -26.6500  47.2284  40.0966   C.3       1 RES1   0.0000
    11 C11    -26.5984  45.8685  39.3097   C.2       1 RES1   0.0000
    12 C12    -25.7517  45.6925  38.1674   C.2       1 RES1   0.0000
    13 C13    -25.7158  44.4684  37.4491   C.2       1 RES1   0.0000
    14 C14    -26.5148  43.3717  37.8784   C.2       1 RES1   0.0000
    15 C15    -27.3701  43.5135  39.0159   C.2       1 RES1   0.0000
    16 C16    -27.4101  44.7543  39.7260   C.2       1 RES1   0.0000
    17 C17    -24.4621  51.2080  37.8654   C.2       1 RES1   0.0000
    18 N18    -23.2986  51.9104  37.7223   N.2       1 RES1   0.0000
@<TRIPOS>BOND
     1     1     2    2
     2     2     3    1
     3     3     4    2
     4     4     5    1
     5     5     6    2
     6     6     7    1
     7     7     8    2
     8     7     9   am
     9     9    10    1
    10    10    11    1
    11    11    12    2
    12    12    13    1
    13    13    14    2
    14    14    15    1
    15    15    16    2
    16     6    17    1
    17    17    18    2
    18    18     3    1
    19    16    11    1
@<TRIPOS>SUBSTRUCTURE
     1 RES1        1 GROUP             0 ****  ****    0  
@<TRIPOS>MOLECULE
ligand_99
    18    19     1     0     0
SMALL
NO_CHARGES
****
Generated from the CSD

@<TRIPOS>ATOM
     1 N1     -20.3690  52.7620  39.5820   N.pl3     1 RES1   0.0000
     2 C2     -21.1570  52.7170  38.6040   C.2       1 RES1   0.0000
     3 C3     -22.3210  51.8700  38.7080   C.2       1 RES1   0.0000
     4 N4     -23.1654  51.8490  37.6059   N.2       1 RES1   0.0000
     5 C5     -24.2276  50.9569  37.6470   C.2       1 RES1   0.0000
     6 C6     -24.4215  50.0960  38.7542   C.2       1 RES1   0.0000
     7 C7     -25.6939  49.2084  38.7273   C.2       1 RES1   0.0000
     8 O8     -26.4957  49.3149  39.7030   O.2       1 RES1   0.0000
     9 N9     -25.7901  48.2524  37.7212   N.am      1 RES1   0.0000
    10 C10    -26.8572  47.2227  37.6617   C.3       1 RES1   0.0000
    11 C11    -26.2915  45.7682  37.4729   C.2       1 RES1   0.0000
    12 C12    -24.9083  45.5309  37.1846   C.2       1 RES1   0.0000
    13 C13    -24.4010  44.2178  37.0006   C.2       1 RES1   0.0000
    14 C14    -25.2702  43.0982  37.1292   C.2       1 RES1   0.0000
    15 C15    -26.6564  43.3001  37.4179   C.2       1 RES1   0.0000
    16 C16    -27.1620  44.6269  37.5887   C.2       1 RES1   0.0000
    17 C17    -23.4938  50.1206  39.8466   C.2       1 RES1   0.0000
    18 N18    -22.4623  51.0154  39.7936   N.2       1 RES1   0.0000
@<TRIPOS>BOND
     1     1     2    2
     2     2     3    1
     3     3     4    2
     4     4     5    1
     5     5     6    2
     6     6     7    1
     7     7     8    2
     8     7     9   am
     9     9    10    1
    10    10    11    1
    11    11    12    2
    12    12    13    1
    13    13    14    2
    14    14    15    1
    15    15    16    2
    16     6    17    1
    17    17    18    2
    18    18     3    1
    19    16    11    1
@<TRIPOS>SUBSTRUCTURE
     1 RES1        1 GROUP             0 ****  ****    0  
