@<TRIPOS>MOLECULE
native
    22    24     1     0     0
SMALL
USER_CHARGES
****
Generated from the CSD

@<TRIPOS>ATOM
     1 O1      22.0200  48.1600  -2.3370   O.2       1 RES1   0.0000
     2 C2      22.8700  47.7660  -1.5460   C.2       1 RES1   0.0000
     3 N3      23.0630  46.4180  -1.4080   N.am      1 RES1   0.0000
     4 C4      24.0620  45.8500  -0.4840   C.3       1 RES1   0.0000
     5 C5      25.2830  46.7270  -0.2390   C.3       1 RES1   0.0000
     6 C6      24.9820  48.2050  -0.1980   C.2       1 RES1   0.0000
     7 C7      25.9170  49.1510   0.3850   C.2       1 RES1   0.0000
     8 O8      26.9080  48.6300   1.2110   O.3       1 RES1   0.0000
     9 C9      28.1020  47.9490   0.8160   C.3       1 RES1   0.0000
    10 C10     28.5240  47.2630   2.1710   C.3       1 RES1   0.0000
    11 C11     29.2550  45.9330   2.0130   C.3       1 RES1   0.0000
    12 C12     28.4880  44.7600   2.7530   C.3       1 RES1   0.0000
    13 N13     27.2130  44.3190   2.0180   N.3       1 RES1   1.0000
    14 C14     26.3490  43.2850   2.7400   C.3       1 RES1   0.0000
    15 C15     26.5610  41.7580   2.3560   C.3       1 RES1   0.0000
    16 C16     26.9310  41.5020   0.8610   C.3       1 RES1   0.0000
    17 C17     26.7690  42.7670   0.0420   C.3       1 RES1   0.0000
    18 C18     27.5940  43.8990   0.6190   C.3       1 RES1   0.0000
    19 C19     25.5260  50.5120   0.4770   C.2       1 RES1   0.0000
    20 C20     24.2850  50.9820  -0.0870   C.2       1 RES1   0.0000
    21 C21     23.4710  50.0850  -0.8130   C.2       1 RES1   0.0000
    22 C22     23.7880  48.7080  -0.7970   C.2       1 RES1   0.0000
@<TRIPOS>BOND
     1     1     2    2
     2     2     3   am
     3     3     4    1
     4     4     5    1
     5     5     6    1
     6     6     7    2
     7     7     8    1
     8     8     9    1
     9     9    10    1
    10    10    11    1
    11    11    12    1
    12    12    13    1
    13    13    14    1
    14    14    15    1
    15    15    16    1
    16    16    17    1
    17    17    18    1
    18     7    19    1
    19    19    20    2
    20    20    21    1
    21    21    22    2
    22    22     2    1
    23    22     6    1
    24    18    13    1
@<TRIPOS>SUBSTRUCTURE
     1 RES1        1 GROUP             0 ****  ****    0  
@<TRIPOS>MOLECULE
ligand_0
    22    24     1     0     0
SMALL
USER_CHARGES
****
Generated from the CSD

@<TRIPOS>ATOM
     1 O1      22.0963  48.0898  -2.3660   O.2       1 RES1   0.0000
     2 C2      22.8864  47.7327  -1.5024   C.2       1 RES1   0.0000
     3 N3      23.0388  46.4551  -1.1509   N.am      1 RES1   0.0000
     4 C4      23.9741  45.9672  -0.1504   C.3       1 RES1   0.0000
     5 C5      25.2700  46.7401  -0.2623   C.3       1 RES1   0.0000
     6 C6      24.9863  48.2190  -0.2376   C.2       1 RES1   0.0000
     7 C7      25.8861  49.1427   0.4298   C.2       1 RES1   0.0000
     8 O8      26.9043  48.6162   1.2102   O.3       1 RES1   0.0000
     9 C9      27.8951  49.3349   1.9499   C.3       1 RES1   0.0000
    10 C10     28.7153  48.1510   2.5906   C.3       1 RES1   0.0000
    11 C11     29.8841  48.5861   3.4698   C.3       1 RES1   0.0000
    12 C12     30.6515  47.3369   4.0716   C.3       1 RES1   0.0000
    13 N13     31.8373  47.7338   4.9642   N.3       1 RES1   1.0000
    14 C14     32.6845  46.5492   5.3007   C.3       1 RES1   0.0000
    15 C15     33.8848  46.9651   6.1107   C.3       1 RES1   0.0000
    16 C16     33.4824  47.7109   7.3676   C.3       1 RES1   0.0000
    17 C17     32.5694  48.8697   7.0235   C.3       1 RES1   0.0000
    18 C18     31.3818  48.4177   6.2149   C.3       1 RES1   0.0000
    19 C19     25.5300  50.5151   0.4734   C.2       1 RES1   0.0000
    20 C20     24.3088  50.9944  -0.1260   C.2       1 RES1   0.0000
    21 C21     23.4485  50.0797  -0.7700   C.2       1 RES1   0.0000
    22 C22     23.7981  48.7113  -0.8163   C.2       1 RES1   0.0000
@<TRIPOS>BOND
     1     1     2    2
     2     2     3   am
     3     3     4    1
     4     4     5    1
     5     5     6    1
     6     6     7    2
     7     7     8    1
     8     8     9    1
     9     9    10    1
    10    10    11    1
    11    11    12    1
    12    12    13    1
    13    13    14    1
    14    14    15    1
    15    15    16    1
    16    16    17    1
    17    17    18    1
    18     7    19    1
    19    19    20    2
    20    20    21    1
    21    21    22    2
    22    22     2    1
    23    22     6    1
    24    18    13    1
@<TRIPOS>SUBSTRUCTURE
     1 RES1        1 GROUP             0 ****  ****    0  
@<TRIPOS>MOLECULE
ligand_1
    22    24     1     0     0
SMALL
USER_CHARGES
****
Generated from the CSD

@<TRIPOS>ATOM
     1 O1      22.0963  48.0898  -2.3660   O.2       1 RES1   0.0000
     2 C2      22.8864  47.7327  -1.5024   C.2       1 RES1   0.0000
     3 N3      23.0388  46.4551  -1.1509   N.am      1 RES1   0.0000
     4 C4      23.9741  45.9672  -0.1504   C.3       1 RES1   0.0000
     5 C5      25.2700  46.7401  -0.2623   C.3       1 RES1   0.0000
     6 C6      24.9863  48.2190  -0.2376   C.2       1 RES1   0.0000
     7 C7      25.8861  49.1427   0.4298   C.2       1 RES1   0.0000
     8 O8      26.9043  48.6162   1.2102   O.3       1 RES1   0.0000
     9 C9      27.8951  49.3349   1.9499   C.3       1 RES1   0.0000
    10 C10     28.7153  48.1510   2.5906   C.3       1 RES1   0.0000
    11 C11     29.8841  48.5861   3.4698   C.3       1 RES1   0.0000
    12 C12     30.6515  47.3369   4.0716   C.3       1 RES1   0.0000
    13 N13     31.8373  47.7338   4.9642   N.3       1 RES1   1.0000
    14 C14     32.9157  48.3988   4.1711   C.3       1 RES1   0.0000
    15 C15     34.0365  48.8519   5.0702   C.3       1 RES1   0.0000
    16 C16     34.6001  47.7049   5.8855   C.3       1 RES1   0.0000
    17 C17     33.4908  46.9946   6.6335   C.3       1 RES1   0.0000
    18 C18     32.3891  46.5563   5.7045   C.3       1 RES1   0.0000
    19 C19     25.5300  50.5151   0.4734   C.2       1 RES1   0.0000
    20 C20     24.3088  50.9944  -0.1260   C.2       1 RES1   0.0000
    21 C21     23.4485  50.0797  -0.7700   C.2       1 RES1   0.0000
    22 C22     23.7981  48.7113  -0.8163   C.2       1 RES1   0.0000
@<TRIPOS>BOND
     1     1     2    2
     2     2     3   am
     3     3     4    1
     4     4     5    1
     5     5     6    1
     6     6     7    2
     7     7     8    1
     8     8     9    1
     9     9    10    1
    10    10    11    1
    11    11    12    1
    12    12    13    1
    13    13    14    1
    14    14    15    1
    15    15    16    1
    16    16    17    1
    17    17    18    1
    18     7    19    1
    19    19    20    2
    20    20    21    1
    21    21    22    2
    22    22     2    1
    23    22     6    1
    24    18    13    1
@<TRIPOS>SUBSTRUCTURE
     1 RES1        1 GROUP             0 ****  ****    0  
@<TRIPOS>MOLECULE
ligand_2
    22    24     1     0     0
SMALL
USER_CHARGES
****
Generated from the CSD

@<TRIPOS>ATOM
     1 O1      22.0963  48.0898  -2.3660   O.2       1 RES1   0.0000
     2 C2      22.8864  47.7327  -1.5024   C.2       1 RES1   0.0000
     3 N3      23.0388  46.4551  -1.1509   N.am      1 RES1   0.0000
     4 C4      23.9741  45.9672  -0.1504   C.3       1 RES1   0.0000
     5 C5      25.2700  46.7401  -0.2623   C.3       1 RES1   0.0000
     6 C6      24.9863  48.2190  -0.2376   C.2       1 RES1   0.0000
     7 C7      25.8861  49.1427   0.4298   C.2       1 RES1   0.0000
     8 O8      26.9043  48.6162   1.2102   O.3       1 RES1   0.0000
     9 C9      27.8951  49.3349   1.9499   C.3       1 RES1   0.0000
    10 C10     28.7153  48.1510   2.5906   C.3       1 RES1   0.0000
    11 C11     27.9286  47.2862   3.5711   C.3       1 RES1   0.0000
    12 C12     28.8264  46.1236   4.1661   C.3       1 RES1   0.0000
    13 N13     28.0692  45.2289   5.1594   N.3       1 RES1   1.0000
    14 C14     29.0016  44.3153   5.8877   C.3       1 RES1   0.0000
    15 C15     28.2568  43.4998   6.9124   C.3       1 RES1   0.0000
    16 C16     27.1187  42.7175   6.2873   C.3       1 RES1   0.0000
    17 C17     26.2163  43.6412   5.4954   C.3       1 RES1   0.0000
    18 C18     26.9936  44.4395   4.4819   C.3       1 RES1   0.0000
    19 C19     25.5300  50.5151   0.4734   C.2       1 RES1   0.0000
    20 C20     24.3088  50.9944  -0.1260   C.2       1 RES1   0.0000
    21 C21     23.4485  50.0797  -0.7700   C.2       1 RES1   0.0000
    22 C22     23.7981  48.7113  -0.8163   C.2       1 RES1   0.0000
@<TRIPOS>BOND
     1     1     2    2
     2     2     3   am
     3     3     4    1
     4     4     5    1
     5     5     6    1
     6     6     7    2
     7     7     8    1
     8     8     9    1
     9     9    10    1
    10    10    11    1
    11    11    12    1
    12    12    13    1
    13    13    14    1
    14    14    15    1
    15    15    16    1
    16    16    17    1
    17    17    18    1
    18     7    19    1
    19    19    20    2
    20    20    21    1
    21    21    22    2
    22    22     2    1
    23    22     6    1
    24    18    13    1
@<TRIPOS>SUBSTRUCTURE
     1 RES1        1 GROUP             0 ****  ****    0  
@<TRIPOS>MOLECULE
ligand_3
    22    24     1     0     0
SMALL
USER_CHARGES
****
Generated from the CSD

@<TRIPOS>ATOM
     1 O1      22.0963  48.0898  -2.3660   O.2       1 RES1   0.0000
     2 C2      22.8864  47.7327  -1.5024   C.2       1 RES1   0.0000
     3 N3      23.0388  46.4551  -1.1509   N.am      1 RES1   0.0000
     4 C4      23.9741  45.9672  -0.1504   C.3       1 RES1   0.0000
     5 C5      25.2700  46.7401  -0.2623   C.3       1 RES1   0.0000
     6 C6      24.9863  48.2190  -0.2376   C.2       1 RES1   0.0000
     7 C7      25.8861  49.1427   0.4298   C.2       1 RES1   0.0000
     8 O8      26.9043  48.6162   1.2102   O.3       1 RES1   0.0000
     9 C9      27.8951  49.3349   1.9499   C.3       1 RES1   0.0000
    10 C10     28.7153  48.1510   2.5906   C.3       1 RES1   0.0000
    11 C11     29.4334  47.2545   1.5862   C.3       1 RES1   0.0000
    12 C12     30.2309  46.0940   2.3136   C.3       1 RES1   0.0000
    13 N13     30.9688  45.1679   1.3348   N.3       1 RES1   1.0000
    14 C14     31.4899  43.9500   2.0272   C.3       1 RES1   0.0000
    15 C15     32.1425  43.0150   1.0425   C.3       1 RES1   0.0000
    16 C16     33.2462  43.7023   0.2631   C.3       1 RES1   0.0000
    17 C17     32.7260  44.9713  -0.3800   C.3       1 RES1   0.0000
    18 C18     32.0813  45.8811   0.6326   C.3       1 RES1   0.0000
    19 C19     25.5300  50.5151   0.4734   C.2       1 RES1   0.0000
    20 C20     24.3088  50.9944  -0.1260   C.2       1 RES1   0.0000
    21 C21     23.4485  50.0797  -0.7700   C.2       1 RES1   0.0000
    22 C22     23.7981  48.7113  -0.8163   C.2       1 RES1   0.0000
@<TRIPOS>BOND
     1     1     2    2
     2     2     3   am
     3     3     4    1
     4     4     5    1
     5     5     6    1
     6     6     7    2
     7     7     8    1
     8     8     9    1
     9     9    10    1
    10    10    11    1
    11    11    12    1
    12    12    13    1
    13    13    14    1
    14    14    15    1
    15    15    16    1
    16    16    17    1
    17    17    18    1
    18     7    19    1
    19    19    20    2
    20    20    21    1
    21    21    22    2
    22    22     2    1
    23    22     6    1
    24    18    13    1
@<TRIPOS>SUBSTRUCTURE
     1 RES1        1 GROUP             0 ****  ****    0  
@<TRIPOS>MOLECULE
ligand_4
    22    24     1     0     0
SMALL
USER_CHARGES
****
Generated from the CSD

@<TRIPOS>ATOM
     1 O1      22.0963  48.0898  -2.3660   O.2       1 RES1   0.0000
     2 C2      22.8864  47.7327  -1.5024   C.2       1 RES1   0.0000
     3 N3      23.0388  46.4551  -1.1509   N.am      1 RES1   0.0000
     4 C4      23.9741  45.9672  -0.1504   C.3       1 RES1   0.0000
     5 C5      25.2700  46.7401  -0.2623   C.3       1 RES1   0.0000
     6 C6      24.9863  48.2190  -0.2376   C.2       1 RES1   0.0000
     7 C7      25.8861  49.1427   0.4298   C.2       1 RES1   0.0000
     8 O8      26.9043  48.6162   1.2102   O.3       1 RES1   0.0000
     9 C9      27.8951  49.3349   1.9499   C.3       1 RES1   0.0000
    10 C10     28.7153  48.1510   2.5906   C.3       1 RES1   0.0000
    11 C11     27.9286  47.2862   3.5711   C.3       1 RES1   0.0000
    12 C12     28.8264  46.1236   4.1661   C.3       1 RES1   0.0000
    13 N13     28.0692  45.2289   5.1594   N.3       1 RES1   1.0000
    14 C14     27.6938  45.9839   6.3936   C.3       1 RES1   0.0000
    15 C15     26.8854  45.1171   7.3236   C.3       1 RES1   0.0000
    16 C16     27.6192  43.8392   7.6791   C.3       1 RES1   0.0000
    17 C17     28.0549  43.1143   6.4224   C.3       1 RES1   0.0000
    18 C18     28.8598  44.0099   5.5175   C.3       1 RES1   0.0000
    19 C19     25.5300  50.5151   0.4734   C.2       1 RES1   0.0000
    20 C20     24.3088  50.9944  -0.1260   C.2       1 RES1   0.0000
    21 C21     23.4485  50.0797  -0.7700   C.2       1 RES1   0.0000
    22 C22     23.7981  48.7113  -0.8163   C.2       1 RES1   0.0000
@<TRIPOS>BOND
     1     1     2    2
     2     2     3   am
     3     3     4    1
     4     4     5    1
     5     5     6    1
     6     6     7    2
     7     7     8    1
     8     8     9    1
     9     9    10    1
    10    10    11    1
    11    11    12    1
    12    12    13    1
    13    13    14    1
    14    14    15    1
    15    15    16    1
    16    16    17    1
    17    17    18    1
    18     7    19    1
    19    19    20    2
    20    20    21    1
    21    21    22    2
    22    22     2    1
    23    22     6    1
    24    18    13    1
@<TRIPOS>SUBSTRUCTURE
     1 RES1        1 GROUP             0 ****  ****    0  
@<TRIPOS>MOLECULE
ligand_5
    22    24     1     0     0
SMALL
USER_CHARGES
****
Generated from the CSD

@<TRIPOS>ATOM
     1 O1      22.0963  48.0898  -2.3660   O.2       1 RES1   0.0000
     2 C2      22.8864  47.7327  -1.5024   C.2       1 RES1   0.0000
     3 N3      23.0388  46.4551  -1.1509   N.am      1 RES1   0.0000
     4 C4      23.9741  45.9672  -0.1504   C.3       1 RES1   0.0000
     5 C5      25.2700  46.7401  -0.2623   C.3       1 RES1   0.0000
     6 C6      24.9863  48.2190  -0.2376   C.2       1 RES1   0.0000
     7 C7      25.8861  49.1427   0.4298   C.2       1 RES1   0.0000
     8 O8      26.9043  48.6162   1.2102   O.3       1 RES1   0.0000
     9 C9      27.8951  49.3349   1.9499   C.3       1 RES1   0.0000
    10 C10     28.7153  48.1510   2.5906   C.3       1 RES1   0.0000
    11 C11     29.4334  47.2545   1.5862   C.3       1 RES1   0.0000
    12 C12     30.2309  46.0940   2.3136   C.3       1 RES1   0.0000
    13 N13     30.9688  45.1679   1.3348   N.3       1 RES1   1.0000
    14 C14     30.0086  44.3931   0.4911   C.3       1 RES1   0.0000
    15 C15     30.7449  43.5483  -0.5158   C.3       1 RES1   0.0000
    16 C16     31.7414  42.6211   0.1516   C.3       1 RES1   0.0000
    17 C17     32.6679  43.4064   1.0569   C.3       1 RES1   0.0000
    18 C18     31.8984  44.2381   2.0493   C.3       1 RES1   0.0000
    19 C19     25.5300  50.5151   0.4734   C.2       1 RES1   0.0000
    20 C20     24.3088  50.9944  -0.1260   C.2       1 RES1   0.0000
    21 C21     23.4485  50.0797  -0.7700   C.2       1 RES1   0.0000
    22 C22     23.7981  48.7113  -0.8163   C.2       1 RES1   0.0000
@<TRIPOS>BOND
     1     1     2    2
     2     2     3   am
     3     3     4    1
     4     4     5    1
     5     5     6    1
     6     6     7    2
     7     7     8    1
     8     8     9    1
     9     9    10    1
    10    10    11    1
    11    11    12    1
    12    12    13    1
    13    13    14    1
    14    14    15    1
    15    15    16    1
    16    16    17    1
    17    17    18    1
    18     7    19    1
    19    19    20    2
    20    20    21    1
    21    21    22    2
    22    22     2    1
    23    22     6    1
    24    18    13    1
@<TRIPOS>SUBSTRUCTURE
     1 RES1        1 GROUP             0 ****  ****    0  
@<TRIPOS>MOLECULE
ligand_6
    22    24     1     0     0
SMALL
USER_CHARGES
****
Generated from the CSD

@<TRIPOS>ATOM
     1 O1      22.0963  48.0898  -2.3660   O.2       1 RES1   0.0000
     2 C2      22.8864  47.7327  -1.5024   C.2       1 RES1   0.0000
     3 N3      23.0388  46.4551  -1.1509   N.am      1 RES1   0.0000
     4 C4      23.9741  45.9672  -0.1504   C.3       1 RES1   0.0000
     5 C5      25.2700  46.7401  -0.2623   C.3       1 RES1   0.0000
     6 C6      24.9863  48.2190  -0.2376   C.2       1 RES1   0.0000
     7 C7      25.8861  49.1427   0.4298   C.2       1 RES1   0.0000
     8 O8      26.9043  48.6162   1.2102   O.3       1 RES1   0.0000
     9 C9      27.8951  49.3349   1.9499   C.3       1 RES1   0.0000
    10 C10     28.7153  48.1510   2.5906   C.3       1 RES1   0.0000
    11 C11     29.8841  48.5861   3.4698   C.3       1 RES1   0.0000
    12 C12     30.6515  47.3369   4.0716   C.3       1 RES1   0.0000
    13 N13     31.2763  46.4394   2.9925   N.3       1 RES1   1.0000
    14 C14     31.7629  45.1506   3.5726   C.3       1 RES1   0.0000
    15 C15     32.3017  44.2494   2.4922   C.3       1 RES1   0.0000
    16 C16     33.3981  44.9255   1.6928   C.3       1 RES1   0.0000
    17 C17     32.9182  46.2618   1.1650   C.3       1 RES1   0.0000
    18 C18     32.3873  47.1356   2.2711   C.3       1 RES1   0.0000
    19 C19     25.5300  50.5151   0.4734   C.2       1 RES1   0.0000
    20 C20     24.3088  50.9944  -0.1260   C.2       1 RES1   0.0000
    21 C21     23.4485  50.0797  -0.7700   C.2       1 RES1   0.0000
    22 C22     23.7981  48.7113  -0.8163   C.2       1 RES1   0.0000
@<TRIPOS>BOND
     1     1     2    2
     2     2     3   am
     3     3     4    1
     4     4     5    1
     5     5     6    1
     6     6     7    2
     7     7     8    1
     8     8     9    1
     9     9    10    1
    10    10    11    1
    11    11    12    1
    12    12    13    1
    13    13    14    1
    14    14    15    1
    15    15    16    1
    16    16    17    1
    17    17    18    1
    18     7    19    1
    19    19    20    2
    20    20    21    1
    21    21    22    2
    22    22     2    1
    23    22     6    1
    24    18    13    1
@<TRIPOS>SUBSTRUCTURE
     1 RES1        1 GROUP             0 ****  ****    0  
@<TRIPOS>MOLECULE
ligand_7
    22    24     1     0     0
SMALL
USER_CHARGES
****
Generated from the CSD

@<TRIPOS>ATOM
     1 O1      22.0963  48.0898  -2.3660   O.2       1 RES1   0.0000
     2 C2      22.8864  47.7327  -1.5024   C.2       1 RES1   0.0000
     3 N3      23.0388  46.4551  -1.1509   N.am      1 RES1   0.0000
     4 C4      23.9741  45.9672  -0.1504   C.3       1 RES1   0.0000
     5 C5      25.2700  46.7401  -0.2623   C.3       1 RES1   0.0000
     6 C6      24.9863  48.2190  -0.2376   C.2       1 RES1   0.0000
     7 C7      25.8861  49.1427   0.4298   C.2       1 RES1   0.0000
     8 O8      26.9043  48.6162   1.2102   O.3       1 RES1   0.0000
     9 C9      27.8951  49.3349   1.9499   C.3       1 RES1   0.0000
    10 C10     28.7153  48.1510   2.5906   C.3       1 RES1   0.0000
    11 C11     29.8841  48.5861   3.4698   C.3       1 RES1   0.0000
    12 C12     30.7442  47.3429   3.9454   C.3       1 RES1   0.0000
    13 N13     29.9367  46.3392   4.7825   N.3       1 RES1   1.0000
    14 C14     30.8015  45.6509   5.7888   C.3       1 RES1   0.0000
    15 C15     29.9826  44.7280   6.6533   C.3       1 RES1   0.0000
    16 C16     29.2152  43.7168   5.8246   C.3       1 RES1   0.0000
    17 C17     28.3934  44.4195   4.7637   C.3       1 RES1   0.0000
    18 C18     29.2434  45.3324   3.9193   C.3       1 RES1   0.0000
    19 C19     25.5300  50.5151   0.4734   C.2       1 RES1   0.0000
    20 C20     24.3088  50.9944  -0.1260   C.2       1 RES1   0.0000
    21 C21     23.4485  50.0797  -0.7700   C.2       1 RES1   0.0000
    22 C22     23.7981  48.7113  -0.8163   C.2       1 RES1   0.0000
@<TRIPOS>BOND
     1     1     2    2
     2     2     3   am
     3     3     4    1
     4     4     5    1
     5     5     6    1
     6     6     7    2
     7     7     8    1
     8     8     9    1
     9     9    10    1
    10    10    11    1
    11    11    12    1
    12    12    13    1
    13    13    14    1
    14    14    15    1
    15    15    16    1
    16    16    17    1
    17    17    18    1
    18     7    19    1
    19    19    20    2
    20    20    21    1
    21    21    22    2
    22    22     2    1
    23    22     6    1
    24    18    13    1
@<TRIPOS>SUBSTRUCTURE
     1 RES1        1 GROUP             0 ****  ****    0  
@<TRIPOS>MOLECULE
ligand_8
    22    24     1     0     0
SMALL
USER_CHARGES
****
Generated from the CSD

@<TRIPOS>ATOM
     1 O1      22.0963  48.0898  -2.3660   O.2       1 RES1   0.0000
     2 C2      22.8864  47.7327  -1.5024   C.2       1 RES1   0.0000
     3 N3      23.0388  46.4551  -1.1509   N.am      1 RES1   0.0000
     4 C4      23.9741  45.9672  -0.1504   C.3       1 RES1   0.0000
     5 C5      25.2700  46.7401  -0.2623   C.3       1 RES1   0.0000
     6 C6      24.9863  48.2190  -0.2376   C.2       1 RES1   0.0000
     7 C7      25.8861  49.1427   0.4298   C.2       1 RES1   0.0000
     8 O8      26.9043  48.6162   1.2102   O.3       1 RES1   0.0000
     9 C9      27.8951  49.3349   1.9499   C.3       1 RES1   0.0000
    10 C10     28.7153  48.1510   2.5906   C.3       1 RES1   0.0000
    11 C11     29.8841  48.5861   3.4698   C.3       1 RES1   0.0000
    12 C12     30.6515  47.3369   4.0716   C.3       1 RES1   0.0000
    13 N13     29.7677  46.4711   4.9824   N.3       1 RES1   1.0000
    14 C14     29.3747  47.2107   6.2205   C.3       1 RES1   0.0000
    15 C15     28.4459  46.3789   7.0662   C.3       1 RES1   0.0000
    16 C16     29.0563  45.0358   7.4148   C.3       1 RES1   0.0000
    17 C17     29.5129  44.3223   6.1591   C.3       1 RES1   0.0000
    18 C18     30.4388  45.1822   5.3393   C.3       1 RES1   0.0000
    19 C19     25.5300  50.5151   0.4734   C.2       1 RES1   0.0000
    20 C20     24.3088  50.9944  -0.1260   C.2       1 RES1   0.0000
    21 C21     23.4485  50.0797  -0.7700   C.2       1 RES1   0.0000
    22 C22     23.7981  48.7113  -0.8163   C.2       1 RES1   0.0000
@<TRIPOS>BOND
     1     1     2    2
     2     2     3   am
     3     3     4    1
     4     4     5    1
     5     5     6    1
     6     6     7    2
     7     7     8    1
     8     8     9    1
     9     9    10    1
    10    10    11    1
    11    11    12    1
    12    12    13    1
    13    13    14    1
    14    14    15    1
    15    15    16    1
    16    16    17    1
    17    17    18    1
    18     7    19    1
    19    19    20    2
    20    20    21    1
    21    21    22    2
    22    22     2    1
    23    22     6    1
    24    18    13    1
@<TRIPOS>SUBSTRUCTURE
     1 RES1        1 GROUP             0 ****  ****    0  
@<TRIPOS>MOLECULE
ligand_9
    22    24     1     0     0
SMALL
USER_CHARGES
****
Generated from the CSD

@<TRIPOS>ATOM
     1 O1      22.0963  48.0898  -2.3660   O.2       1 RES1   0.0000
     2 C2      22.8864  47.7327  -1.5024   C.2       1 RES1   0.0000
     3 N3      23.0388  46.4551  -1.1509   N.am      1 RES1   0.0000
     4 C4      23.9741  45.9672  -0.1504   C.3       1 RES1   0.0000
     5 C5      25.2700  46.7401  -0.2623   C.3       1 RES1   0.0000
     6 C6      24.9863  48.2190  -0.2376   C.2       1 RES1   0.0000
     7 C7      25.8861  49.1427   0.4298   C.2       1 RES1   0.0000
     8 O8      26.9043  48.6162   1.2102   O.3       1 RES1   0.0000
     9 C9      27.8951  49.3349   1.9499   C.3       1 RES1   0.0000
    10 C10     28.7153  48.1510   2.5906   C.3       1 RES1   0.0000
    11 C11     29.8841  48.5861   3.4698   C.3       1 RES1   0.0000
    12 C12     30.5531  47.3472   4.1973   C.3       1 RES1   0.0000
    13 N13     31.1261  46.3128   3.2164   N.3       1 RES1   1.0000
    14 C14     30.0881  45.3176   2.8085   C.3       1 RES1   0.0000
    15 C15     30.6419  44.3574   1.7883   C.3       1 RES1   0.0000
    16 C16     31.8867  43.6565   2.2954   C.3       1 RES1   0.0000
    17 C17     32.9069  44.6710   2.7693   C.3       1 RES1   0.0000
    18 C18     32.3194  45.6131   3.7871   C.3       1 RES1   0.0000
    19 C19     25.5300  50.5151   0.4734   C.2       1 RES1   0.0000
    20 C20     24.3088  50.9944  -0.1260   C.2       1 RES1   0.0000
    21 C21     23.4485  50.0797  -0.7700   C.2       1 RES1   0.0000
    22 C22     23.7981  48.7113  -0.8163   C.2       1 RES1   0.0000
@<TRIPOS>BOND
     1     1     2    2
     2     2     3   am
     3     3     4    1
     4     4     5    1
     5     5     6    1
     6     6     7    2
     7     7     8    1
     8     8     9    1
     9     9    10    1
    10    10    11    1
    11    11    12    1
    12    12    13    1
    13    13    14    1
    14    14    15    1
    15    15    16    1
    16    16    17    1
    17    17    18    1
    18     7    19    1
    19    19    20    2
    20    20    21    1
    21    21    22    2
    22    22     2    1
    23    22     6    1
    24    18    13    1
@<TRIPOS>SUBSTRUCTURE
     1 RES1        1 GROUP             0 ****  ****    0  
@<TRIPOS>MOLECULE
ligand_10
    22    24     1     0     0
SMALL
USER_CHARGES
****
Generated from the CSD

@<TRIPOS>ATOM
     1 O1      22.0963  48.0898  -2.3660   O.2       1 RES1   0.0000
     2 C2      22.8864  47.7327  -1.5024   C.2       1 RES1   0.0000
     3 N3      23.0388  46.4551  -1.1509   N.am      1 RES1   0.0000
     4 C4      23.9741  45.9672  -0.1504   C.3       1 RES1   0.0000
     5 C5      25.2700  46.7401  -0.2623   C.3       1 RES1   0.0000
     6 C6      24.9863  48.2190  -0.2376   C.2       1 RES1   0.0000
     7 C7      25.8861  49.1427   0.4298   C.2       1 RES1   0.0000
     8 O8      26.9043  48.6162   1.2102   O.3       1 RES1   0.0000
     9 C9      27.8951  49.3349   1.9499   C.3       1 RES1   0.0000
    10 C10     28.7153  48.1510   2.5906   C.3       1 RES1   0.0000
    11 C11     27.9286  47.2862   3.5711   C.3       1 RES1   0.0000
    12 C12     28.8264  46.1236   4.1661   C.3       1 RES1   0.0000
    13 N13     30.0283  46.6444   4.9689   N.3       1 RES1   1.0000
    14 C14     30.9847  45.5420   5.2921   C.3       1 RES1   0.0000
    15 C15     32.1947  46.0796   6.0109   C.3       1 RES1   0.0000
    16 C16     31.8104  46.8409   7.2642   C.3       1 RES1   0.0000
    17 C17     30.7903  47.9122   6.9385   C.3       1 RES1   0.0000
    18 C18     29.5958  47.3396   6.2215   C.3       1 RES1   0.0000
    19 C19     25.5300  50.5151   0.4734   C.2       1 RES1   0.0000
    20 C20     24.3088  50.9944  -0.1260   C.2       1 RES1   0.0000
    21 C21     23.4485  50.0797  -0.7700   C.2       1 RES1   0.0000
    22 C22     23.7981  48.7113  -0.8163   C.2       1 RES1   0.0000
@<TRIPOS>BOND
     1     1     2    2
     2     2     3   am
     3     3     4    1
     4     4     5    1
     5     5     6    1
     6     6     7    2
     7     7     8    1
     8     8     9    1
     9     9    10    1
    10    10    11    1
    11    11    12    1
    12    12    13    1
    13    13    14    1
    14    14    15    1
    15    15    16    1
    16    16    17    1
    17    17    18    1
    18     7    19    1
    19    19    20    2
    20    20    21    1
    21    21    22    2
    22    22     2    1
    23    22     6    1
    24    18    13    1
@<TRIPOS>SUBSTRUCTURE
     1 RES1        1 GROUP             0 ****  ****    0  
@<TRIPOS>MOLECULE
ligand_11
    22    24     1     0     0
SMALL
USER_CHARGES
****
Generated from the CSD

@<TRIPOS>ATOM
     1 O1      22.0963  48.0898  -2.3660   O.2       1 RES1   0.0000
     2 C2      22.8864  47.7327  -1.5024   C.2       1 RES1   0.0000
     3 N3      23.0388  46.4551  -1.1509   N.am      1 RES1   0.0000
     4 C4      23.9741  45.9672  -0.1504   C.3       1 RES1   0.0000
     5 C5      25.2700  46.7401  -0.2623   C.3       1 RES1   0.0000
     6 C6      24.9863  48.2190  -0.2376   C.2       1 RES1   0.0000
     7 C7      25.8861  49.1427   0.4298   C.2       1 RES1   0.0000
     8 O8      26.9043  48.6162   1.2102   O.3       1 RES1   0.0000
     9 C9      27.8951  49.3349   1.9499   C.3       1 RES1   0.0000
    10 C10     28.7153  48.1510   2.5906   C.3       1 RES1   0.0000
    11 C11     29.4334  47.2545   1.5862   C.3       1 RES1   0.0000
    12 C12     30.2309  46.0940   2.3136   C.3       1 RES1   0.0000
    13 N13     29.3202  45.1490   3.1124   N.3       1 RES1   1.0000
    14 C14     30.1180  44.2337   3.9841   C.3       1 RES1   0.0000
    15 C15     29.2109  43.3670   4.8183   C.3       1 RES1   0.0000
    16 C16     28.2415  42.5796   3.9592   C.3       1 RES1   0.0000
    17 C17     27.4852  43.5079   3.0313   C.3       1 RES1   0.0000
    18 C18     28.4224  44.3578   2.2139   C.3       1 RES1   0.0000
    19 C19     25.5300  50.5151   0.4734   C.2       1 RES1   0.0000
    20 C20     24.3088  50.9944  -0.1260   C.2       1 RES1   0.0000
    21 C21     23.4485  50.0797  -0.7700   C.2       1 RES1   0.0000
    22 C22     23.7981  48.7113  -0.8163   C.2       1 RES1   0.0000
@<TRIPOS>BOND
     1     1     2    2
     2     2     3   am
     3     3     4    1
     4     4     5    1
     5     5     6    1
     6     6     7    2
     7     7     8    1
     8     8     9    1
     9     9    10    1
    10    10    11    1
    11    11    12    1
    12    12    13    1
    13    13    14    1
    14    14    15    1
    15    15    16    1
    16    16    17    1
    17    17    18    1
    18     7    19    1
    19    19    20    2
    20    20    21    1
    21    21    22    2
    22    22     2    1
    23    22     6    1
    24    18    13    1
@<TRIPOS>SUBSTRUCTURE
     1 RES1        1 GROUP             0 ****  ****    0  
@<TRIPOS>MOLECULE
ligand_12
    22    24     1     0     0
SMALL
USER_CHARGES
****
Generated from the CSD

@<TRIPOS>ATOM
     1 O1      22.0963  48.0898  -2.3660   O.2       1 RES1   0.0000
     2 C2      22.8864  47.7327  -1.5024   C.2       1 RES1   0.0000
     3 N3      23.0388  46.4551  -1.1509   N.am      1 RES1   0.0000
     4 C4      23.9741  45.9672  -0.1504   C.3       1 RES1   0.0000
     5 C5      25.2700  46.7401  -0.2623   C.3       1 RES1   0.0000
     6 C6      24.9863  48.2190  -0.2376   C.2       1 RES1   0.0000
     7 C7      25.8861  49.1427   0.4298   C.2       1 RES1   0.0000
     8 O8      26.9043  48.6162   1.2102   O.3       1 RES1   0.0000
     9 C9      27.8951  49.3349   1.9499   C.3       1 RES1   0.0000
    10 C10     28.7153  48.1510   2.5906   C.3       1 RES1   0.0000
    11 C11     27.9286  47.2862   3.5711   C.3       1 RES1   0.0000
    12 C12     28.8631  46.2220   4.2824   C.3       1 RES1   0.0000
    13 N13     29.5231  45.2475   3.2949   N.3       1 RES1   1.0000
    14 C14     29.7459  43.9082   3.9201   C.3       1 RES1   0.0000
    15 C15     30.3213  42.9413   2.9183   C.3       1 RES1   0.0000
    16 C16     31.6040  43.4666   2.3044   C.3       1 RES1   0.0000
    17 C17     31.3859  44.8523   1.7327   C.3       1 RES1   0.0000
    18 C18     30.8108  45.7911   2.7606   C.3       1 RES1   0.0000
    19 C19     25.5300  50.5151   0.4734   C.2       1 RES1   0.0000
    20 C20     24.3088  50.9944  -0.1260   C.2       1 RES1   0.0000
    21 C21     23.4485  50.0797  -0.7700   C.2       1 RES1   0.0000
    22 C22     23.7981  48.7113  -0.8163   C.2       1 RES1   0.0000
@<TRIPOS>BOND
     1     1     2    2
     2     2     3   am
     3     3     4    1
     4     4     5    1
     5     5     6    1
     6     6     7    2
     7     7     8    1
     8     8     9    1
     9     9    10    1
    10    10    11    1
    11    11    12    1
    12    12    13    1
    13    13    14    1
    14    14    15    1
    15    15    16    1
    16    16    17    1
    17    17    18    1
    18     7    19    1
    19    19    20    2
    20    20    21    1
    21    21    22    2
    22    22     2    1
    23    22     6    1
    24    18    13    1
@<TRIPOS>SUBSTRUCTURE
     1 RES1        1 GROUP             0 ****  ****    0  
@<TRIPOS>MOLECULE
ligand_13
    22    24     1     0     0
SMALL
USER_CHARGES
****
Generated from the CSD

@<TRIPOS>ATOM
     1 O1      22.0963  48.0898  -2.3660   O.2       1 RES1   0.0000
     2 C2      22.8864  47.7327  -1.5024   C.2       1 RES1   0.0000
     3 N3      23.0388  46.4551  -1.1509   N.am      1 RES1   0.0000
     4 C4      23.9741  45.9672  -0.1504   C.3       1 RES1   0.0000
     5 C5      25.2700  46.7401  -0.2623   C.3       1 RES1   0.0000
     6 C6      24.9863  48.2190  -0.2376   C.2       1 RES1   0.0000
     7 C7      25.8861  49.1427   0.4298   C.2       1 RES1   0.0000
     8 O8      26.9043  48.6162   1.2102   O.3       1 RES1   0.0000
     9 C9      27.8951  49.3349   1.9499   C.3       1 RES1   0.0000
    10 C10     28.7153  48.1510   2.5906   C.3       1 RES1   0.0000
    11 C11     29.4334  47.2545   1.5862   C.3       1 RES1   0.0000
    12 C12     30.1016  46.0067   2.2991   C.3       1 RES1   0.0000
    13 N13     31.1583  46.4052   3.3407   N.3       1 RES1   1.0000
    14 C14     32.2368  45.3752   3.4421   C.3       1 RES1   0.0000
    15 C15     33.3050  45.8152   4.4091   C.3       1 RES1   0.0000
    16 C16     32.7300  46.1261   5.7768   C.3       1 RES1   0.0000
    17 C17     31.5931  47.1200   5.6574   C.3       1 RES1   0.0000
    18 C18     30.5451  46.6480   4.6839   C.3       1 RES1   0.0000
    19 C19     25.5300  50.5151   0.4734   C.2       1 RES1   0.0000
    20 C20     24.3088  50.9944  -0.1260   C.2       1 RES1   0.0000
    21 C21     23.4485  50.0797  -0.7700   C.2       1 RES1   0.0000
    22 C22     23.7981  48.7113  -0.8163   C.2       1 RES1   0.0000
@<TRIPOS>BOND
     1     1     2    2
     2     2     3   am
     3     3     4    1
     4     4     5    1
     5     5     6    1
     6     6     7    2
     7     7     8    1
     8     8     9    1
     9     9    10    1
    10    10    11    1
    11    11    12    1
    12    12    13    1
    13    13    14    1
    14    14    15    1
    15    15    16    1
    16    16    17    1
    17    17    18    1
    18     7    19    1
    19    19    20    2
    20    20    21    1
    21    21    22    2
    22    22     2    1
    23    22     6    1
    24    18    13    1
@<TRIPOS>SUBSTRUCTURE
     1 RES1        1 GROUP             0 ****  ****    0  
@<TRIPOS>MOLECULE
ligand_14
    22    24     1     0     0
SMALL
USER_CHARGES
****
Generated from the CSD

@<TRIPOS>ATOM
     1 O1      22.0963  48.0898  -2.3660   O.2       1 RES1   0.0000
     2 C2      22.8864  47.7327  -1.5024   C.2       1 RES1   0.0000
     3 N3      23.0388  46.4551  -1.1509   N.am      1 RES1   0.0000
     4 C4      23.9741  45.9672  -0.1504   C.3       1 RES1   0.0000
     5 C5      25.2700  46.7401  -0.2623   C.3       1 RES1   0.0000
     6 C6      24.9863  48.2190  -0.2376   C.2       1 RES1   0.0000
     7 C7      25.8861  49.1427   0.4298   C.2       1 RES1   0.0000
     8 O8      26.9043  48.6162   1.2102   O.3       1 RES1   0.0000
     9 C9      27.8951  49.3349   1.9499   C.3       1 RES1   0.0000
    10 C10     28.7153  48.1510   2.5906   C.3       1 RES1   0.0000
    11 C11     27.9286  47.2862   3.5711   C.3       1 RES1   0.0000
    12 C12     28.8264  46.1236   4.1661   C.3       1 RES1   0.0000
    13 N13     29.3348  45.1487   3.0931   N.3       1 RES1   1.0000
    14 C14     28.2091  44.3792   2.4808   C.3       1 RES1   0.0000
    15 C15     28.7123  43.4849   1.3779   C.3       1 RES1   0.0000
    16 C16     29.7988  42.5478   1.8672   C.3       1 RES1   0.0000
    17 C17     30.9039  43.3305   2.5460   C.3       1 RES1   0.0000
    18 C18     30.3650  44.2123   3.6418   C.3       1 RES1   0.0000
    19 C19     25.5300  50.5151   0.4734   C.2       1 RES1   0.0000
    20 C20     24.3088  50.9944  -0.1260   C.2       1 RES1   0.0000
    21 C21     23.4485  50.0797  -0.7700   C.2       1 RES1   0.0000
    22 C22     23.7981  48.7113  -0.8163   C.2       1 RES1   0.0000
@<TRIPOS>BOND
     1     1     2    2
     2     2     3   am
     3     3     4    1
     4     4     5    1
     5     5     6    1
     6     6     7    2
     7     7     8    1
     8     8     9    1
     9     9    10    1
    10    10    11    1
    11    11    12    1
    12    12    13    1
    13    13    14    1
    14    14    15    1
    15    15    16    1
    16    16    17    1
    17    17    18    1
    18     7    19    1
    19    19    20    2
    20    20    21    1
    21    21    22    2
    22    22     2    1
    23    22     6    1
    24    18    13    1
@<TRIPOS>SUBSTRUCTURE
     1 RES1        1 GROUP             0 ****  ****    0  
@<TRIPOS>MOLECULE
ligand_15
    22    24     1     0     0
SMALL
USER_CHARGES
****
Generated from the CSD

@<TRIPOS>ATOM
     1 O1      22.0963  48.0898  -2.3660   O.2       1 RES1   0.0000
     2 C2      22.8864  47.7327  -1.5024   C.2       1 RES1   0.0000
     3 N3      23.0388  46.4551  -1.1509   N.am      1 RES1   0.0000
     4 C4      23.9741  45.9672  -0.1504   C.3       1 RES1   0.0000
     5 C5      25.2700  46.7401  -0.2623   C.3       1 RES1   0.0000
     6 C6      24.9863  48.2190  -0.2376   C.2       1 RES1   0.0000
     7 C7      25.8861  49.1427   0.4298   C.2       1 RES1   0.0000
     8 O8      26.9043  48.6162   1.2102   O.3       1 RES1   0.0000
     9 C9      27.8951  49.3349   1.9499   C.3       1 RES1   0.0000
    10 C10     28.7153  48.1510   2.5906   C.3       1 RES1   0.0000
    11 C11     29.4334  47.2545   1.5862   C.3       1 RES1   0.0000
    12 C12     30.2309  46.0940   2.3136   C.3       1 RES1   0.0000
    13 N13     31.3364  46.6169   3.2436   N.3       1 RES1   1.0000
    14 C14     32.4225  47.2925   2.4702   C.3       1 RES1   0.0000
    15 C15     33.4598  47.8678   3.3990   C.3       1 RES1   0.0000
    16 C16     34.0355  46.8108   4.3206   C.3       1 RES1   0.0000
    17 C17     32.9239  46.0853   5.0503   C.3       1 RES1   0.0000
    18 C18     31.9066  45.5239   4.0918   C.3       1 RES1   0.0000
    19 C19     25.5300  50.5151   0.4734   C.2       1 RES1   0.0000
    20 C20     24.3088  50.9944  -0.1260   C.2       1 RES1   0.0000
    21 C21     23.4485  50.0797  -0.7700   C.2       1 RES1   0.0000
    22 C22     23.7981  48.7113  -0.8163   C.2       1 RES1   0.0000
@<TRIPOS>BOND
     1     1     2    2
     2     2     3   am
     3     3     4    1
     4     4     5    1
     5     5     6    1
     6     6     7    2
     7     7     8    1
     8     8     9    1
     9     9    10    1
    10    10    11    1
    11    11    12    1
    12    12    13    1
    13    13    14    1
    14    14    15    1
    15    15    16    1
    16    16    17    1
    17    17    18    1
    18     7    19    1
    19    19    20    2
    20    20    21    1
    21    21    22    2
    22    22     2    1
    23    22     6    1
    24    18    13    1
@<TRIPOS>SUBSTRUCTURE
     1 RES1        1 GROUP             0 ****  ****    0  
@<TRIPOS>MOLECULE
ligand_16
    22    24     1     0     0
SMALL
USER_CHARGES
****
Generated from the CSD

@<TRIPOS>ATOM
     1 O1      22.0963  48.0898  -2.3660   O.2       1 RES1   0.0000
     2 C2      22.8864  47.7327  -1.5024   C.2       1 RES1   0.0000
     3 N3      23.0388  46.4551  -1.1509   N.am      1 RES1   0.0000
     4 C4      23.9741  45.9672  -0.1504   C.3       1 RES1   0.0000
     5 C5      25.2700  46.7401  -0.2623   C.3       1 RES1   0.0000
     6 C6      24.9863  48.2190  -0.2376   C.2       1 RES1   0.0000
     7 C7      25.8861  49.1427   0.4298   C.2       1 RES1   0.0000
     8 O8      26.9043  48.6162   1.2102   O.3       1 RES1   0.0000
     9 C9      27.8951  49.3349   1.9499   C.3       1 RES1   0.0000
    10 C10     28.7153  48.1510   2.5906   C.3       1 RES1   0.0000
    11 C11     27.9286  47.2862   3.5711   C.3       1 RES1   0.0000
    12 C12     28.7750  46.0328   4.0448   C.3       1 RES1   0.0000
    13 N13     30.0700  46.4237   4.7732   N.3       1 RES1   1.0000
    14 C14     31.1950  46.6267   3.8102   C.3       1 RES1   0.0000
    15 C15     32.4368  47.0847   4.5299   C.3       1 RES1   0.0000
    16 C16     32.8378  46.1186   5.6271   C.3       1 RES1   0.0000
    17 C17     31.6713  45.8665   6.5600   C.3       1 RES1   0.0000
    18 C18     30.4489  45.4105   5.8072   C.3       1 RES1   0.0000
    19 C19     25.5300  50.5151   0.4734   C.2       1 RES1   0.0000
    20 C20     24.3088  50.9944  -0.1260   C.2       1 RES1   0.0000
    21 C21     23.4485  50.0797  -0.7700   C.2       1 RES1   0.0000
    22 C22     23.7981  48.7113  -0.8163   C.2       1 RES1   0.0000
@<TRIPOS>BOND
     1     1     2    2
     2     2     3   am
     3     3     4    1
     4     4     5    1
     5     5     6    1
     6     6     7    2
     7     7     8    1
     8     8     9    1
     9     9    10    1
    10    10    11    1
    11    11    12    1
    12    12    13    1
    13    13    14    1
    14    14    15    1
    15    15    16    1
    16    16    17    1
    17    17    18    1
    18     7    19    1
    19    19    20    2
    20    20    21    1
    21    21    22    2
    22    22     2    1
    23    22     6    1
    24    18    13    1
@<TRIPOS>SUBSTRUCTURE
     1 RES1        1 GROUP             0 ****  ****    0  
@<TRIPOS>MOLECULE
ligand_17
    22    24     1     0     0
SMALL
USER_CHARGES
****
Generated from the CSD

@<TRIPOS>ATOM
     1 O1      22.0963  48.0898  -2.3660   O.2       1 RES1   0.0000
     2 C2      22.8864  47.7327  -1.5024   C.2       1 RES1   0.0000
     3 N3      23.0388  46.4551  -1.1509   N.am      1 RES1   0.0000
     4 C4      23.9741  45.9672  -0.1504   C.3       1 RES1   0.0000
     5 C5      25.2700  46.7401  -0.2623   C.3       1 RES1   0.0000
     6 C6      24.9863  48.2190  -0.2376   C.2       1 RES1   0.0000
     7 C7      25.8861  49.1427   0.4298   C.2       1 RES1   0.0000
     8 O8      26.9043  48.6162   1.2102   O.3       1 RES1   0.0000
     9 C9      27.8951  49.3349   1.9499   C.3       1 RES1   0.0000
    10 C10     28.7153  48.1510   2.5906   C.3       1 RES1   0.0000
    11 C11     29.4334  47.2545   1.5862   C.3       1 RES1   0.0000
    12 C12     30.3567  46.1927   2.3155   C.3       1 RES1   0.0000
    13 N13     29.5717  45.2476   3.2379   N.3       1 RES1   1.0000
    14 C14     29.4189  45.8275   4.6071   C.3       1 RES1   0.0000
    15 C15     28.5817  44.9266   5.4772   C.3       1 RES1   0.0000
    16 C16     29.1552  43.5252   5.5493   C.3       1 RES1   0.0000
    17 C17     29.3697  42.9709   4.1560   C.3       1 RES1   0.0000
    18 C18     30.2098  43.8962   3.3153   C.3       1 RES1   0.0000
    19 C19     25.5300  50.5151   0.4734   C.2       1 RES1   0.0000
    20 C20     24.3088  50.9944  -0.1260   C.2       1 RES1   0.0000
    21 C21     23.4485  50.0797  -0.7700   C.2       1 RES1   0.0000
    22 C22     23.7981  48.7113  -0.8163   C.2       1 RES1   0.0000
@<TRIPOS>BOND
     1     1     2    2
     2     2     3   am
     3     3     4    1
     4     4     5    1
     5     5     6    1
     6     6     7    2
     7     7     8    1
     8     8     9    1
     9     9    10    1
    10    10    11    1
    11    11    12    1
    12    12    13    1
    13    13    14    1
    14    14    15    1
    15    15    16    1
    16    16    17    1
    17    17    18    1
    18     7    19    1
    19    19    20    2
    20    20    21    1
    21    21    22    2
    22    22     2    1
    23    22     6    1
    24    18    13    1
@<TRIPOS>SUBSTRUCTURE
     1 RES1        1 GROUP             0 ****  ****    0  
@<TRIPOS>MOLECULE
ligand_18
    22    24     1     0     0
SMALL
USER_CHARGES
****
Generated from the CSD

@<TRIPOS>ATOM
     1 O1      22.0963  48.0898  -2.3660   O.2       1 RES1   0.0000
     2 C2      22.8864  47.7327  -1.5024   C.2       1 RES1   0.0000
     3 N3      23.0388  46.4551  -1.1509   N.am      1 RES1   0.0000
     4 C4      23.9741  45.9672  -0.1504   C.3       1 RES1   0.0000
     5 C5      25.2700  46.7401  -0.2623   C.3       1 RES1   0.0000
     6 C6      24.9863  48.2190  -0.2376   C.2       1 RES1   0.0000
     7 C7      25.8861  49.1427   0.4298   C.2       1 RES1   0.0000
     8 O8      26.9043  48.6162   1.2102   O.3       1 RES1   0.0000
     9 C9      27.8951  49.3349   1.9499   C.3       1 RES1   0.0000
    10 C10     28.7153  48.1510   2.5906   C.3       1 RES1   0.0000
    11 C11     29.8841  48.5861   3.4698   C.3       1 RES1   0.0000
    12 C12     30.6515  47.3369   4.0716   C.3       1 RES1   0.0000
    13 N13     31.8373  47.7338   4.9642   N.3       1 RES1   1.0000
    14 C14     31.3762  48.4437   6.1962   C.3       1 RES1   0.0000
    15 C15     32.5413  48.7576   7.0982   C.3       1 RES1   0.0000
    16 C16     33.6048  49.5649   6.3805   C.3       1 RES1   0.0000
    17 C17     34.0179  48.8713   5.0987   C.3       1 RES1   0.0000
    18 C18     32.8294  48.5734   4.2226   C.3       1 RES1   0.0000
    19 C19     25.5300  50.5151   0.4734   C.2       1 RES1   0.0000
    20 C20     24.3088  50.9944  -0.1260   C.2       1 RES1   0.0000
    21 C21     23.4485  50.0797  -0.7700   C.2       1 RES1   0.0000
    22 C22     23.7981  48.7113  -0.8163   C.2       1 RES1   0.0000
@<TRIPOS>BOND
     1     1     2    2
     2     2     3   am
     3     3     4    1
     4     4     5    1
     5     5     6    1
     6     6     7    2
     7     7     8    1
     8     8     9    1
     9     9    10    1
    10    10    11    1
    11    11    12    1
    12    12    13    1
    13    13    14    1
    14    14    15    1
    15    15    16    1
    16    16    17    1
    17    17    18    1
    18     7    19    1
    19    19    20    2
    20    20    21    1
    21    21    22    2
    22    22     2    1
    23    22     6    1
    24    18    13    1
@<TRIPOS>SUBSTRUCTURE
     1 RES1        1 GROUP             0 ****  ****    0  
@<TRIPOS>MOLECULE
ligand_19
    22    24     1     0     0
SMALL
USER_CHARGES
****
Generated from the CSD

@<TRIPOS>ATOM
     1 O1      22.0963  48.0898  -2.3660   O.2       1 RES1   0.0000
     2 C2      22.8864  47.7327  -1.5024   C.2       1 RES1   0.0000
     3 N3      23.0388  46.4551  -1.1509   N.am      1 RES1   0.0000
     4 C4      23.9741  45.9672  -0.1504   C.3       1 RES1   0.0000
     5 C5      25.2700  46.7401  -0.2623   C.3       1 RES1   0.0000
     6 C6      24.9863  48.2190  -0.2376   C.2       1 RES1   0.0000
     7 C7      25.8861  49.1427   0.4298   C.2       1 RES1   0.0000
     8 O8      26.9043  48.6162   1.2102   O.3       1 RES1   0.0000
     9 C9      27.8951  49.3349   1.9499   C.3       1 RES1   0.0000
    10 C10     28.7153  48.1510   2.5906   C.3       1 RES1   0.0000
    11 C11     29.8841  48.5861   3.4698   C.3       1 RES1   0.0000
    12 C12     31.0208  49.2864   2.6158   C.3       1 RES1   0.0000
    13 N13     32.2173  49.7398   3.4662   N.3       1 RES1   1.0000
    14 C14     33.1408  50.6150   2.6818   C.3       1 RES1   0.0000
    15 C15     34.2667  51.1148   3.5492   C.3       1 RES1   0.0000
    16 C16     35.0280  49.9730   4.1933   C.3       1 RES1   0.0000
    17 C17     34.0757  49.0537   4.9300   C.3       1 RES1   0.0000
    18 C18     32.9645  48.5740   4.0334   C.3       1 RES1   0.0000
    19 C19     25.5300  50.5151   0.4734   C.2       1 RES1   0.0000
    20 C20     24.3088  50.9944  -0.1260   C.2       1 RES1   0.0000
    21 C21     23.4485  50.0797  -0.7700   C.2       1 RES1   0.0000
    22 C22     23.7981  48.7113  -0.8163   C.2       1 RES1   0.0000
@<TRIPOS>BOND
     1     1     2    2
     2     2     3   am
     3     3     4    1
     4     4     5    1
     5     5     6    1
     6     6     7    2
     7     7     8    1
     8     8     9    1
     9     9    10    1
    10    10    11    1
    11    11    12    1
    12    12    13    1
    13    13    14    1
    14    14    15    1
    15    15    16    1
    16    16    17    1
    17    17    18    1
    18     7    19    1
    19    19    20    2
    20    20    21    1
    21    21    22    2
    22    22     2    1
    23    22     6    1
    24    18    13    1
@<TRIPOS>SUBSTRUCTURE
     1 RES1        1 GROUP             0 ****  ****    0  
@<TRIPOS>MOLECULE
ligand_20
    22    24     1     0     0
SMALL
USER_CHARGES
****
Generated from the CSD

@<TRIPOS>ATOM
     1 O1      22.0963  48.0898  -2.3660   O.2       1 RES1   0.0000
     2 C2      22.8864  47.7327  -1.5024   C.2       1 RES1   0.0000
     3 N3      23.0388  46.4551  -1.1509   N.am      1 RES1   0.0000
     4 C4      23.9741  45.9672  -0.1504   C.3       1 RES1   0.0000
     5 C5      25.2700  46.7401  -0.2623   C.3       1 RES1   0.0000
     6 C6      24.9863  48.2190  -0.2376   C.2       1 RES1   0.0000
     7 C7      25.8861  49.1427   0.4298   C.2       1 RES1   0.0000
     8 O8      26.9043  48.6162   1.2102   O.3       1 RES1   0.0000
     9 C9      27.8951  49.3349   1.9499   C.3       1 RES1   0.0000
    10 C10     28.7153  48.1510   2.5906   C.3       1 RES1   0.0000
    11 C11     29.8841  48.5861   3.4698   C.3       1 RES1   0.0000
    12 C12     29.3798  49.3209   4.7804   C.3       1 RES1   0.0000
    13 N13     30.5286  49.7753   5.6935   N.3       1 RES1   1.0000
    14 C14     30.0190  50.2264   7.0244   C.3       1 RES1   0.0000
    15 C15     31.1608  50.5951   7.9355   C.3       1 RES1   0.0000
    16 C16     32.0534  51.6526   7.3165   C.3       1 RES1   0.0000
    17 C17     32.5109  51.2166   5.9399   C.3       1 RES1   0.0000
    18 C18     31.3447  50.8563   5.0573   C.3       1 RES1   0.0000
    19 C19     25.5300  50.5151   0.4734   C.2       1 RES1   0.0000
    20 C20     24.3088  50.9944  -0.1260   C.2       1 RES1   0.0000
    21 C21     23.4485  50.0797  -0.7700   C.2       1 RES1   0.0000
    22 C22     23.7981  48.7113  -0.8163   C.2       1 RES1   0.0000
@<TRIPOS>BOND
     1     1     2    2
     2     2     3   am
     3     3     4    1
     4     4     5    1
     5     5     6    1
     6     6     7    2
     7     7     8    1
     8     8     9    1
     9     9    10    1
    10    10    11    1
    11    11    12    1
    12    12    13    1
    13    13    14    1
    14    14    15    1
    15    15    16    1
    16    16    17    1
    17    17    18    1
    18     7    19    1
    19    19    20    2
    20    20    21    1
    21    21    22    2
    22    22     2    1
    23    22     6    1
    24    18    13    1
@<TRIPOS>SUBSTRUCTURE
     1 RES1        1 GROUP             0 ****  ****    0  
@<TRIPOS>MOLECULE
ligand_21
    22    24     1     0     0
SMALL
USER_CHARGES
****
Generated from the CSD

@<TRIPOS>ATOM
     1 O1      22.0963  48.0898  -2.3660   O.2       1 RES1   0.0000
     2 C2      22.8864  47.7327  -1.5024   C.2       1 RES1   0.0000
     3 N3      23.0388  46.4551  -1.1509   N.am      1 RES1   0.0000
     4 C4      23.9741  45.9672  -0.1504   C.3       1 RES1   0.0000
     5 C5      25.2700  46.7401  -0.2623   C.3       1 RES1   0.0000
     6 C6      24.9863  48.2190  -0.2376   C.2       1 RES1   0.0000
     7 C7      25.8861  49.1427   0.4298   C.2       1 RES1   0.0000
     8 O8      26.9043  48.6162   1.2102   O.3       1 RES1   0.0000
     9 C9      27.8951  49.3349   1.9499   C.3       1 RES1   0.0000
    10 C10     28.7153  48.1510   2.5906   C.3       1 RES1   0.0000
    11 C11     29.8841  48.5861   3.4698   C.3       1 RES1   0.0000
    12 C12     31.0208  49.2864   2.6158   C.3       1 RES1   0.0000
    13 N13     32.2173  49.7398   3.4662   N.3       1 RES1   1.0000
    14 C14     31.8302  50.8327   4.4097   C.3       1 RES1   0.0000
    15 C15     32.9919  51.2133   5.2901   C.3       1 RES1   0.0000
    16 C16     34.2060  51.6134   4.4752   C.3       1 RES1   0.0000
    17 C17     34.5506  50.5288   3.4754   C.3       1 RES1   0.0000
    18 C18     33.3675  50.1742   2.6133   C.3       1 RES1   0.0000
    19 C19     25.5300  50.5151   0.4734   C.2       1 RES1   0.0000
    20 C20     24.3088  50.9944  -0.1260   C.2       1 RES1   0.0000
    21 C21     23.4485  50.0797  -0.7700   C.2       1 RES1   0.0000
    22 C22     23.7981  48.7113  -0.8163   C.2       1 RES1   0.0000
@<TRIPOS>BOND
     1     1     2    2
     2     2     3   am
     3     3     4    1
     4     4     5    1
     5     5     6    1
     6     6     7    2
     7     7     8    1
     8     8     9    1
     9     9    10    1
    10    10    11    1
    11    11    12    1
    12    12    13    1
    13    13    14    1
    14    14    15    1
    15    15    16    1
    16    16    17    1
    17    17    18    1
    18     7    19    1
    19    19    20    2
    20    20    21    1
    21    21    22    2
    22    22     2    1
    23    22     6    1
    24    18    13    1
@<TRIPOS>SUBSTRUCTURE
     1 RES1        1 GROUP             0 ****  ****    0  
@<TRIPOS>MOLECULE
ligand_22
    22    24     1     0     0
SMALL
USER_CHARGES
****
Generated from the CSD

@<TRIPOS>ATOM
     1 O1      22.0963  48.0898  -2.3660   O.2       1 RES1   0.0000
     2 C2      22.8864  47.7327  -1.5024   C.2       1 RES1   0.0000
     3 N3      23.0388  46.4551  -1.1509   N.am      1 RES1   0.0000
     4 C4      23.9741  45.9672  -0.1504   C.3       1 RES1   0.0000
     5 C5      25.2700  46.7401  -0.2623   C.3       1 RES1   0.0000
     6 C6      24.9863  48.2190  -0.2376   C.2       1 RES1   0.0000
     7 C7      25.8861  49.1427   0.4298   C.2       1 RES1   0.0000
     8 O8      26.9043  48.6162   1.2102   O.3       1 RES1   0.0000
     9 C9      27.8951  49.3349   1.9499   C.3       1 RES1   0.0000
    10 C10     28.7153  48.1510   2.5906   C.3       1 RES1   0.0000
    11 C11     29.8841  48.5861   3.4698   C.3       1 RES1   0.0000
    12 C12     29.3798  49.3209   4.7804   C.3       1 RES1   0.0000
    13 N13     30.5286  49.7753   5.6935   N.3       1 RES1   1.0000
    14 C14     31.2634  48.6059   6.2653   C.3       1 RES1   0.0000
    15 C15     32.4336  49.0655   7.0953   C.3       1 RES1   0.0000
    16 C16     32.0030  50.0174   8.1937   C.3       1 RES1   0.0000
    17 C17     31.2015  51.1643   7.6132   C.3       1 RES1   0.0000
    18 C18     30.0411  50.6684   6.7908   C.3       1 RES1   0.0000
    19 C19     25.5300  50.5151   0.4734   C.2       1 RES1   0.0000
    20 C20     24.3088  50.9944  -0.1260   C.2       1 RES1   0.0000
    21 C21     23.4485  50.0797  -0.7700   C.2       1 RES1   0.0000
    22 C22     23.7981  48.7113  -0.8163   C.2       1 RES1   0.0000
@<TRIPOS>BOND
     1     1     2    2
     2     2     3   am
     3     3     4    1
     4     4     5    1
     5     5     6    1
     6     6     7    2
     7     7     8    1
     8     8     9    1
     9     9    10    1
    10    10    11    1
    11    11    12    1
    12    12    13    1
    13    13    14    1
    14    14    15    1
    15    15    16    1
    16    16    17    1
    17    17    18    1
    18     7    19    1
    19    19    20    2
    20    20    21    1
    21    21    22    2
    22    22     2    1
    23    22     6    1
    24    18    13    1
@<TRIPOS>SUBSTRUCTURE
     1 RES1        1 GROUP             0 ****  ****    0  
@<TRIPOS>MOLECULE
ligand_23
    22    24     1     0     0
SMALL
USER_CHARGES
****
Generated from the CSD

@<TRIPOS>ATOM
     1 O1      22.0963  48.0898  -2.3660   O.2       1 RES1   0.0000
     2 C2      22.8864  47.7327  -1.5024   C.2       1 RES1   0.0000
     3 N3      23.0388  46.4551  -1.1509   N.am      1 RES1   0.0000
     4 C4      23.9741  45.9672  -0.1504   C.3       1 RES1   0.0000
     5 C5      25.2700  46.7401  -0.2623   C.3       1 RES1   0.0000
     6 C6      24.9863  48.2190  -0.2376   C.2       1 RES1   0.0000
     7 C7      25.8861  49.1427   0.4298   C.2       1 RES1   0.0000
     8 O8      26.9043  48.6162   1.2102   O.3       1 RES1   0.0000
     9 C9      27.8951  49.3349   1.9499   C.3       1 RES1   0.0000
    10 C10     28.9337  49.6777   0.8148   C.3       1 RES1   0.0000
    11 C11     30.1532  50.4670   1.2820   C.3       1 RES1   0.0000
    12 C12     31.1424  50.7677   0.0809   C.3       1 RES1   0.0000
    13 N13     32.3850  51.5622   0.5112   N.3       1 RES1   1.0000
    14 C14     33.1574  52.0464  -0.6734   C.3       1 RES1   0.0000
    15 C15     34.3285  52.8884  -0.2383   C.3       1 RES1   0.0000
    16 C16     35.2320  52.1397   0.7214   C.3       1 RES1   0.0000
    17 C17     34.4293  51.5948   1.8848   C.3       1 RES1   0.0000
    18 C18     33.2684  50.7589   1.4132   C.3       1 RES1   0.0000
    19 C19     25.5300  50.5151   0.4734   C.2       1 RES1   0.0000
    20 C20     24.3088  50.9944  -0.1260   C.2       1 RES1   0.0000
    21 C21     23.4485  50.0797  -0.7700   C.2       1 RES1   0.0000
    22 C22     23.7981  48.7113  -0.8163   C.2       1 RES1   0.0000
@<TRIPOS>BOND
     1     1     2    2
     2     2     3   am
     3     3     4    1
     4     4     5    1
     5     5     6    1
     6     6     7    2
     7     7     8    1
     8     8     9    1
     9     9    10    1
    10    10    11    1
    11    11    12    1
    12    12    13    1
    13    13    14    1
    14    14    15    1
    15    15    16    1
    16    16    17    1
    17    17    18    1
    18     7    19    1
    19    19    20    2
    20    20    21    1
    21    21    22    2
    22    22     2    1
    23    22     6    1
    24    18    13    1
@<TRIPOS>SUBSTRUCTURE
     1 RES1        1 GROUP             0 ****  ****    0  
@<TRIPOS>MOLECULE
ligand_24
    22    24     1     0     0
SMALL
USER_CHARGES
****
Generated from the CSD

@<TRIPOS>ATOM
     1 O1      22.0986  48.0900  -2.3692   O.2       1 RES1   0.0000
     2 C2      22.8871  47.7335  -1.5038   C.2       1 RES1   0.0000
     3 N3      23.0366  46.4566  -1.1487   N.am      1 RES1   0.0000
     4 C4      23.9700  45.9695  -0.1460   C.3       1 RES1   0.0000
     5 C5      25.2676  46.7394  -0.2588   C.3       1 RES1   0.0000
     6 C6      24.9869  48.2190  -0.2383   C.2       1 RES1   0.0000
     7 C7      25.8879  49.1427   0.4274   C.2       1 RES1   0.0000
     8 O8      26.9043  48.6162   1.2102   O.3       1 RES1   0.0000
     9 C9      27.8951  49.3349   1.9499   C.3       1 RES1   0.0000
    10 C10     27.0882  49.7166   3.2491   C.3       1 RES1   0.0000
    11 C11     27.8796  50.5145   4.2812   C.3       1 RES1   0.0000
    12 C12     26.9951  50.8547   5.5515   C.3       1 RES1   0.0000
    13 N13     27.7573  51.6589   6.6157   N.3       1 RES1   1.0000
    14 C14     26.9854  51.7380   7.8933   C.3       1 RES1   0.0000
    15 C15     27.7774  52.4617   8.9509   C.3       1 RES1   0.0000
    16 C16     28.1957  53.8442   8.4907   C.3       1 RES1   0.0000
    17 C17     28.9185  53.7614   7.1620   C.3       1 RES1   0.0000
    18 C18     28.0983  53.0326   6.1300   C.3       1 RES1   0.0000
    19 C19     25.5346  50.5159   0.4670   C.2       1 RES1   0.0000
    20 C20     24.3150  50.9961  -0.1349   C.2       1 RES1   0.0000
    21 C21     23.4534  50.0814  -0.7772   C.2       1 RES1   0.0000
    22 C22     23.8002  48.7121  -0.8195   C.2       1 RES1   0.0000
@<TRIPOS>BOND
     1     1     2    2
     2     2     3   am
     3     3     4    1
     4     4     5    1
     5     5     6    1
     6     6     7    2
     7     7     8    1
     8     8     9    1
     9     9    10    1
    10    10    11    1
    11    11    12    1
    12    12    13    1
    13    13    14    1
    14    14    15    1
    15    15    16    1
    16    16    17    1
    17    17    18    1
    18     7    19    1
    19    19    20    2
    20    20    21    1
    21    21    22    2
    22    22     2    1
    23    22     6    1
    24    18    13    1
@<TRIPOS>SUBSTRUCTURE
     1 RES1        1 GROUP             0 ****  ****    0  
@<TRIPOS>MOLECULE
ligand_25
    22    24     1     0     0
SMALL
USER_CHARGES
****
Generated from the CSD

@<TRIPOS>ATOM
     1 O1      22.0963  48.0898  -2.3660   O.2       1 RES1   0.0000
     2 C2      22.8864  47.7327  -1.5024   C.2       1 RES1   0.0000
     3 N3      23.0388  46.4551  -1.1509   N.am      1 RES1   0.0000
     4 C4      23.9741  45.9672  -0.1504   C.3       1 RES1   0.0000
     5 C5      25.2700  46.7401  -0.2623   C.3       1 RES1   0.0000
     6 C6      24.9863  48.2190  -0.2376   C.2       1 RES1   0.0000
     7 C7      25.8861  49.1427   0.4298   C.2       1 RES1   0.0000
     8 O8      26.9043  48.6162   1.2102   O.3       1 RES1   0.0000
     9 C9      27.8951  49.3349   1.9499   C.3       1 RES1   0.0000
    10 C10     28.9337  49.6777   0.8148   C.3       1 RES1   0.0000
    11 C11     30.1532  50.4670   1.2820   C.3       1 RES1   0.0000
    12 C12     31.1424  50.7677   0.0809   C.3       1 RES1   0.0000
    13 N13     32.3850  51.5622   0.5112   N.3       1 RES1   1.0000
    14 C14     32.0206  52.9418   0.9565   C.3       1 RES1   0.0000
    15 C15     33.2371  53.6820   1.4483   C.3       1 RES1   0.0000
    16 C16     34.3285  53.7285   0.3972   C.3       1 RES1   0.0000
    17 C17     34.6444  52.3319  -0.0971   C.3       1 RES1   0.0000
    18 C18     33.4067  51.6225  -0.5805   C.3       1 RES1   0.0000
    19 C19     25.5300  50.5151   0.4734   C.2       1 RES1   0.0000
    20 C20     24.3088  50.9944  -0.1260   C.2       1 RES1   0.0000
    21 C21     23.4485  50.0797  -0.7700   C.2       1 RES1   0.0000
    22 C22     23.7981  48.7113  -0.8163   C.2       1 RES1   0.0000
@<TRIPOS>BOND
     1     1     2    2
     2     2     3   am
     3     3     4    1
     4     4     5    1
     5     5     6    1
     6     6     7    2
     7     7     8    1
     8     8     9    1
     9     9    10    1
    10    10    11    1
    11    11    12    1
    12    12    13    1
    13    13    14    1
    14    14    15    1
    15    15    16    1
    16    16    17    1
    17    17    18    1
    18     7    19    1
    19    19    20    2
    20    20    21    1
    21    21    22    2
    22    22     2    1
    23    22     6    1
    24    18    13    1
@<TRIPOS>SUBSTRUCTURE
     1 RES1        1 GROUP             0 ****  ****    0  
@<TRIPOS>MOLECULE
ligand_26
    22    24     1     0     0
SMALL
USER_CHARGES
****
Generated from the CSD

@<TRIPOS>ATOM
     1 O1      22.0986  48.0900  -2.3692   O.2       1 RES1   0.0000
     2 C2      22.8871  47.7335  -1.5038   C.2       1 RES1   0.0000
     3 N3      23.0366  46.4566  -1.1487   N.am      1 RES1   0.0000
     4 C4      23.9700  45.9695  -0.1460   C.3       1 RES1   0.0000
     5 C5      25.2676  46.7394  -0.2588   C.3       1 RES1   0.0000
     6 C6      24.9869  48.2190  -0.2383   C.2       1 RES1   0.0000
     7 C7      25.8879  49.1427   0.4274   C.2       1 RES1   0.0000
     8 O8      26.9043  48.6162   1.2102   O.3       1 RES1   0.0000
     9 C9      27.8951  49.3349   1.9499   C.3       1 RES1   0.0000
    10 C10     27.0882  49.7166   3.2491   C.3       1 RES1   0.0000
    11 C11     27.8796  50.5145   4.2812   C.3       1 RES1   0.0000
    12 C12     26.9951  50.8547   5.5515   C.3       1 RES1   0.0000
    13 N13     27.7573  51.6589   6.6157   N.3       1 RES1   1.0000
    14 C14     28.8594  50.8509   7.2214   C.3       1 RES1   0.0000
    15 C15     29.6465  51.6760   8.2059   C.3       1 RES1   0.0000
    16 C16     28.7567  52.2625   9.2840   C.3       1 RES1   0.0000
    17 C17     27.6046  53.0233   8.6607   C.3       1 RES1   0.0000
    18 C18     26.8411  52.1687   7.6834   C.3       1 RES1   0.0000
    19 C19     25.5346  50.5159   0.4670   C.2       1 RES1   0.0000
    20 C20     24.3150  50.9961  -0.1349   C.2       1 RES1   0.0000
    21 C21     23.4534  50.0814  -0.7772   C.2       1 RES1   0.0000
    22 C22     23.8002  48.7121  -0.8195   C.2       1 RES1   0.0000
@<TRIPOS>BOND
     1     1     2    2
     2     2     3   am
     3     3     4    1
     4     4     5    1
     5     5     6    1
     6     6     7    2
     7     7     8    1
     8     8     9    1
     9     9    10    1
    10    10    11    1
    11    11    12    1
    12    12    13    1
    13    13    14    1
    14    14    15    1
    15    15    16    1
    16    16    17    1
    17    17    18    1
    18     7    19    1
    19    19    20    2
    20    20    21    1
    21    21    22    2
    22    22     2    1
    23    22     6    1
    24    18    13    1
@<TRIPOS>SUBSTRUCTURE
     1 RES1        1 GROUP             0 ****  ****    0  
@<TRIPOS>MOLECULE
ligand_27
    22    24     1     0     0
SMALL
USER_CHARGES
****
Generated from the CSD

@<TRIPOS>ATOM
     1 O1      22.0963  48.0898  -2.3660   O.2       1 RES1   0.0000
     2 C2      22.8864  47.7327  -1.5024   C.2       1 RES1   0.0000
     3 N3      23.0388  46.4551  -1.1509   N.am      1 RES1   0.0000
     4 C4      23.9741  45.9672  -0.1504   C.3       1 RES1   0.0000
     5 C5      25.2700  46.7401  -0.2623   C.3       1 RES1   0.0000
     6 C6      24.9863  48.2190  -0.2376   C.2       1 RES1   0.0000
     7 C7      25.8861  49.1427   0.4298   C.2       1 RES1   0.0000
     8 O8      26.9043  48.6162   1.2102   O.3       1 RES1   0.0000
     9 C9      27.8951  49.3349   1.9499   C.3       1 RES1   0.0000
    10 C10     28.7153  48.1510   2.5906   C.3       1 RES1   0.0000
    11 C11     27.9286  47.2862   3.5711   C.3       1 RES1   0.0000
    12 C12     28.8264  46.1236   4.1661   C.3       1 RES1   0.0000
    13 N13     28.0692  45.2289   5.1594   N.3       1 RES1   1.0000
    14 C14     26.9766  44.4673   4.4809   C.3       1 RES1   0.0000
    15 C15     26.2940  43.5372   5.4497   C.3       1 RES1   0.0000
    16 C16     25.7593  44.2799   6.6583   C.3       1 RES1   0.0000
    17 C17     26.8577  45.1021   7.3002   C.3       1 RES1   0.0000
    18 C18     27.5170  46.0193   6.3038   C.3       1 RES1   0.0000
    19 C19     25.5300  50.5151   0.4734   C.2       1 RES1   0.0000
    20 C20     24.3088  50.9944  -0.1260   C.2       1 RES1   0.0000
    21 C21     23.4485  50.0797  -0.7700   C.2       1 RES1   0.0000
    22 C22     23.7981  48.7113  -0.8163   C.2       1 RES1   0.0000
@<TRIPOS>BOND
     1     1     2    2
     2     2     3   am
     3     3     4    1
     4     4     5    1
     5     5     6    1
     6     6     7    2
     7     7     8    1
     8     8     9    1
     9     9    10    1
    10    10    11    1
    11    11    12    1
    12    12    13    1
    13    13    14    1
    14    14    15    1
    15    15    16    1
    16    16    17    1
    17    17    18    1
    18     7    19    1
    19    19    20    2
    20    20    21    1
    21    21    22    2
    22    22     2    1
    23    22     6    1
    24    18    13    1
@<TRIPOS>SUBSTRUCTURE
     1 RES1        1 GROUP             0 ****  ****    0  
@<TRIPOS>MOLECULE
ligand_28
    22    24     1     0     0
SMALL
USER_CHARGES
****
Generated from the CSD

@<TRIPOS>ATOM
     1 O1      22.0963  48.0898  -2.3660   O.2       1 RES1   0.0000
     2 C2      22.8864  47.7327  -1.5024   C.2       1 RES1   0.0000
     3 N3      23.0388  46.4551  -1.1509   N.am      1 RES1   0.0000
     4 C4      23.9741  45.9672  -0.1504   C.3       1 RES1   0.0000
     5 C5      25.2700  46.7401  -0.2623   C.3       1 RES1   0.0000
     6 C6      24.9863  48.2190  -0.2376   C.2       1 RES1   0.0000
     7 C7      25.8861  49.1427   0.4298   C.2       1 RES1   0.0000
     8 O8      26.9043  48.6162   1.2102   O.3       1 RES1   0.0000
     9 C9      27.8951  49.3349   1.9499   C.3       1 RES1   0.0000
    10 C10     28.7153  48.1510   2.5906   C.3       1 RES1   0.0000
    11 C11     29.4334  47.2545   1.5862   C.3       1 RES1   0.0000
    12 C12     30.2309  46.0940   2.3136   C.3       1 RES1   0.0000
    13 N13     30.9688  45.1679   1.3348   N.3       1 RES1   1.0000
    14 C14     32.0581  45.8954   0.6148   C.3       1 RES1   0.0000
    15 C15     32.8226  44.9577  -0.2829   C.3       1 RES1   0.0000
    16 C16     31.9089  44.2520  -1.2653   C.3       1 RES1   0.0000
    17 C17     30.7700  43.5736  -0.5322   C.3       1 RES1   0.0000
    18 C18     30.0289  44.5397   0.3545   C.3       1 RES1   0.0000
    19 C19     25.5300  50.5151   0.4734   C.2       1 RES1   0.0000
    20 C20     24.3088  50.9944  -0.1260   C.2       1 RES1   0.0000
    21 C21     23.4485  50.0797  -0.7700   C.2       1 RES1   0.0000
    22 C22     23.7981  48.7113  -0.8163   C.2       1 RES1   0.0000
@<TRIPOS>BOND
     1     1     2    2
     2     2     3   am
     3     3     4    1
     4     4     5    1
     5     5     6    1
     6     6     7    2
     7     7     8    1
     8     8     9    1
     9     9    10    1
    10    10    11    1
    11    11    12    1
    12    12    13    1
    13    13    14    1
    14    14    15    1
    15    15    16    1
    16    16    17    1
    17    17    18    1
    18     7    19    1
    19    19    20    2
    20    20    21    1
    21    21    22    2
    22    22     2    1
    23    22     6    1
    24    18    13    1
@<TRIPOS>SUBSTRUCTURE
     1 RES1        1 GROUP             0 ****  ****    0  
@<TRIPOS>MOLECULE
ligand_29
    22    24     1     0     0
SMALL
USER_CHARGES
****
Generated from the CSD

@<TRIPOS>ATOM
     1 O1      21.6929  47.9867  -1.6618   O.2       1 RES1   0.0000
     2 C2      22.8837  47.7396  -1.5071   C.2       1 RES1   0.0000
     3 N3      23.4028  46.5457  -1.7926   N.am      1 RES1   0.0000
     4 C4      24.7852  46.1555  -1.5732   C.3       1 RES1   0.0000
     5 C5      25.2666  46.7392  -0.2629   C.3       1 RES1   0.0000
     6 C6      24.9897  48.2199  -0.2430   C.2       1 RES1   0.0000
     7 C7      25.8837  49.1405   0.4350   C.2       1 RES1   0.0000
     8 O8      26.9094  48.6250   1.2120   O.3       1 RES1   0.0000
     9 C9      27.8897  49.3542   1.9554   C.3       1 RES1   0.0000
    10 C10     28.1761  48.3570   3.1421   C.3       1 RES1   0.0000
    11 C11     29.2107  48.8458   4.1515   C.3       1 RES1   0.0000
    12 C12     29.4370  47.7853   5.3074   C.3       1 RES1   0.0000
    13 N13     30.4735  48.2412   6.3458   N.3       1 RES1   1.0000
    14 C14     30.8484  47.1243   7.2658   C.3       1 RES1   0.0000
    15 C15     31.9213  47.5635   8.2279   C.3       1 RES1   0.0000
    16 C16     31.5012  48.7889   9.0154   C.3       1 RES1   0.0000
    17 C17     31.0589  49.8926   8.0769   C.3       1 RES1   0.0000
    18 C18     29.9871  49.4186   7.1308   C.3       1 RES1   0.0000
    19 C19     25.5266  50.5129   0.4830   C.2       1 RES1   0.0000
    20 C20     24.3093  50.9932  -0.1232   C.2       1 RES1   0.0000
    21 C21     23.4544  50.0812  -0.7780   C.2       1 RES1   0.0000
    22 C22     23.8055  48.7132  -0.8282   C.2       1 RES1   0.0000
@<TRIPOS>BOND
     1     1     2    2
     2     2     3   am
     3     3     4    1
     4     4     5    1
     5     5     6    1
     6     6     7    2
     7     7     8    1
     8     8     9    1
     9     9    10    1
    10    10    11    1
    11    11    12    1
    12    12    13    1
    13    13    14    1
    14    14    15    1
    15    15    16    1
    16    16    17    1
    17    17    18    1
    18     7    19    1
    19    19    20    2
    20    20    21    1
    21    21    22    2
    22    22     2    1
    23    22     6    1
    24    18    13    1
@<TRIPOS>SUBSTRUCTURE
     1 RES1        1 GROUP             0 ****  ****    0  
@<TRIPOS>MOLECULE
ligand_30
    22    24     1     0     0
SMALL
USER_CHARGES
****
Generated from the CSD

@<TRIPOS>ATOM
     1 O1      22.0963  48.0898  -2.3660   O.2       1 RES1   0.0000
     2 C2      22.8864  47.7327  -1.5024   C.2       1 RES1   0.0000
     3 N3      23.0388  46.4551  -1.1509   N.am      1 RES1   0.0000
     4 C4      23.9741  45.9672  -0.1504   C.3       1 RES1   0.0000
     5 C5      25.2700  46.7401  -0.2623   C.3       1 RES1   0.0000
     6 C6      24.9863  48.2190  -0.2376   C.2       1 RES1   0.0000
     7 C7      25.8861  49.1427   0.4298   C.2       1 RES1   0.0000
     8 O8      26.9043  48.6162   1.2102   O.3       1 RES1   0.0000
     9 C9      27.8951  49.3349   1.9499   C.3       1 RES1   0.0000
    10 C10     28.7153  48.1510   2.5906   C.3       1 RES1   0.0000
    11 C11     27.9286  47.2862   3.5711   C.3       1 RES1   0.0000
    12 C12     27.5402  48.0980   4.8757   C.3       1 RES1   0.0000
    13 N13     26.7457  47.2606   5.8895   N.3       1 RES1   1.0000
    14 C14     26.1797  48.1165   6.9763   C.3       1 RES1   0.0000
    15 C15     25.3394  47.2949   7.9190   C.3       1 RES1   0.0000
    16 C16     26.1222  46.1353   8.5025   C.3       1 RES1   0.0000
    17 C17     26.7482  45.3118   7.3959   C.3       1 RES1   0.0000
    18 C18     27.5800  46.1645   6.4741   C.3       1 RES1   0.0000
    19 C19     25.5300  50.5151   0.4734   C.2       1 RES1   0.0000
    20 C20     24.3088  50.9944  -0.1260   C.2       1 RES1   0.0000
    21 C21     23.4485  50.0797  -0.7700   C.2       1 RES1   0.0000
    22 C22     23.7981  48.7113  -0.8163   C.2       1 RES1   0.0000
@<TRIPOS>BOND
     1     1     2    2
     2     2     3   am
     3     3     4    1
     4     4     5    1
     5     5     6    1
     6     6     7    2
     7     7     8    1
     8     8     9    1
     9     9    10    1
    10    10    11    1
    11    11    12    1
    12    12    13    1
    13    13    14    1
    14    14    15    1
    15    15    16    1
    16    16    17    1
    17    17    18    1
    18     7    19    1
    19    19    20    2
    20    20    21    1
    21    21    22    2
    22    22     2    1
    23    22     6    1
    24    18    13    1
@<TRIPOS>SUBSTRUCTURE
     1 RES1        1 GROUP             0 ****  ****    0  
@<TRIPOS>MOLECULE
ligand_31
    22    24     1     0     0
SMALL
USER_CHARGES
****
Generated from the CSD

@<TRIPOS>ATOM
     1 O1      22.0963  48.0898  -2.3660   O.2       1 RES1   0.0000
     2 C2      22.8864  47.7327  -1.5024   C.2       1 RES1   0.0000
     3 N3      23.0388  46.4551  -1.1509   N.am      1 RES1   0.0000
     4 C4      23.9741  45.9672  -0.1504   C.3       1 RES1   0.0000
     5 C5      25.2700  46.7401  -0.2623   C.3       1 RES1   0.0000
     6 C6      24.9863  48.2190  -0.2376   C.2       1 RES1   0.0000
     7 C7      25.8861  49.1427   0.4298   C.2       1 RES1   0.0000
     8 O8      26.9043  48.6162   1.2102   O.3       1 RES1   0.0000
     9 C9      27.8951  49.3349   1.9499   C.3       1 RES1   0.0000
    10 C10     28.7153  48.1510   2.5906   C.3       1 RES1   0.0000
    11 C11     29.4334  47.2545   1.5862   C.3       1 RES1   0.0000
    12 C12     30.5969  48.0337   0.8439   C.3       1 RES1   0.0000
    13 N13     31.3454  47.1637  -0.1775   N.3       1 RES1   1.0000
    14 C14     32.5848  47.8426  -0.6646   C.3       1 RES1   0.0000
    15 C15     33.3485  46.9472  -1.6052   C.3       1 RES1   0.0000
    16 C16     32.4907  46.4962  -2.7709   C.3       1 RES1   0.0000
    17 C17     31.2060  45.8699  -2.2688   C.3       1 RES1   0.0000
    18 C18     30.4697  46.7919  -1.3325   C.3       1 RES1   0.0000
    19 C19     25.5300  50.5151   0.4734   C.2       1 RES1   0.0000
    20 C20     24.3088  50.9944  -0.1260   C.2       1 RES1   0.0000
    21 C21     23.4485  50.0797  -0.7700   C.2       1 RES1   0.0000
    22 C22     23.7981  48.7113  -0.8163   C.2       1 RES1   0.0000
@<TRIPOS>BOND
     1     1     2    2
     2     2     3   am
     3     3     4    1
     4     4     5    1
     5     5     6    1
     6     6     7    2
     7     7     8    1
     8     8     9    1
     9     9    10    1
    10    10    11    1
    11    11    12    1
    12    12    13    1
    13    13    14    1
    14    14    15    1
    15    15    16    1
    16    16    17    1
    17    17    18    1
    18     7    19    1
    19    19    20    2
    20    20    21    1
    21    21    22    2
    22    22     2    1
    23    22     6    1
    24    18    13    1
@<TRIPOS>SUBSTRUCTURE
     1 RES1        1 GROUP             0 ****  ****    0  
@<TRIPOS>MOLECULE
ligand_32
    22    24     1     0     0
SMALL
USER_CHARGES
****
Generated from the CSD

@<TRIPOS>ATOM
     1 O1      22.0961  48.0899  -2.3658   O.2       1 RES1   0.0000
     2 C2      22.8862  47.7327  -1.5021   C.2       1 RES1   0.0000
     3 N3      23.0384  46.4553  -1.1503   N.am      1 RES1   0.0000
     4 C4      23.9736  45.9674  -0.1498   C.3       1 RES1   0.0000
     5 C5      25.2697  46.7400  -0.2619   C.3       1 RES1   0.0000
     6 C6      24.9862  48.2190  -0.2375   C.2       1 RES1   0.0000
     7 C7      25.8861  49.1427   0.4297   C.2       1 RES1   0.0000
     8 O8      26.9043  48.6162   1.2102   O.3       1 RES1   0.0000
     9 C9      27.8951  49.3349   1.9499   C.3       1 RES1   0.0000
    10 C10     28.7153  48.1510   2.5906   C.3       1 RES1   0.0000
    11 C11     27.9867  47.3951   3.6978   C.3       1 RES1   0.0000
    12 C12     26.8003  46.5197   3.1165   C.3       1 RES1   0.0000
    13 N13     26.0956  45.6755   4.1894   N.3       1 RES1   1.0000
    14 C14     25.1651  44.6809   3.5736   C.3       1 RES1   0.0000
    15 C15     24.5406  43.8089   4.6316   C.3       1 RES1   0.0000
    16 C16     23.8257  44.6309   5.6858   C.3       1 RES1   0.0000
    17 C17     24.7567  45.6806   6.2568   C.3       1 RES1   0.0000
    18 C18     25.3619  46.5328   5.1722   C.3       1 RES1   0.0000
    19 C19     25.5303  50.5152   0.4731   C.2       1 RES1   0.0000
    20 C20     24.3092  50.9946  -0.1264   C.2       1 RES1   0.0000
    21 C21     23.4487  50.0799  -0.7702   C.2       1 RES1   0.0000
    22 C22     23.7981  48.7113  -0.8163   C.2       1 RES1   0.0000
@<TRIPOS>BOND
     1     1     2    2
     2     2     3   am
     3     3     4    1
     4     4     5    1
     5     5     6    1
     6     6     7    2
     7     7     8    1
     8     8     9    1
     9     9    10    1
    10    10    11    1
    11    11    12    1
    12    12    13    1
    13    13    14    1
    14    14    15    1
    15    15    16    1
    16    16    17    1
    17    17    18    1
    18     7    19    1
    19    19    20    2
    20    20    21    1
    21    21    22    2
    22    22     2    1
    23    22     6    1
    24    18    13    1
@<TRIPOS>SUBSTRUCTURE
     1 RES1        1 GROUP             0 ****  ****    0  
@<TRIPOS>MOLECULE
ligand_33
    22    24     1     0     0
SMALL
USER_CHARGES
****
Generated from the CSD

@<TRIPOS>ATOM
     1 O1      22.0969  48.0898  -2.3667   O.2       1 RES1   0.0000
     2 C2      22.8870  47.7325  -1.5032   C.2       1 RES1   0.0000
     3 N3      23.0400  46.4548  -1.1525   N.am      1 RES1   0.0000
     4 C4      23.9754  45.9667  -0.1522   C.3       1 RES1   0.0000
     5 C5      25.2710  46.7402  -0.2636   C.3       1 RES1   0.0000
     6 C6      24.9866  48.2190  -0.2380   C.2       1 RES1   0.0000
     7 C7      25.8859  49.1427   0.4301   C.2       1 RES1   0.0000
     8 O8      26.9043  48.6162   1.2102   O.3       1 RES1   0.0000
     9 C9      27.8951  49.3349   1.9499   C.3       1 RES1   0.0000
    10 C10     28.7153  48.1510   2.5906   C.3       1 RES1   0.0000
    11 C11     29.5744  47.3630   1.6062   C.3       1 RES1   0.0000
    12 C12     28.6825  46.4816   0.6369   C.3       1 RES1   0.0000
    13 N13     29.5137  45.6054  -0.3126   N.3       1 RES1   1.0000
    14 C14     28.6584  44.9909  -1.3734   C.3       1 RES1   0.0000
    15 C15     29.4972  44.1982  -2.3418   C.3       1 RES1   0.0000
    16 C16     30.3193  43.1386  -1.6351   C.3       1 RES1   0.0000
    17 C17     31.1320  43.7599  -0.5179   C.3       1 RES1   0.0000
    18 C18     30.2622  44.5434   0.4298   C.3       1 RES1   0.0000
    19 C19     25.5292  50.5149   0.4744   C.2       1 RES1   0.0000
    20 C20     24.3079  50.9941  -0.1248   C.2       1 RES1   0.0000
    21 C21     23.4481  50.0793  -0.7694   C.2       1 RES1   0.0000
    22 C22     23.7982  48.7111  -0.8165   C.2       1 RES1   0.0000
@<TRIPOS>BOND
     1     1     2    2
     2     2     3   am
     3     3     4    1
     4     4     5    1
     5     5     6    1
     6     6     7    2
     7     7     8    1
     8     8     9    1
     9     9    10    1
    10    10    11    1
    11    11    12    1
    12    12    13    1
    13    13    14    1
    14    14    15    1
    15    15    16    1
    16    16    17    1
    17    17    18    1
    18     7    19    1
    19    19    20    2
    20    20    21    1
    21    21    22    2
    22    22     2    1
    23    22     6    1
    24    18    13    1
@<TRIPOS>SUBSTRUCTURE
     1 RES1        1 GROUP             0 ****  ****    0  
@<TRIPOS>MOLECULE
ligand_34
    22    24     1     0     0
SMALL
USER_CHARGES
****
Generated from the CSD

@<TRIPOS>ATOM
     1 O1      21.6929  47.9867  -1.6618   O.2       1 RES1   0.0000
     2 C2      22.8837  47.7396  -1.5071   C.2       1 RES1   0.0000
     3 N3      23.4028  46.5457  -1.7926   N.am      1 RES1   0.0000
     4 C4      24.7852  46.1555  -1.5732   C.3       1 RES1   0.0000
     5 C5      25.2666  46.7392  -0.2629   C.3       1 RES1   0.0000
     6 C6      24.9897  48.2199  -0.2430   C.2       1 RES1   0.0000
     7 C7      25.8837  49.1405   0.4350   C.2       1 RES1   0.0000
     8 O8      26.9094  48.6250   1.2120   O.3       1 RES1   0.0000
     9 C9      27.8897  49.3542   1.9554   C.3       1 RES1   0.0000
    10 C10     28.1761  48.3570   3.1421   C.3       1 RES1   0.0000
    11 C11     29.2107  48.8458   4.1515   C.3       1 RES1   0.0000
    12 C12     29.4370  47.7853   5.3074   C.3       1 RES1   0.0000
    13 N13     30.4735  48.2412   6.3458   N.3       1 RES1   1.0000
    14 C14     31.8397  48.3320   5.7461   C.3       1 RES1   0.0000
    15 C15     32.8306  48.8541   6.7537   C.3       1 RES1   0.0000
    16 C16     32.8518  48.0067   8.0105   C.3       1 RES1   0.0000
    17 C17     31.4530  47.8641   8.5741   C.3       1 RES1   0.0000
    18 C18     30.4905  47.3405   7.5406   C.3       1 RES1   0.0000
    19 C19     25.5266  50.5129   0.4830   C.2       1 RES1   0.0000
    20 C20     24.3093  50.9932  -0.1232   C.2       1 RES1   0.0000
    21 C21     23.4544  50.0812  -0.7780   C.2       1 RES1   0.0000
    22 C22     23.8055  48.7132  -0.8282   C.2       1 RES1   0.0000
@<TRIPOS>BOND
     1     1     2    2
     2     2     3   am
     3     3     4    1
     4     4     5    1
     5     5     6    1
     6     6     7    2
     7     7     8    1
     8     8     9    1
     9     9    10    1
    10    10    11    1
    11    11    12    1
    12    12    13    1
    13    13    14    1
    14    14    15    1
    15    15    16    1
    16    16    17    1
    17    17    18    1
    18     7    19    1
    19    19    20    2
    20    20    21    1
    21    21    22    2
    22    22     2    1
    23    22     6    1
    24    18    13    1
@<TRIPOS>SUBSTRUCTURE
     1 RES1        1 GROUP             0 ****  ****    0  
@<TRIPOS>MOLECULE
ligand_35
    22    24     1     0     0
SMALL
USER_CHARGES
****
Generated from the CSD

@<TRIPOS>ATOM
     1 O1      22.0963  48.0898  -2.3660   O.2       1 RES1   0.0000
     2 C2      22.8864  47.7327  -1.5024   C.2       1 RES1   0.0000
     3 N3      23.0388  46.4551  -1.1509   N.am      1 RES1   0.0000
     4 C4      23.9741  45.9672  -0.1504   C.3       1 RES1   0.0000
     5 C5      25.2700  46.7401  -0.2623   C.3       1 RES1   0.0000
     6 C6      24.9863  48.2190  -0.2376   C.2       1 RES1   0.0000
     7 C7      25.8861  49.1427   0.4298   C.2       1 RES1   0.0000
     8 O8      26.9043  48.6162   1.2102   O.3       1 RES1   0.0000
     9 C9      27.8951  49.3349   1.9499   C.3       1 RES1   0.0000
    10 C10     28.7153  48.1510   2.5906   C.3       1 RES1   0.0000
    11 C11     27.9286  47.2862   3.5711   C.3       1 RES1   0.0000
    12 C12     27.5402  48.0980   4.8757   C.3       1 RES1   0.0000
    13 N13     26.7457  47.2606   5.8895   N.3       1 RES1   1.0000
    14 C14     25.4013  46.8889   5.3523   C.3       1 RES1   0.0000
    15 C15     24.6649  46.0039   6.3241   C.3       1 RES1   0.0000
    16 C16     24.5367  46.6532   7.6879   C.3       1 RES1   0.0000
    17 C17     25.8964  47.0875   8.1951   C.3       1 RES1   0.0000
    18 C18     26.6028  47.9697   7.1994   C.3       1 RES1   0.0000
    19 C19     25.5300  50.5151   0.4734   C.2       1 RES1   0.0000
    20 C20     24.3088  50.9944  -0.1260   C.2       1 RES1   0.0000
    21 C21     23.4485  50.0797  -0.7700   C.2       1 RES1   0.0000
    22 C22     23.7981  48.7113  -0.8163   C.2       1 RES1   0.0000
@<TRIPOS>BOND
     1     1     2    2
     2     2     3   am
     3     3     4    1
     4     4     5    1
     5     5     6    1
     6     6     7    2
     7     7     8    1
     8     8     9    1
     9     9    10    1
    10    10    11    1
    11    11    12    1
    12    12    13    1
    13    13    14    1
    14    14    15    1
    15    15    16    1
    16    16    17    1
    17    17    18    1
    18     7    19    1
    19    19    20    2
    20    20    21    1
    21    21    22    2
    22    22     2    1
    23    22     6    1
    24    18    13    1
@<TRIPOS>SUBSTRUCTURE
     1 RES1        1 GROUP             0 ****  ****    0  
@<TRIPOS>MOLECULE
ligand_36
    22    24     1     0     0
SMALL
USER_CHARGES
****
Generated from the CSD

@<TRIPOS>ATOM
     1 O1      22.0963  48.0898  -2.3660   O.2       1 RES1   0.0000
     2 C2      22.8864  47.7327  -1.5024   C.2       1 RES1   0.0000
     3 N3      23.0388  46.4551  -1.1509   N.am      1 RES1   0.0000
     4 C4      23.9741  45.9672  -0.1504   C.3       1 RES1   0.0000
     5 C5      25.2700  46.7401  -0.2623   C.3       1 RES1   0.0000
     6 C6      24.9863  48.2190  -0.2376   C.2       1 RES1   0.0000
     7 C7      25.8861  49.1427   0.4298   C.2       1 RES1   0.0000
     8 O8      26.9043  48.6162   1.2102   O.3       1 RES1   0.0000
     9 C9      27.8951  49.3349   1.9499   C.3       1 RES1   0.0000
    10 C10     28.7153  48.1510   2.5906   C.3       1 RES1   0.0000
    11 C11     29.4334  47.2545   1.5862   C.3       1 RES1   0.0000
    12 C12     30.5969  48.0337   0.8439   C.3       1 RES1   0.0000
    13 N13     31.3454  47.1637  -0.1775   N.3       1 RES1   1.0000
    14 C14     32.0994  46.0626   0.4957   C.3       1 RES1   0.0000
    15 C15     32.7644  45.1723  -0.5216   C.3       1 RES1   0.0000
    16 C16     33.6738  45.9581  -1.4455   C.3       1 RES1   0.0000
    17 C17     32.9190  47.1125  -2.0717   C.3       1 RES1   0.0000
    18 C18     32.2681  47.9803  -1.0267   C.3       1 RES1   0.0000
    19 C19     25.5300  50.5151   0.4734   C.2       1 RES1   0.0000
    20 C20     24.3088  50.9944  -0.1260   C.2       1 RES1   0.0000
    21 C21     23.4485  50.0797  -0.7700   C.2       1 RES1   0.0000
    22 C22     23.7981  48.7113  -0.8163   C.2       1 RES1   0.0000
@<TRIPOS>BOND
     1     1     2    2
     2     2     3   am
     3     3     4    1
     4     4     5    1
     5     5     6    1
     6     6     7    2
     7     7     8    1
     8     8     9    1
     9     9    10    1
    10    10    11    1
    11    11    12    1
    12    12    13    1
    13    13    14    1
    14    14    15    1
    15    15    16    1
    16    16    17    1
    17    17    18    1
    18     7    19    1
    19    19    20    2
    20    20    21    1
    21    21    22    2
    22    22     2    1
    23    22     6    1
    24    18    13    1
@<TRIPOS>SUBSTRUCTURE
     1 RES1        1 GROUP             0 ****  ****    0  
@<TRIPOS>MOLECULE
ligand_37
    22    24     1     0     0
SMALL
USER_CHARGES
****
Generated from the CSD

@<TRIPOS>ATOM
     1 O1      22.0961  48.0899  -2.3658   O.2       1 RES1   0.0000
     2 C2      22.8862  47.7327  -1.5021   C.2       1 RES1   0.0000
     3 N3      23.0384  46.4553  -1.1503   N.am      1 RES1   0.0000
     4 C4      23.9736  45.9674  -0.1498   C.3       1 RES1   0.0000
     5 C5      25.2697  46.7400  -0.2619   C.3       1 RES1   0.0000
     6 C6      24.9862  48.2190  -0.2375   C.2       1 RES1   0.0000
     7 C7      25.8861  49.1427   0.4297   C.2       1 RES1   0.0000
     8 O8      26.9043  48.6162   1.2102   O.3       1 RES1   0.0000
     9 C9      27.8951  49.3349   1.9499   C.3       1 RES1   0.0000
    10 C10     28.7153  48.1510   2.5906   C.3       1 RES1   0.0000
    11 C11     27.9867  47.3951   3.6978   C.3       1 RES1   0.0000
    12 C12     26.8003  46.5197   3.1165   C.3       1 RES1   0.0000
    13 N13     26.0956  45.6755   4.1894   N.3       1 RES1   1.0000
    14 C14     27.0061  44.6252   4.7390   C.3       1 RES1   0.0000
    15 C15     26.3282  43.8565   5.8431   C.3       1 RES1   0.0000
    16 C16     25.0212  43.2441   5.3798   C.3       1 RES1   0.0000
    17 C17     24.1317  44.3039   4.7630   C.3       1 RES1   0.0000
    18 C18     24.8411  45.0512   3.6643   C.3       1 RES1   0.0000
    19 C19     25.5303  50.5152   0.4731   C.2       1 RES1   0.0000
    20 C20     24.3092  50.9946  -0.1264   C.2       1 RES1   0.0000
    21 C21     23.4487  50.0799  -0.7702   C.2       1 RES1   0.0000
    22 C22     23.7981  48.7113  -0.8163   C.2       1 RES1   0.0000
@<TRIPOS>BOND
     1     1     2    2
     2     2     3   am
     3     3     4    1
     4     4     5    1
     5     5     6    1
     6     6     7    2
     7     7     8    1
     8     8     9    1
     9     9    10    1
    10    10    11    1
    11    11    12    1
    12    12    13    1
    13    13    14    1
    14    14    15    1
    15    15    16    1
    16    16    17    1
    17    17    18    1
    18     7    19    1
    19    19    20    2
    20    20    21    1
    21    21    22    2
    22    22     2    1
    23    22     6    1
    24    18    13    1
@<TRIPOS>SUBSTRUCTURE
     1 RES1        1 GROUP             0 ****  ****    0  
@<TRIPOS>MOLECULE
ligand_38
    22    24     1     0     0
SMALL
USER_CHARGES
****
Generated from the CSD

@<TRIPOS>ATOM
     1 O1      22.0969  48.0898  -2.3667   O.2       1 RES1   0.0000
     2 C2      22.8870  47.7325  -1.5032   C.2       1 RES1   0.0000
     3 N3      23.0399  46.4548  -1.1525   N.am      1 RES1   0.0000
     4 C4      23.9754  45.9667  -0.1522   C.3       1 RES1   0.0000
     5 C5      25.2710  46.7402  -0.2635   C.3       1 RES1   0.0000
     6 C6      24.9866  48.2190  -0.2380   C.2       1 RES1   0.0000
     7 C7      25.8859  49.1427   0.4301   C.2       1 RES1   0.0000
     8 O8      26.9043  48.6162   1.2102   O.3       1 RES1   0.0000
     9 C9      27.8951  49.3349   1.9499   C.3       1 RES1   0.0000
    10 C10     28.7153  48.1510   2.5906   C.3       1 RES1   0.0000
    11 C11     29.5744  47.3630   1.6062   C.3       1 RES1   0.0000
    12 C12     28.6825  46.4816   0.6369   C.3       1 RES1   0.0000
    13 N13     29.5137  45.6054  -0.3126   N.3       1 RES1   1.0000
    14 C14     30.2856  46.4382  -1.2846   C.3       1 RES1   0.0000
    15 C15     31.1548  45.5708  -2.1574   C.3       1 RES1   0.0000
    16 C16     30.3449  44.5137  -2.8818   C.3       1 RES1   0.0000
    17 C17     29.5143  43.7184  -1.8958   C.3       1 RES1   0.0000
    18 C18     28.6589  44.6166  -1.0412   C.3       1 RES1   0.0000
    19 C19     25.5292  50.5149   0.4744   C.2       1 RES1   0.0000
    20 C20     24.3079  50.9941  -0.1248   C.2       1 RES1   0.0000
    21 C21     23.4481  50.0793  -0.7694   C.2       1 RES1   0.0000
    22 C22     23.7982  48.7111  -0.8165   C.2       1 RES1   0.0000
@<TRIPOS>BOND
     1     1     2    2
     2     2     3   am
     3     3     4    1
     4     4     5    1
     5     5     6    1
     6     6     7    2
     7     7     8    1
     8     8     9    1
     9     9    10    1
    10    10    11    1
    11    11    12    1
    12    12    13    1
    13    13    14    1
    14    14    15    1
    15    15    16    1
    16    16    17    1
    17    17    18    1
    18     7    19    1
    19    19    20    2
    20    20    21    1
    21    21    22    2
    22    22     2    1
    23    22     6    1
    24    18    13    1
@<TRIPOS>SUBSTRUCTURE
     1 RES1        1 GROUP             0 ****  ****    0  
@<TRIPOS>MOLECULE
ligand_39
    22    24     1     0     0
SMALL
USER_CHARGES
****
Generated from the CSD

@<TRIPOS>ATOM
     1 O1      22.0963  48.0898  -2.3660   O.2       1 RES1   0.0000
     2 C2      22.8864  47.7327  -1.5024   C.2       1 RES1   0.0000
     3 N3      23.0388  46.4551  -1.1509   N.am      1 RES1   0.0000
     4 C4      23.9741  45.9672  -0.1504   C.3       1 RES1   0.0000
     5 C5      25.2700  46.7401  -0.2623   C.3       1 RES1   0.0000
     6 C6      24.9863  48.2190  -0.2376   C.2       1 RES1   0.0000
     7 C7      25.8861  49.1427   0.4298   C.2       1 RES1   0.0000
     8 O8      26.9043  48.6162   1.2102   O.3       1 RES1   0.0000
     9 C9      27.8951  49.3349   1.9499   C.3       1 RES1   0.0000
    10 C10     28.7153  48.1510   2.5906   C.3       1 RES1   0.0000
    11 C11     29.8841  48.5861   3.4698   C.3       1 RES1   0.0000
    12 C12     30.6515  47.3369   4.0716   C.3       1 RES1   0.0000
    13 N13     31.8373  47.7338   4.9642   N.3       1 RES1   1.0000
    14 C14     32.7900  46.6272   5.2926   C.3       1 RES1   0.0000
    15 C15     32.1539  45.6152   6.2119   C.3       1 RES1   0.0000
    16 C16     31.6542  46.2840   7.4897   C.3       1 RES1   0.0000
    17 C17     30.7365  47.4407   7.1741   C.3       1 RES1   0.0000
    18 C18     31.3887  48.4212   6.2224   C.3       1 RES1   0.0000
    19 C19     25.5300  50.5151   0.4734   C.2       1 RES1   0.0000
    20 C20     24.3088  50.9944  -0.1260   C.2       1 RES1   0.0000
    21 C21     23.4485  50.0797  -0.7700   C.2       1 RES1   0.0000
    22 C22     23.7981  48.7113  -0.8163   C.2       1 RES1   0.0000
@<TRIPOS>BOND
     1     1     2    2
     2     2     3   am
     3     3     4    1
     4     4     5    1
     5     5     6    1
     6     6     7    2
     7     7     8    1
     8     8     9    1
     9     9    10    1
    10    10    11    1
    11    11    12    1
    12    12    13    1
    13    13    14    1
    14    14    15    1
    15    15    16    1
    16    16    17    1
    17    17    18    1
    18     7    19    1
    19    19    20    2
    20    20    21    1
    21    21    22    2
    22    22     2    1
    23    22     6    1
    24    18    13    1
@<TRIPOS>SUBSTRUCTURE
     1 RES1        1 GROUP             0 ****  ****    0  
@<TRIPOS>MOLECULE
ligand_40
    22    24     1     0     0
SMALL
USER_CHARGES
****
Generated from the CSD

@<TRIPOS>ATOM
     1 O1      22.0963  48.0898  -2.3660   O.2       1 RES1   0.0000
     2 C2      22.8864  47.7327  -1.5024   C.2       1 RES1   0.0000
     3 N3      23.0388  46.4551  -1.1509   N.am      1 RES1   0.0000
     4 C4      23.9741  45.9672  -0.1504   C.3       1 RES1   0.0000
     5 C5      25.2700  46.7401  -0.2623   C.3       1 RES1   0.0000
     6 C6      24.9863  48.2190  -0.2376   C.2       1 RES1   0.0000
     7 C7      25.8861  49.1427   0.4298   C.2       1 RES1   0.0000
     8 O8      26.9043  48.6162   1.2102   O.3       1 RES1   0.0000
     9 C9      27.8951  49.3349   1.9499   C.3       1 RES1   0.0000
    10 C10     28.7153  48.1510   2.5906   C.3       1 RES1   0.0000
    11 C11     29.8841  48.5861   3.4698   C.3       1 RES1   0.0000
    12 C12     30.6515  47.3369   4.0716   C.3       1 RES1   0.0000
    13 N13     31.8373  47.7338   4.9642   N.3       1 RES1   1.0000
    14 C14     32.9373  48.4778   4.2739   C.3       1 RES1   0.0000
    15 C15     33.6784  47.5849   3.3109   C.3       1 RES1   0.0000
    16 C16     34.2345  46.3582   4.0291   C.3       1 RES1   0.0000
    17 C17     33.1462  45.6283   4.7791   C.3       1 RES1   0.0000
    18 C18     32.3975  46.5571   5.7113   C.3       1 RES1   0.0000
    19 C19     25.5300  50.5151   0.4734   C.2       1 RES1   0.0000
    20 C20     24.3088  50.9944  -0.1260   C.2       1 RES1   0.0000
    21 C21     23.4485  50.0797  -0.7700   C.2       1 RES1   0.0000
    22 C22     23.7981  48.7113  -0.8163   C.2       1 RES1   0.0000
@<TRIPOS>BOND
     1     1     2    2
     2     2     3   am
     3     3     4    1
     4     4     5    1
     5     5     6    1
     6     6     7    2
     7     7     8    1
     8     8     9    1
     9     9    10    1
    10    10    11    1
    11    11    12    1
    12    12    13    1
    13    13    14    1
    14    14    15    1
    15    15    16    1
    16    16    17    1
    17    17    18    1
    18     7    19    1
    19    19    20    2
    20    20    21    1
    21    21    22    2
    22    22     2    1
    23    22     6    1
    24    18    13    1
@<TRIPOS>SUBSTRUCTURE
     1 RES1        1 GROUP             0 ****  ****    0  
@<TRIPOS>MOLECULE
ligand_41
    22    24     1     0     0
SMALL
USER_CHARGES
****
Generated from the CSD

@<TRIPOS>ATOM
     1 O1      21.6929  47.9867  -1.6618   O.2       1 RES1   0.0000
     2 C2      22.8837  47.7396  -1.5071   C.2       1 RES1   0.0000
     3 N3      23.4028  46.5457  -1.7926   N.am      1 RES1   0.0000
     4 C4      24.7852  46.1555  -1.5732   C.3       1 RES1   0.0000
     5 C5      25.2666  46.7392  -0.2629   C.3       1 RES1   0.0000
     6 C6      24.9897  48.2199  -0.2430   C.2       1 RES1   0.0000
     7 C7      25.8837  49.1405   0.4350   C.2       1 RES1   0.0000
     8 O8      26.9094  48.6250   1.2120   O.3       1 RES1   0.0000
     9 C9      28.1873  49.2134   1.4692   C.3       1 RES1   0.0000
    10 C10     28.8414  48.1252   2.4034   C.3       1 RES1   0.0000
    11 C11     28.1357  47.9246   3.7413   C.3       1 RES1   0.0000
    12 C12     28.8569  46.8163   4.6151   C.3       1 RES1   0.0000
    13 N13     28.1753  46.5844   5.9723   N.3       1 RES1   1.0000
    14 C14     29.0186  45.7324   6.8652   C.3       1 RES1   0.0000
    15 C15     28.3746  45.5778   8.2184   C.3       1 RES1   0.0000
    16 C16     26.9706  45.0162   8.1106   C.3       1 RES1   0.0000
    17 C17     26.1427  45.8467   7.1517   C.3       1 RES1   0.0000
    18 C18     26.8160  45.9798   5.8110   C.3       1 RES1   0.0000
    19 C19     25.5266  50.5129   0.4830   C.2       1 RES1   0.0000
    20 C20     24.3093  50.9932  -0.1232   C.2       1 RES1   0.0000
    21 C21     23.4544  50.0812  -0.7780   C.2       1 RES1   0.0000
    22 C22     23.8055  48.7132  -0.8282   C.2       1 RES1   0.0000
@<TRIPOS>BOND
     1     1     2    2
     2     2     3   am
     3     3     4    1
     4     4     5    1
     5     5     6    1
     6     6     7    2
     7     7     8    1
     8     8     9    1
     9     9    10    1
    10    10    11    1
    11    11    12    1
    12    12    13    1
    13    13    14    1
    14    14    15    1
    15    15    16    1
    16    16    17    1
    17    17    18    1
    18     7    19    1
    19    19    20    2
    20    20    21    1
    21    21    22    2
    22    22     2    1
    23    22     6    1
    24    18    13    1
@<TRIPOS>SUBSTRUCTURE
     1 RES1        1 GROUP             0 ****  ****    0  
@<TRIPOS>MOLECULE
ligand_42
    22    24     1     0     0
SMALL
USER_CHARGES
****
Generated from the CSD

@<TRIPOS>ATOM
     1 O1      21.6929  47.9867  -1.6618   O.2       1 RES1   0.0000
     2 C2      22.8837  47.7396  -1.5071   C.2       1 RES1   0.0000
     3 N3      23.4028  46.5457  -1.7926   N.am      1 RES1   0.0000
     4 C4      24.7852  46.1555  -1.5732   C.3       1 RES1   0.0000
     5 C5      25.2666  46.7392  -0.2629   C.3       1 RES1   0.0000
     6 C6      24.9897  48.2199  -0.2430   C.2       1 RES1   0.0000
     7 C7      25.8837  49.1405   0.4350   C.2       1 RES1   0.0000
     8 O8      26.9094  48.6250   1.2120   O.3       1 RES1   0.0000
     9 C9      28.1873  49.2134   1.4692   C.3       1 RES1   0.0000
    10 C10     28.8414  48.1252   2.4034   C.3       1 RES1   0.0000
    11 C11     29.0699  46.7694   1.7418   C.3       1 RES1   0.0000
    12 C12     29.7288  45.7381   2.7489   C.3       1 RES1   0.0000
    13 N13     29.9754  44.3585   2.1195   N.3       1 RES1   1.0000
    14 C14     30.3520  43.3484   3.1549   C.3       1 RES1   0.0000
    15 C15     30.5146  41.9849   2.5351   C.3       1 RES1   0.0000
    16 C16     31.5265  41.9987   1.4064   C.3       1 RES1   0.0000
    17 C17     31.1743  43.0707   0.3958   C.3       1 RES1   0.0000
    18 C18     31.0200  44.4188   1.0497   C.3       1 RES1   0.0000
    19 C19     25.5266  50.5129   0.4830   C.2       1 RES1   0.0000
    20 C20     24.3093  50.9932  -0.1232   C.2       1 RES1   0.0000
    21 C21     23.4544  50.0812  -0.7780   C.2       1 RES1   0.0000
    22 C22     23.8055  48.7132  -0.8282   C.2       1 RES1   0.0000
@<TRIPOS>BOND
     1     1     2    2
     2     2     3   am
     3     3     4    1
     4     4     5    1
     5     5     6    1
     6     6     7    2
     7     7     8    1
     8     8     9    1
     9     9    10    1
    10    10    11    1
    11    11    12    1
    12    12    13    1
    13    13    14    1
    14    14    15    1
    15    15    16    1
    16    16    17    1
    17    17    18    1
    18     7    19    1
    19    19    20    2
    20    20    21    1
    21    21    22    2
    22    22     2    1
    23    22     6    1
    24    18    13    1
@<TRIPOS>SUBSTRUCTURE
     1 RES1        1 GROUP             0 ****  ****    0  
@<TRIPOS>MOLECULE
ligand_43
    22    24     1     0     0
SMALL
USER_CHARGES
****
Generated from the CSD

@<TRIPOS>ATOM
     1 O1      22.0963  48.0898  -2.3660   O.2       1 RES1   0.0000
     2 C2      22.8864  47.7327  -1.5024   C.2       1 RES1   0.0000
     3 N3      23.0388  46.4551  -1.1509   N.am      1 RES1   0.0000
     4 C4      23.9741  45.9672  -0.1504   C.3       1 RES1   0.0000
     5 C5      25.2700  46.7401  -0.2623   C.3       1 RES1   0.0000
     6 C6      24.9863  48.2190  -0.2376   C.2       1 RES1   0.0000
     7 C7      25.8861  49.1427   0.4298   C.2       1 RES1   0.0000
     8 O8      26.9043  48.6162   1.2102   O.3       1 RES1   0.0000
     9 C9      27.8951  49.3349   1.9499   C.3       1 RES1   0.0000
    10 C10     28.9337  49.6777   0.8148   C.3       1 RES1   0.0000
    11 C11     29.6066  48.4656   0.1775   C.3       1 RES1   0.0000
    12 C12     30.6323  48.8998  -0.9500   C.3       1 RES1   0.0000
    13 N13     31.3319  47.7058  -1.6172   N.3       1 RES1   1.0000
    14 C14     32.4657  48.1541  -2.4819   C.3       1 RES1   0.0000
    15 C15     33.1903  46.9701  -3.0673   C.3       1 RES1   0.0000
    16 C16     32.2521  46.0642  -3.8402   C.3       1 RES1   0.0000
    17 C17     31.0712  45.6690  -2.9776   C.3       1 RES1   0.0000
    18 C18     30.3716  46.8761  -2.4101   C.3       1 RES1   0.0000
    19 C19     25.5300  50.5151   0.4734   C.2       1 RES1   0.0000
    20 C20     24.3088  50.9944  -0.1260   C.2       1 RES1   0.0000
    21 C21     23.4485  50.0797  -0.7700   C.2       1 RES1   0.0000
    22 C22     23.7981  48.7113  -0.8163   C.2       1 RES1   0.0000
@<TRIPOS>BOND
     1     1     2    2
     2     2     3   am
     3     3     4    1
     4     4     5    1
     5     5     6    1
     6     6     7    2
     7     7     8    1
     8     8     9    1
     9     9    10    1
    10    10    11    1
    11    11    12    1
    12    12    13    1
    13    13    14    1
    14    14    15    1
    15    15    16    1
    16    16    17    1
    17    17    18    1
    18     7    19    1
    19    19    20    2
    20    20    21    1
    21    21    22    2
    22    22     2    1
    23    22     6    1
    24    18    13    1
@<TRIPOS>SUBSTRUCTURE
     1 RES1        1 GROUP             0 ****  ****    0  
@<TRIPOS>MOLECULE
ligand_44
    22    24     1     0     0
SMALL
USER_CHARGES
****
Generated from the CSD

@<TRIPOS>ATOM
     1 O1      22.1002  48.0900  -2.3713   O.2       1 RES1   0.0000
     2 C2      22.8876  47.7341  -1.5047   C.2       1 RES1   0.0000
     3 N3      23.0351  46.4577  -1.1472   N.am      1 RES1   0.0000
     4 C4      23.9671  45.9711  -0.1430   C.3       1 RES1   0.0000
     5 C5      25.2659  46.7390  -0.2564   C.3       1 RES1   0.0000
     6 C6      24.9872  48.2190  -0.2388   C.2       1 RES1   0.0000
     7 C7      25.8891  49.1426   0.4258   C.2       1 RES1   0.0000
     8 O8      26.9043  48.6162   1.2102   O.3       1 RES1   0.0000
     9 C9      27.8951  49.3349   1.9499   C.3       1 RES1   0.0000
    10 C10     27.0882  49.7166   3.2491   C.3       1 RES1   0.0000
    11 C11     26.6373  48.5281   4.0932   C.3       1 RES1   0.0000
    12 C12     25.8357  49.0008   5.3760   C.3       1 RES1   0.0000
    13 N13     25.3636  47.8314   6.2535   N.3       1 RES1   1.0000
    14 C14     24.4021  48.2918   7.3013   C.3       1 RES1   0.0000
    15 C15     23.8885  47.1246   8.1034   C.3       1 RES1   0.0000
    16 C16     25.0198  46.3303   8.7257   C.3       1 RES1   0.0000
    17 C17     26.0243  45.9252   7.6667   C.3       1 RES1   0.0000
    18 C18     26.5158  47.1156   6.8855   C.3       1 RES1   0.0000
    19 C19     25.5377  50.5164   0.4626   C.2       1 RES1   0.0000
    20 C20     24.3192  50.9972  -0.1409   C.2       1 RES1   0.0000
    21 C21     23.4567  50.0825  -0.7822   C.2       1 RES1   0.0000
    22 C22     23.8017  48.7127  -0.8217   C.2       1 RES1   0.0000
@<TRIPOS>BOND
     1     1     2    2
     2     2     3   am
     3     3     4    1
     4     4     5    1
     5     5     6    1
     6     6     7    2
     7     7     8    1
     8     8     9    1
     9     9    10    1
    10    10    11    1
    11    11    12    1
    12    12    13    1
    13    13    14    1
    14    14    15    1
    15    15    16    1
    16    16    17    1
    17    17    18    1
    18     7    19    1
    19    19    20    2
    20    20    21    1
    21    21    22    2
    22    22     2    1
    23    22     6    1
    24    18    13    1
@<TRIPOS>SUBSTRUCTURE
     1 RES1        1 GROUP             0 ****  ****    0  
@<TRIPOS>MOLECULE
ligand_45
    22    24     1     0     0
SMALL
USER_CHARGES
****
Generated from the CSD

@<TRIPOS>ATOM
     1 O1      21.9667  48.0800  -2.1833   O.2       1 RES1   0.0000
     2 C2      22.8143  47.7066  -1.3835   C.2       1 RES1   0.0000
     3 N3      23.0497  46.4177  -1.1341   N.am      1 RES1   0.0000
     4 C4      24.0555  45.9123  -0.2139   C.3       1 RES1   0.0000
     5 C5      25.3025  46.7620  -0.3245   C.3       1 RES1   0.0000
     6 C6      24.9434  48.2174  -0.1784   C.2       1 RES1   0.0000
     7 C7      25.8242  49.1397   0.5157   C.2       1 RES1   0.0000
     8 O8      26.9043  48.6162   1.2102   O.3       1 RES1   0.0000
     9 C9      27.8951  49.3349   1.9499   C.3       1 RES1   0.0000
    10 C10     28.9337  49.6777   0.8148   C.3       1 RES1   0.0000
    11 C11     28.4275  50.6579  -0.2393   C.3       1 RES1   0.0000
    12 C12     29.5517  50.9929  -1.3050   C.3       1 RES1   0.0000
    13 N13     29.0803  51.9783  -2.3852   N.3       1 RES1   1.0000
    14 C14     30.0668  52.0703  -3.5045   C.3       1 RES1   0.0000
    15 C15     29.5561  52.9795  -4.5918   C.3       1 RES1   0.0000
    16 C16     29.2201  54.3582  -4.0585   C.3       1 RES1   0.0000
    17 C17     28.2725  54.2517  -2.8815   C.3       1 RES1   0.0000
    18 C18     28.8146  53.3362  -1.8153   C.3       1 RES1   0.0000
    19 C19     25.3993  50.4835   0.6758   C.2       1 RES1   0.0000
    20 C20     24.1278  50.9358   0.1670   C.2       1 RES1   0.0000
    21 C21     23.2870  50.0230  -0.5049   C.2       1 RES1   0.0000
    22 C22     23.7051  48.6828  -0.6672   C.2       1 RES1   0.0000
@<TRIPOS>BOND
     1     1     2    2
     2     2     3   am
     3     3     4    1
     4     4     5    1
     5     5     6    1
     6     6     7    2
     7     7     8    1
     8     8     9    1
     9     9    10    1
    10    10    11    1
    11    11    12    1
    12    12    13    1
    13    13    14    1
    14    14    15    1
    15    15    16    1
    16    16    17    1
    17    17    18    1
    18     7    19    1
    19    19    20    2
    20    20    21    1
    21    21    22    2
    22    22     2    1
    23    22     6    1
    24    18    13    1
@<TRIPOS>SUBSTRUCTURE
     1 RES1        1 GROUP             0 ****  ****    0  
@<TRIPOS>MOLECULE
ligand_46
    22    24     1     0     0
SMALL
USER_CHARGES
****
Generated from the CSD

@<TRIPOS>ATOM
     1 O1      21.6929  47.9867  -1.6618   O.2       1 RES1   0.0000
     2 C2      22.8837  47.7396  -1.5071   C.2       1 RES1   0.0000
     3 N3      23.4028  46.5457  -1.7926   N.am      1 RES1   0.0000
     4 C4      24.7852  46.1555  -1.5732   C.3       1 RES1   0.0000
     5 C5      25.2666  46.7392  -0.2629   C.3       1 RES1   0.0000
     6 C6      24.9897  48.2199  -0.2430   C.2       1 RES1   0.0000
     7 C7      25.8837  49.1405   0.4350   C.2       1 RES1   0.0000
     8 O8      26.9094  48.6250   1.2120   O.3       1 RES1   0.0000
     9 C9      28.1873  49.2134   1.4692   C.3       1 RES1   0.0000
    10 C10     28.8414  48.1252   2.4034   C.3       1 RES1   0.0000
    11 C11     28.1357  47.9246   3.7413   C.3       1 RES1   0.0000
    12 C12     28.8569  46.8163   4.6151   C.3       1 RES1   0.0000
    13 N13     28.1753  46.5844   5.9723   N.3       1 RES1   1.0000
    14 C14     28.2924  47.7874   6.8517   C.3       1 RES1   0.0000
    15 C15     27.5538  47.5746   8.1474   C.3       1 RES1   0.0000
    16 C16     28.0361  46.3327   8.8706   C.3       1 RES1   0.0000
    17 C17     27.9774  45.1306   7.9507   C.3       1 RES1   0.0000
    18 C18     28.7254  45.3786   6.6671   C.3       1 RES1   0.0000
    19 C19     25.5266  50.5129   0.4830   C.2       1 RES1   0.0000
    20 C20     24.3093  50.9932  -0.1232   C.2       1 RES1   0.0000
    21 C21     23.4544  50.0812  -0.7780   C.2       1 RES1   0.0000
    22 C22     23.8055  48.7132  -0.8282   C.2       1 RES1   0.0000
@<TRIPOS>BOND
     1     1     2    2
     2     2     3   am
     3     3     4    1
     4     4     5    1
     5     5     6    1
     6     6     7    2
     7     7     8    1
     8     8     9    1
     9     9    10    1
    10    10    11    1
    11    11    12    1
    12    12    13    1
    13    13    14    1
    14    14    15    1
    15    15    16    1
    16    16    17    1
    17    17    18    1
    18     7    19    1
    19    19    20    2
    20    20    21    1
    21    21    22    2
    22    22     2    1
    23    22     6    1
    24    18    13    1
@<TRIPOS>SUBSTRUCTURE
     1 RES1        1 GROUP             0 ****  ****    0  
@<TRIPOS>MOLECULE
ligand_47
    22    24     1     0     0
SMALL
USER_CHARGES
****
Generated from the CSD

@<TRIPOS>ATOM
     1 O1      21.6929  47.9867  -1.6618   O.2       1 RES1   0.0000
     2 C2      22.8837  47.7396  -1.5071   C.2       1 RES1   0.0000
     3 N3      23.4028  46.5457  -1.7926   N.am      1 RES1   0.0000
     4 C4      24.7852  46.1555  -1.5732   C.3       1 RES1   0.0000
     5 C5      25.2666  46.7392  -0.2629   C.3       1 RES1   0.0000
     6 C6      24.9897  48.2199  -0.2430   C.2       1 RES1   0.0000
     7 C7      25.8837  49.1405   0.4350   C.2       1 RES1   0.0000
     8 O8      26.9094  48.6250   1.2120   O.3       1 RES1   0.0000
     9 C9      28.1873  49.2134   1.4692   C.3       1 RES1   0.0000
    10 C10     28.8414  48.1252   2.4034   C.3       1 RES1   0.0000
    11 C11     29.0699  46.7694   1.7418   C.3       1 RES1   0.0000
    12 C12     29.7288  45.7381   2.7489   C.3       1 RES1   0.0000
    13 N13     29.9754  44.3585   2.1195   N.3       1 RES1   1.0000
    14 C14     28.6883  43.6758   1.7854   C.3       1 RES1   0.0000
    15 C15     28.9454  42.3597   1.0989   C.3       1 RES1   0.0000
    16 C16     29.8313  41.4555   1.9330   C.3       1 RES1   0.0000
    17 C17     31.1038  42.1786   2.3236   C.3       1 RES1   0.0000
    18 C18     30.8090  43.4883   3.0066   C.3       1 RES1   0.0000
    19 C19     25.5266  50.5129   0.4830   C.2       1 RES1   0.0000
    20 C20     24.3093  50.9932  -0.1232   C.2       1 RES1   0.0000
    21 C21     23.4544  50.0812  -0.7780   C.2       1 RES1   0.0000
    22 C22     23.8055  48.7132  -0.8282   C.2       1 RES1   0.0000
@<TRIPOS>BOND
     1     1     2    2
     2     2     3   am
     3     3     4    1
     4     4     5    1
     5     5     6    1
     6     6     7    2
     7     7     8    1
     8     8     9    1
     9     9    10    1
    10    10    11    1
    11    11    12    1
    12    12    13    1
    13    13    14    1
    14    14    15    1
    15    15    16    1
    16    16    17    1
    17    17    18    1
    18     7    19    1
    19    19    20    2
    20    20    21    1
    21    21    22    2
    22    22     2    1
    23    22     6    1
    24    18    13    1
@<TRIPOS>SUBSTRUCTURE
     1 RES1        1 GROUP             0 ****  ****    0  
@<TRIPOS>MOLECULE
ligand_48
    22    24     1     0     0
SMALL
USER_CHARGES
****
Generated from the CSD

@<TRIPOS>ATOM
     1 O1      22.0963  48.0898  -2.3660   O.2       1 RES1   0.0000
     2 C2      22.8864  47.7327  -1.5024   C.2       1 RES1   0.0000
     3 N3      23.0388  46.4551  -1.1509   N.am      1 RES1   0.0000
     4 C4      23.9741  45.9672  -0.1504   C.3       1 RES1   0.0000
     5 C5      25.2700  46.7401  -0.2623   C.3       1 RES1   0.0000
     6 C6      24.9863  48.2190  -0.2376   C.2       1 RES1   0.0000
     7 C7      25.8861  49.1427   0.4298   C.2       1 RES1   0.0000
     8 O8      26.9043  48.6162   1.2102   O.3       1 RES1   0.0000
     9 C9      27.8951  49.3349   1.9499   C.3       1 RES1   0.0000
    10 C10     28.9337  49.6777   0.8148   C.3       1 RES1   0.0000
    11 C11     29.6066  48.4656   0.1775   C.3       1 RES1   0.0000
    12 C12     30.6323  48.8998  -0.9500   C.3       1 RES1   0.0000
    13 N13     31.3319  47.7058  -1.6172   N.3       1 RES1   1.0000
    14 C14     32.2246  46.9916  -0.6541   C.3       1 RES1   0.0000
    15 C15     32.8431  45.7788  -1.2993   C.3       1 RES1   0.0000
    16 C16     33.5977  46.1394  -2.5636   C.3       1 RES1   0.0000
    17 C17     32.7054  46.9214  -3.5054   C.3       1 RES1   0.0000
    18 C18     32.1052  48.1252  -2.8277   C.3       1 RES1   0.0000
    19 C19     25.5300  50.5151   0.4734   C.2       1 RES1   0.0000
    20 C20     24.3088  50.9944  -0.1260   C.2       1 RES1   0.0000
    21 C21     23.4485  50.0797  -0.7700   C.2       1 RES1   0.0000
    22 C22     23.7981  48.7113  -0.8163   C.2       1 RES1   0.0000
@<TRIPOS>BOND
     1     1     2    2
     2     2     3   am
     3     3     4    1
     4     4     5    1
     5     5     6    1
     6     6     7    2
     7     7     8    1
     8     8     9    1
     9     9    10    1
    10    10    11    1
    11    11    12    1
    12    12    13    1
    13    13    14    1
    14    14    15    1
    15    15    16    1
    16    16    17    1
    17    17    18    1
    18     7    19    1
    19    19    20    2
    20    20    21    1
    21    21    22    2
    22    22     2    1
    23    22     6    1
    24    18    13    1
@<TRIPOS>SUBSTRUCTURE
     1 RES1        1 GROUP             0 ****  ****    0  
@<TRIPOS>MOLECULE
ligand_49
    22    24     1     0     0
SMALL
USER_CHARGES
****
Generated from the CSD

@<TRIPOS>ATOM
     1 O1      22.1002  48.0900  -2.3713   O.2       1 RES1   0.0000
     2 C2      22.8876  47.7341  -1.5047   C.2       1 RES1   0.0000
     3 N3      23.0351  46.4577  -1.1472   N.am      1 RES1   0.0000
     4 C4      23.9671  45.9711  -0.1430   C.3       1 RES1   0.0000
     5 C5      25.2659  46.7390  -0.2564   C.3       1 RES1   0.0000
     6 C6      24.9872  48.2190  -0.2388   C.2       1 RES1   0.0000
     7 C7      25.8891  49.1426   0.4258   C.2       1 RES1   0.0000
     8 O8      26.9043  48.6162   1.2102   O.3       1 RES1   0.0000
     9 C9      27.8951  49.3349   1.9499   C.3       1 RES1   0.0000
    10 C10     27.0882  49.7166   3.2491   C.3       1 RES1   0.0000
    11 C11     26.6373  48.5281   4.0932   C.3       1 RES1   0.0000
    12 C12     25.8357  49.0008   5.3760   C.3       1 RES1   0.0000
    13 N13     25.3636  47.8314   6.2535   N.3       1 RES1   1.0000
    14 C14     24.3420  46.9998   5.5470   C.3       1 RES1   0.0000
    15 C15     23.9460  45.8139   6.3875   C.3       1 RES1   0.0000
    16 C16     23.4416  46.2374   7.7529   C.3       1 RES1   0.0000
    17 C17     24.4542  47.1348   8.4340   C.3       1 RES1   0.0000
    18 C18     24.8263  48.3083   7.5662   C.3       1 RES1   0.0000
    19 C19     25.5377  50.5164   0.4626   C.2       1 RES1   0.0000
    20 C20     24.3192  50.9972  -0.1409   C.2       1 RES1   0.0000
    21 C21     23.4567  50.0825  -0.7822   C.2       1 RES1   0.0000
    22 C22     23.8017  48.7127  -0.8217   C.2       1 RES1   0.0000
@<TRIPOS>BOND
     1     1     2    2
     2     2     3   am
     3     3     4    1
     4     4     5    1
     5     5     6    1
     6     6     7    2
     7     7     8    1
     8     8     9    1
     9     9    10    1
    10    10    11    1
    11    11    12    1
    12    12    13    1
    13    13    14    1
    14    14    15    1
    15    15    16    1
    16    16    17    1
    17    17    18    1
    18     7    19    1
    19    19    20    2
    20    20    21    1
    21    21    22    2
    22    22     2    1
    23    22     6    1
    24    18    13    1
@<TRIPOS>SUBSTRUCTURE
     1 RES1        1 GROUP             0 ****  ****    0  
@<TRIPOS>MOLECULE
ligand_50
    22    24     1     0     0
SMALL
USER_CHARGES
****
Generated from the CSD

@<TRIPOS>ATOM
     1 O1      21.9667  48.0800  -2.1833   O.2       1 RES1   0.0000
     2 C2      22.8143  47.7066  -1.3835   C.2       1 RES1   0.0000
     3 N3      23.0497  46.4177  -1.1341   N.am      1 RES1   0.0000
     4 C4      24.0555  45.9123  -0.2139   C.3       1 RES1   0.0000
     5 C5      25.3025  46.7620  -0.3245   C.3       1 RES1   0.0000
     6 C6      24.9434  48.2174  -0.1784   C.2       1 RES1   0.0000
     7 C7      25.8242  49.1397   0.5157   C.2       1 RES1   0.0000
     8 O8      26.9043  48.6162   1.2102   O.3       1 RES1   0.0000
     9 C9      27.8951  49.3349   1.9499   C.3       1 RES1   0.0000
    10 C10     28.9337  49.6777   0.8148   C.3       1 RES1   0.0000
    11 C11     28.4275  50.6579  -0.2393   C.3       1 RES1   0.0000
    12 C12     29.5517  50.9929  -1.3050   C.3       1 RES1   0.0000
    13 N13     29.0803  51.9783  -2.3852   N.3       1 RES1   1.0000
    14 C14     28.0177  51.3741  -3.2455   C.3       1 RES1   0.0000
    15 C15     27.5104  52.3764  -4.2493   C.3       1 RES1   0.0000
    16 C16     28.6337  52.9371  -5.0990   C.3       1 RES1   0.0000
    17 C17     29.7370  53.4867  -4.2184   C.3       1 RES1   0.0000
    18 C18     30.2192  52.4589  -3.2286   C.3       1 RES1   0.0000
    19 C19     25.3993  50.4835   0.6758   C.2       1 RES1   0.0000
    20 C20     24.1278  50.9358   0.1670   C.2       1 RES1   0.0000
    21 C21     23.2870  50.0230  -0.5049   C.2       1 RES1   0.0000
    22 C22     23.7051  48.6828  -0.6672   C.2       1 RES1   0.0000
@<TRIPOS>BOND
     1     1     2    2
     2     2     3   am
     3     3     4    1
     4     4     5    1
     5     5     6    1
     6     6     7    2
     7     7     8    1
     8     8     9    1
     9     9    10    1
    10    10    11    1
    11    11    12    1
    12    12    13    1
    13    13    14    1
    14    14    15    1
    15    15    16    1
    16    16    17    1
    17    17    18    1
    18     7    19    1
    19    19    20    2
    20    20    21    1
    21    21    22    2
    22    22     2    1
    23    22     6    1
    24    18    13    1
@<TRIPOS>SUBSTRUCTURE
     1 RES1        1 GROUP             0 ****  ****    0  
@<TRIPOS>MOLECULE
ligand_51
    22    24     1     0     0
SMALL
USER_CHARGES
****
Generated from the CSD

@<TRIPOS>ATOM
     1 O1      22.1620  48.0718  -2.4500   O.2       1 RES1   0.0000
     2 C2      22.9473  47.7109  -1.5836   C.2       1 RES1   0.0000
     3 N3      23.1238  46.4287  -1.2616   N.am      1 RES1   0.0000
     4 C4      24.0554  45.9370  -0.2595   C.3       1 RES1   0.0000
     5 C5      25.3348  46.7413  -0.3327   C.3       1 RES1   0.0000
     6 C6      25.0171  48.2124  -0.2757   C.2       1 RES1   0.0000
     7 C7      25.8857  49.1391   0.4278   C.2       1 RES1   0.0000
     8 O8      26.9043  48.6162   1.2102   O.3       1 RES1   0.0000
     9 C9      26.7797  47.9402   2.4643   C.3       1 RES1   0.0000
    10 C10     28.2883  47.6171   2.7876   C.3       1 RES1   0.0000
    11 C11     28.5152  46.8746   4.1011   C.3       1 RES1   0.0000
    12 C12     30.0550  46.5911   4.3467   C.3       1 RES1   0.0000
    13 N13     30.3256  45.8436   5.6614   N.3       1 RES1   1.0000
    14 C14     31.7850  45.8220   5.9838   C.3       1 RES1   0.0000
    15 C15     32.0277  45.1548   7.3125   C.3       1 RES1   0.0000
    16 C16     31.4492  43.7541   7.3509   C.3       1 RES1   0.0000
    17 C17     29.9865  43.7767   6.9576   C.3       1 RES1   0.0000
    18 C18     29.7816  44.4500   5.6259   C.3       1 RES1   0.0000
    19 C19     25.4978  50.5016   0.5000   C.2       1 RES1   0.0000
    20 C20     24.2748  50.9683  -0.1057   C.2       1 RES1   0.0000
    21 C21     23.4451  50.0509  -0.7850   C.2       1 RES1   0.0000
    22 C22     23.8265  48.6922  -0.8599   C.2       1 RES1   0.0000
@<TRIPOS>BOND
     1     1     2    2
     2     2     3   am
     3     3     4    1
     4     4     5    1
     5     5     6    1
     6     6     7    2
     7     7     8    1
     8     8     9    1
     9     9    10    1
    10    10    11    1
    11    11    12    1
    12    12    13    1
    13    13    14    1
    14    14    15    1
    15    15    16    1
    16    16    17    1
    17    17    18    1
    18     7    19    1
    19    19    20    2
    20    20    21    1
    21    21    22    2
    22    22     2    1
    23    22     6    1
    24    18    13    1
@<TRIPOS>SUBSTRUCTURE
     1 RES1        1 GROUP             0 ****  ****    0  
@<TRIPOS>MOLECULE
ligand_52
    22    24     1     0     0
SMALL
USER_CHARGES
****
Generated from the CSD

@<TRIPOS>ATOM
     1 O1      22.0963  48.0898  -2.3660   O.2       1 RES1   0.0000
     2 C2      22.8864  47.7327  -1.5024   C.2       1 RES1   0.0000
     3 N3      23.0388  46.4551  -1.1509   N.am      1 RES1   0.0000
     4 C4      23.9741  45.9672  -0.1504   C.3       1 RES1   0.0000
     5 C5      25.2700  46.7401  -0.2623   C.3       1 RES1   0.0000
     6 C6      24.9863  48.2190  -0.2376   C.2       1 RES1   0.0000
     7 C7      25.8861  49.1427   0.4298   C.2       1 RES1   0.0000
     8 O8      26.9043  48.6162   1.2102   O.3       1 RES1   0.0000
     9 C9      28.0676  47.9131   0.7656   C.3       1 RES1   0.0000
    10 C10     28.7813  47.6067   2.1372   C.3       1 RES1   0.0000
    11 C11     30.0958  46.8413   2.0163   C.3       1 RES1   0.0000
    12 C12     30.7438  46.5766   3.4382   C.3       1 RES1   0.0000
    13 N13     32.0711  45.8069   3.3591   N.3       1 RES1   1.0000
    14 C14     32.5178  45.3535   4.7116   C.3       1 RES1   0.0000
    15 C15     33.7782  44.5345   4.6100   C.3       1 RES1   0.0000
    16 C16     34.8854  45.2939   3.9062   C.3       1 RES1   0.0000
    17 C17     34.4028  45.8074   2.5653   C.3       1 RES1   0.0000
    18 C18     33.1428  46.6209   2.7049   C.3       1 RES1   0.0000
    19 C19     25.5300  50.5151   0.4734   C.2       1 RES1   0.0000
    20 C20     24.3088  50.9944  -0.1260   C.2       1 RES1   0.0000
    21 C21     23.4485  50.0797  -0.7700   C.2       1 RES1   0.0000
    22 C22     23.7981  48.7113  -0.8163   C.2       1 RES1   0.0000
@<TRIPOS>BOND
     1     1     2    2
     2     2     3   am
     3     3     4    1
     4     4     5    1
     5     5     6    1
     6     6     7    2
     7     7     8    1
     8     8     9    1
     9     9    10    1
    10    10    11    1
    11    11    12    1
    12    12    13    1
    13    13    14    1
    14    14    15    1
    15    15    16    1
    16    16    17    1
    17    17    18    1
    18     7    19    1
    19    19    20    2
    20    20    21    1
    21    21    22    2
    22    22     2    1
    23    22     6    1
    24    18    13    1
@<TRIPOS>SUBSTRUCTURE
     1 RES1        1 GROUP             0 ****  ****    0  
@<TRIPOS>MOLECULE
ligand_53
    22    24     1     0     0
SMALL
USER_CHARGES
****
Generated from the CSD

@<TRIPOS>ATOM
     1 O1      22.1620  48.0718  -2.4500   O.2       1 RES1   0.0000
     2 C2      22.9473  47.7109  -1.5836   C.2       1 RES1   0.0000
     3 N3      23.1238  46.4287  -1.2616   N.am      1 RES1   0.0000
     4 C4      24.0554  45.9370  -0.2595   C.3       1 RES1   0.0000
     5 C5      25.3348  46.7413  -0.3327   C.3       1 RES1   0.0000
     6 C6      25.0171  48.2124  -0.2757   C.2       1 RES1   0.0000
     7 C7      25.8857  49.1391   0.4278   C.2       1 RES1   0.0000
     8 O8      26.9043  48.6162   1.2102   O.3       1 RES1   0.0000
     9 C9      26.7797  47.9402   2.4643   C.3       1 RES1   0.0000
    10 C10     28.2883  47.6171   2.7876   C.3       1 RES1   0.0000
    11 C11     28.5152  46.8746   4.1011   C.3       1 RES1   0.0000
    12 C12     30.0550  46.5911   4.3467   C.3       1 RES1   0.0000
    13 N13     30.3256  45.8436   5.6614   N.3       1 RES1   1.0000
    14 C14     29.9797  46.6863   6.8466   C.3       1 RES1   0.0000
    15 C15     30.1761  45.9142   8.1252   C.3       1 RES1   0.0000
    16 C16     31.5880  45.3754   8.2440   C.3       1 RES1   0.0000
    17 C17     31.9541  44.5788   7.0087   C.3       1 RES1   0.0000
    18 C18     31.7458  45.3808   5.7509   C.3       1 RES1   0.0000
    19 C19     25.4978  50.5016   0.5000   C.2       1 RES1   0.0000
    20 C20     24.2748  50.9683  -0.1057   C.2       1 RES1   0.0000
    21 C21     23.4451  50.0509  -0.7850   C.2       1 RES1   0.0000
    22 C22     23.8265  48.6922  -0.8599   C.2       1 RES1   0.0000
@<TRIPOS>BOND
     1     1     2    2
     2     2     3   am
     3     3     4    1
     4     4     5    1
     5     5     6    1
     6     6     7    2
     7     7     8    1
     8     8     9    1
     9     9    10    1
    10    10    11    1
    11    11    12    1
    12    12    13    1
    13    13    14    1
    14    14    15    1
    15    15    16    1
    16    16    17    1
    17    17    18    1
    18     7    19    1
    19    19    20    2
    20    20    21    1
    21    21    22    2
    22    22     2    1
    23    22     6    1
    24    18    13    1
@<TRIPOS>SUBSTRUCTURE
     1 RES1        1 GROUP             0 ****  ****    0  
@<TRIPOS>MOLECULE
ligand_54
    22    24     1     0     0
SMALL
USER_CHARGES
****
Generated from the CSD

@<TRIPOS>ATOM
     1 O1      22.0963  48.0898  -2.3660   O.2       1 RES1   0.0000
     2 C2      22.8864  47.7327  -1.5024   C.2       1 RES1   0.0000
     3 N3      23.0388  46.4551  -1.1509   N.am      1 RES1   0.0000
     4 C4      23.9741  45.9672  -0.1504   C.3       1 RES1   0.0000
     5 C5      25.2700  46.7401  -0.2623   C.3       1 RES1   0.0000
     6 C6      24.9863  48.2190  -0.2376   C.2       1 RES1   0.0000
     7 C7      25.8861  49.1427   0.4298   C.2       1 RES1   0.0000
     8 O8      26.9043  48.6162   1.2102   O.3       1 RES1   0.0000
     9 C9      28.0676  47.9131   0.7656   C.3       1 RES1   0.0000
    10 C10     28.7813  47.6067   2.1372   C.3       1 RES1   0.0000
    11 C11     30.0958  46.8413   2.0163   C.3       1 RES1   0.0000
    12 C12     30.7438  46.5766   3.4382   C.3       1 RES1   0.0000
    13 N13     32.0711  45.8069   3.3591   N.3       1 RES1   1.0000
    14 C14     31.8626  44.4145   2.8570   C.3       1 RES1   0.0000
    15 C15     33.1796  43.6977   2.7108   C.3       1 RES1   0.0000
    16 C16     33.9603  43.6879   4.0102   C.3       1 RES1   0.0000
    17 C17     34.1088  45.0968   4.5467   C.3       1 RES1   0.0000
    18 C18     32.7741  45.7821   4.6798   C.3       1 RES1   0.0000
    19 C19     25.5300  50.5151   0.4734   C.2       1 RES1   0.0000
    20 C20     24.3088  50.9944  -0.1260   C.2       1 RES1   0.0000
    21 C21     23.4485  50.0797  -0.7700   C.2       1 RES1   0.0000
    22 C22     23.7981  48.7113  -0.8163   C.2       1 RES1   0.0000
@<TRIPOS>BOND
     1     1     2    2
     2     2     3   am
     3     3     4    1
     4     4     5    1
     5     5     6    1
     6     6     7    2
     7     7     8    1
     8     8     9    1
     9     9    10    1
    10    10    11    1
    11    11    12    1
    12    12    13    1
    13    13    14    1
    14    14    15    1
    15    15    16    1
    16    16    17    1
    17    17    18    1
    18     7    19    1
    19    19    20    2
    20    20    21    1
    21    21    22    2
    22    22     2    1
    23    22     6    1
    24    18    13    1
@<TRIPOS>SUBSTRUCTURE
     1 RES1        1 GROUP             0 ****  ****    0  
@<TRIPOS>MOLECULE
ligand_55
    22    24     1     0     0
SMALL
USER_CHARGES
****
Generated from the CSD

@<TRIPOS>ATOM
     1 O1      22.0963  48.0898  -2.3660   O.2       1 RES1   0.0000
     2 C2      22.8864  47.7327  -1.5024   C.2       1 RES1   0.0000
     3 N3      23.0388  46.4551  -1.1509   N.am      1 RES1   0.0000
     4 C4      23.9741  45.9672  -0.1504   C.3       1 RES1   0.0000
     5 C5      25.2700  46.7401  -0.2623   C.3       1 RES1   0.0000
     6 C6      24.9863  48.2190  -0.2376   C.2       1 RES1   0.0000
     7 C7      25.8861  49.1427   0.4298   C.2       1 RES1   0.0000
     8 O8      26.9043  48.6162   1.2102   O.3       1 RES1   0.0000
     9 C9      27.0927  48.7748   2.6190   C.3       1 RES1   0.0000
    10 C10     28.4081  47.9366   2.8468   C.3       1 RES1   0.0000
    11 C11     28.8993  47.8988   4.2909   C.3       1 RES1   0.0000
    12 C12     30.2224  47.0374   4.4294   C.3       1 RES1   0.0000
    13 N13     30.7498  46.9747   5.8710   N.3       1 RES1   1.0000
    14 C14     32.1202  46.3801   5.9230   C.3       1 RES1   0.0000
    15 C15     32.6554  46.3964   7.3311   C.3       1 RES1   0.0000
    16 C16     31.7251  45.6843   8.2931   C.3       1 RES1   0.0000
    17 C17     30.3232  46.2480   8.1855   C.3       1 RES1   0.0000
    18 C18     29.8210  46.2158   6.7658   C.3       1 RES1   0.0000
    19 C19     25.5300  50.5151   0.4734   C.2       1 RES1   0.0000
    20 C20     24.3088  50.9944  -0.1260   C.2       1 RES1   0.0000
    21 C21     23.4485  50.0797  -0.7700   C.2       1 RES1   0.0000
    22 C22     23.7981  48.7113  -0.8163   C.2       1 RES1   0.0000
@<TRIPOS>BOND
     1     1     2    2
     2     2     3   am
     3     3     4    1
     4     4     5    1
     5     5     6    1
     6     6     7    2
     7     7     8    1
     8     8     9    1
     9     9    10    1
    10    10    11    1
    11    11    12    1
    12    12    13    1
    13    13    14    1
    14    14    15    1
    15    15    16    1
    16    16    17    1
    17    17    18    1
    18     7    19    1
    19    19    20    2
    20    20    21    1
    21    21    22    2
    22    22     2    1
    23    22     6    1
    24    18    13    1
@<TRIPOS>SUBSTRUCTURE
     1 RES1        1 GROUP             0 ****  ****    0  
@<TRIPOS>MOLECULE
ligand_56
    22    24     1     0     0
SMALL
USER_CHARGES
****
Generated from the CSD

@<TRIPOS>ATOM
     1 O1      22.0963  48.0898  -2.3660   O.2       1 RES1   0.0000
     2 C2      22.8864  47.7327  -1.5024   C.2       1 RES1   0.0000
     3 N3      23.0388  46.4551  -1.1509   N.am      1 RES1   0.0000
     4 C4      23.9741  45.9672  -0.1504   C.3       1 RES1   0.0000
     5 C5      25.2700  46.7401  -0.2623   C.3       1 RES1   0.0000
     6 C6      24.9863  48.2190  -0.2376   C.2       1 RES1   0.0000
     7 C7      25.8861  49.1427   0.4298   C.2       1 RES1   0.0000
     8 O8      26.9043  48.6162   1.2102   O.3       1 RES1   0.0000
     9 C9      28.3139  48.7491   1.0083   C.3       1 RES1   0.0000
    10 C10     28.8756  47.9268   2.2302   C.3       1 RES1   0.0000
    11 C11     30.3980  47.8672   2.3142   C.3       1 RES1   0.0000
    12 C12     30.8755  47.0236   3.5680   C.3       1 RES1   0.0000
    13 N13     32.4048  46.9399   3.6880   N.3       1 RES1   1.0000
    14 C14     32.8150  45.9360   4.7167   C.3       1 RES1   0.0000
    15 C15     34.3152  45.8083   4.7686   C.3       1 RES1   0.0000
    16 C16     34.9833  47.1444   5.0269   C.3       1 RES1   0.0000
    17 C17     34.5107  48.1734   4.0208   C.3       1 RES1   0.0000
    18 C18     33.0080  48.2742   3.9962   C.3       1 RES1   0.0000
    19 C19     25.5300  50.5151   0.4734   C.2       1 RES1   0.0000
    20 C20     24.3088  50.9944  -0.1260   C.2       1 RES1   0.0000
    21 C21     23.4485  50.0797  -0.7700   C.2       1 RES1   0.0000
    22 C22     23.7981  48.7113  -0.8163   C.2       1 RES1   0.0000
@<TRIPOS>BOND
     1     1     2    2
     2     2     3   am
     3     3     4    1
     4     4     5    1
     5     5     6    1
     6     6     7    2
     7     7     8    1
     8     8     9    1
     9     9    10    1
    10    10    11    1
    11    11    12    1
    12    12    13    1
    13    13    14    1
    14    14    15    1
    15    15    16    1
    16    16    17    1
    17    17    18    1
    18     7    19    1
    19    19    20    2
    20    20    21    1
    21    21    22    2
    22    22     2    1
    23    22     6    1
    24    18    13    1
@<TRIPOS>SUBSTRUCTURE
     1 RES1        1 GROUP             0 ****  ****    0  
@<TRIPOS>MOLECULE
ligand_57
    22    24     1     0     0
SMALL
USER_CHARGES
****
Generated from the CSD

@<TRIPOS>ATOM
     1 O1      22.0963  48.0898  -2.3660   O.2       1 RES1   0.0000
     2 C2      22.8864  47.7327  -1.5024   C.2       1 RES1   0.0000
     3 N3      23.0388  46.4551  -1.1509   N.am      1 RES1   0.0000
     4 C4      23.9741  45.9672  -0.1504   C.3       1 RES1   0.0000
     5 C5      25.2700  46.7401  -0.2623   C.3       1 RES1   0.0000
     6 C6      24.9863  48.2190  -0.2376   C.2       1 RES1   0.0000
     7 C7      25.8861  49.1427   0.4298   C.2       1 RES1   0.0000
     8 O8      26.9043  48.6162   1.2102   O.3       1 RES1   0.0000
     9 C9      27.0927  48.7748   2.6190   C.3       1 RES1   0.0000
    10 C10     28.4081  47.9366   2.8468   C.3       1 RES1   0.0000
    11 C11     28.8993  47.8988   4.2909   C.3       1 RES1   0.0000
    12 C12     30.2224  47.0374   4.4294   C.3       1 RES1   0.0000
    13 N13     30.7498  46.9747   5.8710   N.3       1 RES1   1.0000
    14 C14     31.2115  48.3170   6.3395   C.3       1 RES1   0.0000
    15 C15     31.6529  48.2566   7.7787   C.3       1 RES1   0.0000
    16 C16     32.7325  47.2139   7.9910   C.3       1 RES1   0.0000
    17 C17     32.2824  45.8715   7.4525   C.3       1 RES1   0.0000
    18 C18     31.8490  45.9694   6.0133   C.3       1 RES1   0.0000
    19 C19     25.5300  50.5151   0.4734   C.2       1 RES1   0.0000
    20 C20     24.3088  50.9944  -0.1260   C.2       1 RES1   0.0000
    21 C21     23.4485  50.0797  -0.7700   C.2       1 RES1   0.0000
    22 C22     23.7981  48.7113  -0.8163   C.2       1 RES1   0.0000
@<TRIPOS>BOND
     1     1     2    2
     2     2     3   am
     3     3     4    1
     4     4     5    1
     5     5     6    1
     6     6     7    2
     7     7     8    1
     8     8     9    1
     9     9    10    1
    10    10    11    1
    11    11    12    1
    12    12    13    1
    13    13    14    1
    14    14    15    1
    15    15    16    1
    16    16    17    1
    17    17    18    1
    18     7    19    1
    19    19    20    2
    20    20    21    1
    21    21    22    2
    22    22     2    1
    23    22     6    1
    24    18    13    1
@<TRIPOS>SUBSTRUCTURE
     1 RES1        1 GROUP             0 ****  ****    0  
@<TRIPOS>MOLECULE
ligand_58
    22    24     1     0     0
SMALL
USER_CHARGES
****
Generated from the CSD

@<TRIPOS>ATOM
     1 O1      22.0963  48.0898  -2.3660   O.2       1 RES1   0.0000
     2 C2      22.8864  47.7327  -1.5024   C.2       1 RES1   0.0000
     3 N3      23.0388  46.4551  -1.1509   N.am      1 RES1   0.0000
     4 C4      23.9741  45.9672  -0.1504   C.3       1 RES1   0.0000
     5 C5      25.2700  46.7401  -0.2623   C.3       1 RES1   0.0000
     6 C6      24.9863  48.2190  -0.2376   C.2       1 RES1   0.0000
     7 C7      25.8861  49.1427   0.4298   C.2       1 RES1   0.0000
     8 O8      26.9043  48.6162   1.2102   O.3       1 RES1   0.0000
     9 C9      28.3139  48.7491   1.0083   C.3       1 RES1   0.0000
    10 C10     28.8756  47.9268   2.2302   C.3       1 RES1   0.0000
    11 C11     30.3980  47.8672   2.3142   C.3       1 RES1   0.0000
    12 C12     30.8755  47.0236   3.5680   C.3       1 RES1   0.0000
    13 N13     32.4048  46.9399   3.6880   N.3       1 RES1   1.0000
    14 C14     32.9969  46.1629   2.5566   C.3       1 RES1   0.0000
    15 C15     34.5008  46.1549   2.6447   C.3       1 RES1   0.0000
    16 C16     34.9819  45.6138   3.9766   C.3       1 RES1   0.0000
    17 C17     34.3255  46.3626   5.1180   C.3       1 RES1   0.0000
    18 C18     32.8241  46.3499   4.9977   C.3       1 RES1   0.0000
    19 C19     25.5300  50.5151   0.4734   C.2       1 RES1   0.0000
    20 C20     24.3088  50.9944  -0.1260   C.2       1 RES1   0.0000
    21 C21     23.4485  50.0797  -0.7700   C.2       1 RES1   0.0000
    22 C22     23.7981  48.7113  -0.8163   C.2       1 RES1   0.0000
@<TRIPOS>BOND
     1     1     2    2
     2     2     3   am
     3     3     4    1
     4     4     5    1
     5     5     6    1
     6     6     7    2
     7     7     8    1
     8     8     9    1
     9     9    10    1
    10    10    11    1
    11    11    12    1
    12    12    13    1
    13    13    14    1
    14    14    15    1
    15    15    16    1
    16    16    17    1
    17    17    18    1
    18     7    19    1
    19    19    20    2
    20    20    21    1
    21    21    22    2
    22    22     2    1
    23    22     6    1
    24    18    13    1
@<TRIPOS>SUBSTRUCTURE
     1 RES1        1 GROUP             0 ****  ****    0  
@<TRIPOS>MOLECULE
ligand_59
    22    24     1     0     0
SMALL
USER_CHARGES
****
Generated from the CSD

@<TRIPOS>ATOM
     1 O1      22.0963  48.0898  -2.3660   O.2       1 RES1   0.0000
     2 C2      22.8864  47.7327  -1.5024   C.2       1 RES1   0.0000
     3 N3      23.0388  46.4551  -1.1509   N.am      1 RES1   0.0000
     4 C4      23.9741  45.9672  -0.1504   C.3       1 RES1   0.0000
     5 C5      25.2700  46.7401  -0.2623   C.3       1 RES1   0.0000
     6 C6      24.9863  48.2190  -0.2376   C.2       1 RES1   0.0000
     7 C7      25.8861  49.1427   0.4298   C.2       1 RES1   0.0000
     8 O8      26.9043  48.6162   1.2102   O.3       1 RES1   0.0000
     9 C9      27.8951  49.3349   1.9499   C.3       1 RES1   0.0000
    10 C10     28.7153  48.1510   2.5906   C.3       1 RES1   0.0000
    11 C11     27.9286  47.2862   3.5711   C.3       1 RES1   0.0000
    12 C12     28.8264  46.1236   4.1661   C.3       1 RES1   0.0000
    13 N13     28.0692  45.2289   5.1594   N.3       1 RES1   1.0000
    14 C14     28.9271  44.3311   5.9948   C.3       1 RES1   0.0000
    15 C15     29.5559  43.2452   5.1585   C.3       1 RES1   0.0000
    16 C16     28.4862  42.4342   4.4317   C.3       1 RES1   0.0000
    17 C17     27.5755  43.3324   3.6296   C.3       1 RES1   0.0000
    18 C18     26.9872  44.4327   4.4873   C.3       1 RES1   0.0000
    19 C19     25.5300  50.5151   0.4734   C.2       1 RES1   0.0000
    20 C20     24.3088  50.9944  -0.1260   C.2       1 RES1   0.0000
    21 C21     23.4485  50.0797  -0.7700   C.2       1 RES1   0.0000
    22 C22     23.7981  48.7113  -0.8163   C.2       1 RES1   0.0000
@<TRIPOS>BOND
     1     1     2    2
     2     2     3   am
     3     3     4    1
     4     4     5    1
     5     5     6    1
     6     6     7    2
     7     7     8    1
     8     8     9    1
     9     9    10    1
    10    10    11    1
    11    11    12    1
    12    12    13    1
    13    13    14    1
    14    14    15    1
    15    15    16    1
    16    16    17    1
    17    17    18    1
    18     7    19    1
    19    19    20    2
    20    20    21    1
    21    21    22    2
    22    22     2    1
    23    22     6    1
    24    18    13    1
@<TRIPOS>SUBSTRUCTURE
     1 RES1        1 GROUP             0 ****  ****    0  
@<TRIPOS>MOLECULE
ligand_60
    22    24     1     0     0
SMALL
USER_CHARGES
****
Generated from the CSD

@<TRIPOS>ATOM
     1 O1      22.0963  48.0898  -2.3660   O.2       1 RES1   0.0000
     2 C2      22.8864  47.7327  -1.5024   C.2       1 RES1   0.0000
     3 N3      23.0388  46.4551  -1.1509   N.am      1 RES1   0.0000
     4 C4      23.9741  45.9672  -0.1504   C.3       1 RES1   0.0000
     5 C5      25.2700  46.7401  -0.2623   C.3       1 RES1   0.0000
     6 C6      24.9863  48.2190  -0.2376   C.2       1 RES1   0.0000
     7 C7      25.8861  49.1427   0.4298   C.2       1 RES1   0.0000
     8 O8      26.9043  48.6162   1.2102   O.3       1 RES1   0.0000
     9 C9      27.8951  49.3349   1.9499   C.3       1 RES1   0.0000
    10 C10     28.7153  48.1510   2.5906   C.3       1 RES1   0.0000
    11 C11     29.4334  47.2545   1.5862   C.3       1 RES1   0.0000
    12 C12     30.2309  46.0940   2.3136   C.3       1 RES1   0.0000
    13 N13     30.9688  45.1679   1.3348   N.3       1 RES1   1.0000
    14 C14     31.4614  43.8810   1.9191   C.3       1 RES1   0.0000
    15 C15     32.5919  44.1197   2.8880   C.3       1 RES1   0.0000
    16 C16     33.7361  44.8692   2.2104   C.3       1 RES1   0.0000
    17 C17     33.2443  46.1425   1.5652   C.3       1 RES1   0.0000
    18 C18     32.0876  45.8761   0.6253   C.3       1 RES1   0.0000
    19 C19     25.5300  50.5151   0.4734   C.2       1 RES1   0.0000
    20 C20     24.3088  50.9944  -0.1260   C.2       1 RES1   0.0000
    21 C21     23.4485  50.0797  -0.7700   C.2       1 RES1   0.0000
    22 C22     23.7981  48.7113  -0.8163   C.2       1 RES1   0.0000
@<TRIPOS>BOND
     1     1     2    2
     2     2     3   am
     3     3     4    1
     4     4     5    1
     5     5     6    1
     6     6     7    2
     7     7     8    1
     8     8     9    1
     9     9    10    1
    10    10    11    1
    11    11    12    1
    12    12    13    1
    13    13    14    1
    14    14    15    1
    15    15    16    1
    16    16    17    1
    17    17    18    1
    18     7    19    1
    19    19    20    2
    20    20    21    1
    21    21    22    2
    22    22     2    1
    23    22     6    1
    24    18    13    1
@<TRIPOS>SUBSTRUCTURE
     1 RES1        1 GROUP             0 ****  ****    0  
@<TRIPOS>MOLECULE
ligand_61
    22    24     1     0     0
SMALL
USER_CHARGES
****
Generated from the CSD

@<TRIPOS>ATOM
     1 O1      22.0963  48.0898  -2.3660   O.2       1 RES1   0.0000
     2 C2      22.8864  47.7327  -1.5024   C.2       1 RES1   0.0000
     3 N3      23.0388  46.4551  -1.1509   N.am      1 RES1   0.0000
     4 C4      23.9741  45.9672  -0.1504   C.3       1 RES1   0.0000
     5 C5      25.2700  46.7401  -0.2623   C.3       1 RES1   0.0000
     6 C6      24.9863  48.2190  -0.2376   C.2       1 RES1   0.0000
     7 C7      25.8861  49.1427   0.4298   C.2       1 RES1   0.0000
     8 O8      26.9043  48.6162   1.2102   O.3       1 RES1   0.0000
     9 C9      27.8951  49.3349   1.9499   C.3       1 RES1   0.0000
    10 C10     28.7153  48.1510   2.5906   C.3       1 RES1   0.0000
    11 C11     27.9286  47.2862   3.5711   C.3       1 RES1   0.0000
    12 C12     28.8264  46.1236   4.1661   C.3       1 RES1   0.0000
    13 N13     28.0692  45.2289   5.1594   N.3       1 RES1   1.0000
    14 C14     27.5814  45.9159   6.3964   C.3       1 RES1   0.0000
    15 C15     28.7303  46.3103   7.2900   C.3       1 RES1   0.0000
    16 C16     29.5744  45.0922   7.6553   C.3       1 RES1   0.0000
    17 C17     30.0265  44.3540   6.4182   C.3       1 RES1   0.0000
    18 C18     28.8560  44.0025   5.5244   C.3       1 RES1   0.0000
    19 C19     25.5300  50.5151   0.4734   C.2       1 RES1   0.0000
    20 C20     24.3088  50.9944  -0.1260   C.2       1 RES1   0.0000
    21 C21     23.4485  50.0797  -0.7700   C.2       1 RES1   0.0000
    22 C22     23.7981  48.7113  -0.8163   C.2       1 RES1   0.0000
@<TRIPOS>BOND
     1     1     2    2
     2     2     3   am
     3     3     4    1
     4     4     5    1
     5     5     6    1
     6     6     7    2
     7     7     8    1
     8     8     9    1
     9     9    10    1
    10    10    11    1
    11    11    12    1
    12    12    13    1
    13    13    14    1
    14    14    15    1
    15    15    16    1
    16    16    17    1
    17    17    18    1
    18     7    19    1
    19    19    20    2
    20    20    21    1
    21    21    22    2
    22    22     2    1
    23    22     6    1
    24    18    13    1
@<TRIPOS>SUBSTRUCTURE
     1 RES1        1 GROUP             0 ****  ****    0  
@<TRIPOS>MOLECULE
ligand_62
    22    24     1     0     0
SMALL
USER_CHARGES
****
Generated from the CSD

@<TRIPOS>ATOM
     1 O1      22.0963  48.0898  -2.3660   O.2       1 RES1   0.0000
     2 C2      22.8864  47.7327  -1.5024   C.2       1 RES1   0.0000
     3 N3      23.0388  46.4551  -1.1509   N.am      1 RES1   0.0000
     4 C4      23.9741  45.9672  -0.1504   C.3       1 RES1   0.0000
     5 C5      25.2700  46.7401  -0.2623   C.3       1 RES1   0.0000
     6 C6      24.9863  48.2190  -0.2376   C.2       1 RES1   0.0000
     7 C7      25.8861  49.1427   0.4298   C.2       1 RES1   0.0000
     8 O8      26.9043  48.6162   1.2102   O.3       1 RES1   0.0000
     9 C9      27.8951  49.3349   1.9499   C.3       1 RES1   0.0000
    10 C10     28.7153  48.1510   2.5906   C.3       1 RES1   0.0000
    11 C11     29.4334  47.2545   1.5862   C.3       1 RES1   0.0000
    12 C12     30.2309  46.0940   2.3136   C.3       1 RES1   0.0000
    13 N13     30.9688  45.1679   1.3348   N.3       1 RES1   1.0000
    14 C14     30.0926  44.4054   0.3909   C.3       1 RES1   0.0000
    15 C15     29.2890  43.3576   1.1190   C.3       1 RES1   0.0000
    16 C16     30.2064  42.4049   1.8809   C.3       1 RES1   0.0000
    17 C17     31.1377  43.1634   2.7958   C.3       1 RES1   0.0000
    18 C18     31.9045  44.2308   2.0441   C.3       1 RES1   0.0000
    19 C19     25.5300  50.5151   0.4734   C.2       1 RES1   0.0000
    20 C20     24.3088  50.9944  -0.1260   C.2       1 RES1   0.0000
    21 C21     23.4485  50.0797  -0.7700   C.2       1 RES1   0.0000
    22 C22     23.7981  48.7113  -0.8163   C.2       1 RES1   0.0000
@<TRIPOS>BOND
     1     1     2    2
     2     2     3   am
     3     3     4    1
     4     4     5    1
     5     5     6    1
     6     6     7    2
     7     7     8    1
     8     8     9    1
     9     9    10    1
    10    10    11    1
    11    11    12    1
    12    12    13    1
    13    13    14    1
    14    14    15    1
    15    15    16    1
    16    16    17    1
    17    17    18    1
    18     7    19    1
    19    19    20    2
    20    20    21    1
    21    21    22    2
    22    22     2    1
    23    22     6    1
    24    18    13    1
@<TRIPOS>SUBSTRUCTURE
     1 RES1        1 GROUP             0 ****  ****    0  
@<TRIPOS>MOLECULE
ligand_63
    22    24     1     0     0
SMALL
USER_CHARGES
****
Generated from the CSD

@<TRIPOS>ATOM
     1 O1      21.6929  47.9867  -1.6618   O.2       1 RES1   0.0000
     2 C2      22.8837  47.7396  -1.5071   C.2       1 RES1   0.0000
     3 N3      23.4028  46.5457  -1.7926   N.am      1 RES1   0.0000
     4 C4      24.7852  46.1555  -1.5732   C.3       1 RES1   0.0000
     5 C5      25.2666  46.7392  -0.2629   C.3       1 RES1   0.0000
     6 C6      24.9897  48.2199  -0.2430   C.2       1 RES1   0.0000
     7 C7      25.8837  49.1405   0.4350   C.2       1 RES1   0.0000
     8 O8      26.9094  48.6250   1.2120   O.3       1 RES1   0.0000
     9 C9      27.8897  49.3542   1.9554   C.3       1 RES1   0.0000
    10 C10     28.7274  48.1791   2.5895   C.3       1 RES1   0.0000
    11 C11     29.8899  48.6267   3.4708   C.3       1 RES1   0.0000
    12 C12     30.6716  47.3856   4.0713   C.3       1 RES1   0.0000
    13 N13     30.2242  47.0270   5.4967   N.3       1 RES1   1.0000
    14 C14     31.1386  46.0196   6.1158   C.3       1 RES1   0.0000
    15 C15     30.7337  45.7358   7.5390   C.3       1 RES1   0.0000
    16 C16     29.2912  45.2791   7.6314   C.3       1 RES1   0.0000
    17 C17     28.3784  46.2726   6.9426   C.3       1 RES1   0.0000
    18 C18     28.8124  46.5318   5.5237   C.3       1 RES1   0.0000
    19 C19     25.5266  50.5129   0.4830   C.2       1 RES1   0.0000
    20 C20     24.3093  50.9932  -0.1232   C.2       1 RES1   0.0000
    21 C21     23.4544  50.0812  -0.7780   C.2       1 RES1   0.0000
    22 C22     23.8055  48.7132  -0.8282   C.2       1 RES1   0.0000
@<TRIPOS>BOND
     1     1     2    2
     2     2     3   am
     3     3     4    1
     4     4     5    1
     5     5     6    1
     6     6     7    2
     7     7     8    1
     8     8     9    1
     9     9    10    1
    10    10    11    1
    11    11    12    1
    12    12    13    1
    13    13    14    1
    14    14    15    1
    15    15    16    1
    16    16    17    1
    17    17    18    1
    18     7    19    1
    19    19    20    2
    20    20    21    1
    21    21    22    2
    22    22     2    1
    23    22     6    1
    24    18    13    1
@<TRIPOS>SUBSTRUCTURE
     1 RES1        1 GROUP             0 ****  ****    0  
@<TRIPOS>MOLECULE
ligand_64
    22    24     1     0     0
SMALL
USER_CHARGES
****
Generated from the CSD

@<TRIPOS>ATOM
     1 O1      21.6929  47.9867  -1.6618   O.2       1 RES1   0.0000
     2 C2      22.8837  47.7396  -1.5071   C.2       1 RES1   0.0000
     3 N3      23.4028  46.5457  -1.7926   N.am      1 RES1   0.0000
     4 C4      24.7852  46.1555  -1.5732   C.3       1 RES1   0.0000
     5 C5      25.2666  46.7392  -0.2629   C.3       1 RES1   0.0000
     6 C6      24.9897  48.2199  -0.2430   C.2       1 RES1   0.0000
     7 C7      25.8837  49.1405   0.4350   C.2       1 RES1   0.0000
     8 O8      26.9094  48.6250   1.2120   O.3       1 RES1   0.0000
     9 C9      27.8897  49.3542   1.9554   C.3       1 RES1   0.0000
    10 C10     28.7274  48.1791   2.5895   C.3       1 RES1   0.0000
    11 C11     29.8899  48.6267   3.4708   C.3       1 RES1   0.0000
    12 C12     30.6759  47.3856   4.0656   C.3       1 RES1   0.0000
    13 N13     31.8584  46.9473   3.1882   N.3       1 RES1   1.0000
    14 C14     32.4072  45.6304   3.6342   C.3       1 RES1   0.0000
    15 C15     33.5141  45.1765   2.7186   C.3       1 RES1   0.0000
    16 C16     34.6178  46.2108   2.6172   C.3       1 RES1   0.0000
    17 C17     34.0438  47.5581   2.2302   C.3       1 RES1   0.0000
    18 C18     32.9414  47.9797   3.1660   C.3       1 RES1   0.0000
    19 C19     25.5266  50.5129   0.4830   C.2       1 RES1   0.0000
    20 C20     24.3093  50.9932  -0.1232   C.2       1 RES1   0.0000
    21 C21     23.4544  50.0812  -0.7780   C.2       1 RES1   0.0000
    22 C22     23.8055  48.7132  -0.8282   C.2       1 RES1   0.0000
@<TRIPOS>BOND
     1     1     2    2
     2     2     3   am
     3     3     4    1
     4     4     5    1
     5     5     6    1
     6     6     7    2
     7     7     8    1
     8     8     9    1
     9     9    10    1
    10    10    11    1
    11    11    12    1
    12    12    13    1
    13    13    14    1
    14    14    15    1
    15    15    16    1
    16    16    17    1
    17    17    18    1
    18     7    19    1
    19    19    20    2
    20    20    21    1
    21    21    22    2
    22    22     2    1
    23    22     6    1
    24    18    13    1
@<TRIPOS>SUBSTRUCTURE
     1 RES1        1 GROUP             0 ****  ****    0  
@<TRIPOS>MOLECULE
ligand_65
    22    24     1     0     0
SMALL
USER_CHARGES
****
Generated from the CSD

@<TRIPOS>ATOM
     1 O1      21.6929  47.9867  -1.6618   O.2       1 RES1   0.0000
     2 C2      22.8837  47.7396  -1.5071   C.2       1 RES1   0.0000
     3 N3      23.4028  46.5457  -1.7926   N.am      1 RES1   0.0000
     4 C4      24.7852  46.1555  -1.5732   C.3       1 RES1   0.0000
     5 C5      25.2666  46.7392  -0.2629   C.3       1 RES1   0.0000
     6 C6      24.9897  48.2199  -0.2430   C.2       1 RES1   0.0000
     7 C7      25.8837  49.1405   0.4350   C.2       1 RES1   0.0000
     8 O8      26.9094  48.6250   1.2120   O.3       1 RES1   0.0000
     9 C9      27.8897  49.3542   1.9554   C.3       1 RES1   0.0000
    10 C10     28.7274  48.1791   2.5895   C.3       1 RES1   0.0000
    11 C11     29.8899  48.6267   3.4708   C.3       1 RES1   0.0000
    12 C12     30.6759  47.3856   4.0656   C.3       1 RES1   0.0000
    13 N13     30.1521  46.9469   5.4417   N.3       1 RES1   1.0000
    14 C14     30.4247  47.9842   6.4828   C.3       1 RES1   0.0000
    15 C15     29.8378  47.5759   7.8089   C.3       1 RES1   0.0000
    16 C16     30.3495  46.2205   8.2553   C.3       1 RES1   0.0000
    17 C17     30.1299  45.1895   7.1674   C.3       1 RES1   0.0000
    18 C18     30.7291  45.6304   5.8577   C.3       1 RES1   0.0000
    19 C19     25.5266  50.5129   0.4830   C.2       1 RES1   0.0000
    20 C20     24.3093  50.9932  -0.1232   C.2       1 RES1   0.0000
    21 C21     23.4544  50.0812  -0.7780   C.2       1 RES1   0.0000
    22 C22     23.8055  48.7132  -0.8282   C.2       1 RES1   0.0000
@<TRIPOS>BOND
     1     1     2    2
     2     2     3   am
     3     3     4    1
     4     4     5    1
     5     5     6    1
     6     6     7    2
     7     7     8    1
     8     8     9    1
     9     9    10    1
    10    10    11    1
    11    11    12    1
    12    12    13    1
    13    13    14    1
    14    14    15    1
    15    15    16    1
    16    16    17    1
    17    17    18    1
    18     7    19    1
    19    19    20    2
    20    20    21    1
    21    21    22    2
    22    22     2    1
    23    22     6    1
    24    18    13    1
@<TRIPOS>SUBSTRUCTURE
     1 RES1        1 GROUP             0 ****  ****    0  
@<TRIPOS>MOLECULE
ligand_66
    22    24     1     0     0
SMALL
USER_CHARGES
****
Generated from the CSD

@<TRIPOS>ATOM
     1 O1      21.6929  47.9867  -1.6618   O.2       1 RES1   0.0000
     2 C2      22.8837  47.7396  -1.5071   C.2       1 RES1   0.0000
     3 N3      23.4028  46.5457  -1.7926   N.am      1 RES1   0.0000
     4 C4      24.7852  46.1555  -1.5732   C.3       1 RES1   0.0000
     5 C5      25.2666  46.7392  -0.2629   C.3       1 RES1   0.0000
     6 C6      24.9897  48.2199  -0.2430   C.2       1 RES1   0.0000
     7 C7      25.8837  49.1405   0.4350   C.2       1 RES1   0.0000
     8 O8      26.9094  48.6250   1.2120   O.3       1 RES1   0.0000
     9 C9      27.8897  49.3542   1.9554   C.3       1 RES1   0.0000
    10 C10     28.7274  48.1791   2.5895   C.3       1 RES1   0.0000
    11 C11     29.8899  48.6267   3.4708   C.3       1 RES1   0.0000
    12 C12     30.6804  47.3856   4.0597   C.3       1 RES1   0.0000
    13 N13     31.9323  47.0292   3.2437   N.3       1 RES1   1.0000
    14 C14     31.5708  46.5549   1.8731   C.3       1 RES1   0.0000
    15 C15     32.8090  46.2834   1.0590   C.3       1 RES1   0.0000
    16 C16     33.7254  45.2902   1.7458   C.3       1 RES1   0.0000
    17 C17     34.0325  45.7451   3.1576   C.3       1 RES1   0.0000
    18 C18     32.7731  46.0066   3.9414   C.3       1 RES1   0.0000
    19 C19     25.5266  50.5129   0.4830   C.2       1 RES1   0.0000
    20 C20     24.3093  50.9932  -0.1232   C.2       1 RES1   0.0000
    21 C21     23.4544  50.0812  -0.7780   C.2       1 RES1   0.0000
    22 C22     23.8055  48.7132  -0.8282   C.2       1 RES1   0.0000
@<TRIPOS>BOND
     1     1     2    2
     2     2     3   am
     3     3     4    1
     4     4     5    1
     5     5     6    1
     6     6     7    2
     7     7     8    1
     8     8     9    1
     9     9    10    1
    10    10    11    1
    11    11    12    1
    12    12    13    1
    13    13    14    1
    14    14    15    1
    15    15    16    1
    16    16    17    1
    17    17    18    1
    18     7    19    1
    19    19    20    2
    20    20    21    1
    21    21    22    2
    22    22     2    1
    23    22     6    1
    24    18    13    1
@<TRIPOS>SUBSTRUCTURE
     1 RES1        1 GROUP             0 ****  ****    0  
@<TRIPOS>MOLECULE
ligand_67
    22    24     1     0     0
SMALL
USER_CHARGES
****
Generated from the CSD

@<TRIPOS>ATOM
     1 O1      22.1620  48.0718  -2.4500   O.2       1 RES1   0.0000
     2 C2      22.9473  47.7109  -1.5836   C.2       1 RES1   0.0000
     3 N3      23.1238  46.4287  -1.2616   N.am      1 RES1   0.0000
     4 C4      24.0554  45.9370  -0.2595   C.3       1 RES1   0.0000
     5 C5      25.3348  46.7413  -0.3327   C.3       1 RES1   0.0000
     6 C6      25.0171  48.2124  -0.2757   C.2       1 RES1   0.0000
     7 C7      25.8857  49.1391   0.4278   C.2       1 RES1   0.0000
     8 O8      26.9043  48.6162   1.2102   O.3       1 RES1   0.0000
     9 C9      26.7797  47.9402   2.4643   C.3       1 RES1   0.0000
    10 C10     28.2883  47.6171   2.7876   C.3       1 RES1   0.0000
    11 C11     28.9629  46.6663   1.8032   C.3       1 RES1   0.0000
    12 C12     30.4729  46.3967   2.2020   C.3       1 RES1   0.0000
    13 N13     31.1883  45.4423   1.2336   N.3       1 RES1   1.0000
    14 C14     32.5130  45.0109   1.7753   C.3       1 RES1   0.0000
    15 C15     33.1678  44.0160   0.8528   C.3       1 RES1   0.0000
    16 C16     33.3164  44.5667  -0.5518   C.3       1 RES1   0.0000
    17 C17     31.9814  45.0634  -1.0673   C.3       1 RES1   0.0000
    18 C18     31.3567  46.0550  -0.1212   C.3       1 RES1   0.0000
    19 C19     25.4978  50.5016   0.5000   C.2       1 RES1   0.0000
    20 C20     24.2748  50.9683  -0.1057   C.2       1 RES1   0.0000
    21 C21     23.4451  50.0509  -0.7850   C.2       1 RES1   0.0000
    22 C22     23.8265  48.6922  -0.8599   C.2       1 RES1   0.0000
@<TRIPOS>BOND
     1     1     2    2
     2     2     3   am
     3     3     4    1
     4     4     5    1
     5     5     6    1
     6     6     7    2
     7     7     8    1
     8     8     9    1
     9     9    10    1
    10    10    11    1
    11    11    12    1
    12    12    13    1
    13    13    14    1
    14    14    15    1
    15    15    16    1
    16    16    17    1
    17    17    18    1
    18     7    19    1
    19    19    20    2
    20    20    21    1
    21    21    22    2
    22    22     2    1
    23    22     6    1
    24    18    13    1
@<TRIPOS>SUBSTRUCTURE
     1 RES1        1 GROUP             0 ****  ****    0  
@<TRIPOS>MOLECULE
ligand_68
    22    24     1     0     0
SMALL
USER_CHARGES
****
Generated from the CSD

@<TRIPOS>ATOM
     1 O1      22.1620  48.0718  -2.4500   O.2       1 RES1   0.0000
     2 C2      22.9473  47.7109  -1.5836   C.2       1 RES1   0.0000
     3 N3      23.1238  46.4287  -1.2616   N.am      1 RES1   0.0000
     4 C4      24.0554  45.9370  -0.2595   C.3       1 RES1   0.0000
     5 C5      25.3348  46.7413  -0.3327   C.3       1 RES1   0.0000
     6 C6      25.0171  48.2124  -0.2757   C.2       1 RES1   0.0000
     7 C7      25.8857  49.1391   0.4278   C.2       1 RES1   0.0000
     8 O8      26.9043  48.6162   1.2102   O.3       1 RES1   0.0000
     9 C9      26.7797  47.9402   2.4643   C.3       1 RES1   0.0000
    10 C10     28.2883  47.6171   2.7876   C.3       1 RES1   0.0000
    11 C11     29.1732  48.8424   2.9971   C.3       1 RES1   0.0000
    12 C12     30.6691  48.4277   3.3163   C.3       1 RES1   0.0000
    13 N13     31.5934  49.6354   3.5341   N.3       1 RES1   1.0000
    14 C14     33.0289  49.2207   3.5753   C.3       1 RES1   0.0000
    15 C15     33.9273  50.4223   3.7113   C.3       1 RES1   0.0000
    16 C16     33.5737  51.2522   4.9296   C.3       1 RES1   0.0000
    17 C17     32.1022  51.6114   4.9139   C.3       1 RES1   0.0000
    18 C18     31.2350  50.3874   4.7772   C.3       1 RES1   0.0000
    19 C19     25.4978  50.5016   0.5000   C.2       1 RES1   0.0000
    20 C20     24.2748  50.9683  -0.1057   C.2       1 RES1   0.0000
    21 C21     23.4451  50.0509  -0.7850   C.2       1 RES1   0.0000
    22 C22     23.8265  48.6922  -0.8599   C.2       1 RES1   0.0000
@<TRIPOS>BOND
     1     1     2    2
     2     2     3   am
     3     3     4    1
     4     4     5    1
     5     5     6    1
     6     6     7    2
     7     7     8    1
     8     8     9    1
     9     9    10    1
    10    10    11    1
    11    11    12    1
    12    12    13    1
    13    13    14    1
    14    14    15    1
    15    15    16    1
    16    16    17    1
    17    17    18    1
    18     7    19    1
    19    19    20    2
    20    20    21    1
    21    21    22    2
    22    22     2    1
    23    22     6    1
    24    18    13    1
@<TRIPOS>SUBSTRUCTURE
     1 RES1        1 GROUP             0 ****  ****    0  
@<TRIPOS>MOLECULE
ligand_69
    22    24     1     0     0
SMALL
USER_CHARGES
****
Generated from the CSD

@<TRIPOS>ATOM
     1 O1      22.0963  48.0898  -2.3660   O.2       1 RES1   0.0000
     2 C2      22.8864  47.7327  -1.5024   C.2       1 RES1   0.0000
     3 N3      23.0388  46.4551  -1.1509   N.am      1 RES1   0.0000
     4 C4      23.9741  45.9672  -0.1504   C.3       1 RES1   0.0000
     5 C5      25.2700  46.7401  -0.2623   C.3       1 RES1   0.0000
     6 C6      24.9863  48.2190  -0.2376   C.2       1 RES1   0.0000
     7 C7      25.8861  49.1427   0.4298   C.2       1 RES1   0.0000
     8 O8      26.9043  48.6162   1.2102   O.3       1 RES1   0.0000
     9 C9      28.0676  47.9131   0.7656   C.3       1 RES1   0.0000
    10 C10     28.7813  47.6067   2.1372   C.3       1 RES1   0.0000
    11 C11     29.2409  48.8410   2.9078   C.3       1 RES1   0.0000
    12 C12     29.9459  48.4429   4.2702   C.3       1 RES1   0.0000
    13 N13     30.4238  49.6601   5.0767   N.3       1 RES1   1.0000
    14 C14     31.3019  49.2476   6.2139   C.3       1 RES1   0.0000
    15 C15     31.8255  50.4544   6.9482   C.3       1 RES1   0.0000
    16 C16     30.7006  51.3463   7.4354   C.3       1 RES1   0.0000
    17 C17     29.7775  51.7045   6.2890   C.3       1 RES1   0.0000
    18 C18     29.2739  50.4754   5.5788   C.3       1 RES1   0.0000
    19 C19     25.5300  50.5151   0.4734   C.2       1 RES1   0.0000
    20 C20     24.3088  50.9944  -0.1260   C.2       1 RES1   0.0000
    21 C21     23.4485  50.0797  -0.7700   C.2       1 RES1   0.0000
    22 C22     23.7981  48.7113  -0.8163   C.2       1 RES1   0.0000
@<TRIPOS>BOND
     1     1     2    2
     2     2     3   am
     3     3     4    1
     4     4     5    1
     5     5     6    1
     6     6     7    2
     7     7     8    1
     8     8     9    1
     9     9    10    1
    10    10    11    1
    11    11    12    1
    12    12    13    1
    13    13    14    1
    14    14    15    1
    15    15    16    1
    16    16    17    1
    17    17    18    1
    18     7    19    1
    19    19    20    2
    20    20    21    1
    21    21    22    2
    22    22     2    1
    23    22     6    1
    24    18    13    1
@<TRIPOS>SUBSTRUCTURE
     1 RES1        1 GROUP             0 ****  ****    0  
@<TRIPOS>MOLECULE
ligand_70
    22    24     1     0     0
SMALL
USER_CHARGES
****
Generated from the CSD

@<TRIPOS>ATOM
     1 O1      22.0963  48.0898  -2.3660   O.2       1 RES1   0.0000
     2 C2      22.8864  47.7327  -1.5024   C.2       1 RES1   0.0000
     3 N3      23.0388  46.4551  -1.1509   N.am      1 RES1   0.0000
     4 C4      23.9741  45.9672  -0.1504   C.3       1 RES1   0.0000
     5 C5      25.2700  46.7401  -0.2623   C.3       1 RES1   0.0000
     6 C6      24.9863  48.2190  -0.2376   C.2       1 RES1   0.0000
     7 C7      25.8861  49.1427   0.4298   C.2       1 RES1   0.0000
     8 O8      26.9043  48.6162   1.2102   O.3       1 RES1   0.0000
     9 C9      28.0676  47.9131   0.7656   C.3       1 RES1   0.0000
    10 C10     28.7813  47.6067   2.1372   C.3       1 RES1   0.0000
    11 C11     28.0013  46.6865   3.0716   C.3       1 RES1   0.0000
    12 C12     28.7890  46.4321   4.4231   C.3       1 RES1   0.0000
    13 N13     28.0353  45.5087   5.3924   N.3       1 RES1   1.0000
    14 C14     28.6767  45.4983   6.7425   C.3       1 RES1   0.0000
    15 C15     27.8837  44.6509   7.7031   C.3       1 RES1   0.0000
    16 C16     27.7008  43.2379   7.1854   C.3       1 RES1   0.0000
    17 C17     27.1126  43.2597   5.7896   C.3       1 RES1   0.0000
    18 C18     27.9301  44.1151   4.8576   C.3       1 RES1   0.0000
    19 C19     25.5300  50.5151   0.4734   C.2       1 RES1   0.0000
    20 C20     24.3088  50.9944  -0.1260   C.2       1 RES1   0.0000
    21 C21     23.4485  50.0797  -0.7700   C.2       1 RES1   0.0000
    22 C22     23.7981  48.7113  -0.8163   C.2       1 RES1   0.0000
@<TRIPOS>BOND
     1     1     2    2
     2     2     3   am
     3     3     4    1
     4     4     5    1
     5     5     6    1
     6     6     7    2
     7     7     8    1
     8     8     9    1
     9     9    10    1
    10    10    11    1
    11    11    12    1
    12    12    13    1
    13    13    14    1
    14    14    15    1
    15    15    16    1
    16    16    17    1
    17    17    18    1
    18     7    19    1
    19    19    20    2
    20    20    21    1
    21    21    22    2
    22    22     2    1
    23    22     6    1
    24    18    13    1
@<TRIPOS>SUBSTRUCTURE
     1 RES1        1 GROUP             0 ****  ****    0  
@<TRIPOS>MOLECULE
ligand_71
    22    24     1     0     0
SMALL
USER_CHARGES
****
Generated from the CSD

@<TRIPOS>ATOM
     1 O1      22.1620  48.0718  -2.4500   O.2       1 RES1   0.0000
     2 C2      22.9473  47.7109  -1.5836   C.2       1 RES1   0.0000
     3 N3      23.1238  46.4287  -1.2616   N.am      1 RES1   0.0000
     4 C4      24.0554  45.9370  -0.2595   C.3       1 RES1   0.0000
     5 C5      25.3348  46.7413  -0.3327   C.3       1 RES1   0.0000
     6 C6      25.0171  48.2124  -0.2757   C.2       1 RES1   0.0000
     7 C7      25.8857  49.1391   0.4278   C.2       1 RES1   0.0000
     8 O8      26.9043  48.6162   1.2102   O.3       1 RES1   0.0000
     9 C9      26.7797  47.9402   2.4643   C.3       1 RES1   0.0000
    10 C10     28.2883  47.6171   2.7876   C.3       1 RES1   0.0000
    11 C11     28.9629  46.6663   1.8032   C.3       1 RES1   0.0000
    12 C12     30.4729  46.3967   2.2020   C.3       1 RES1   0.0000
    13 N13     31.1883  45.4423   1.2336   N.3       1 RES1   1.0000
    14 C14     30.6074  44.0665   1.2983   C.3       1 RES1   0.0000
    15 C15     31.2655  43.1619   0.2892   C.3       1 RES1   0.0000
    16 C16     32.7698  43.1180   0.4721   C.3       1 RES1   0.0000
    17 C17     33.3420  44.5206   0.4726   C.3       1 RES1   0.0000
    18 C18     32.6615  45.3959   1.4922   C.3       1 RES1   0.0000
    19 C19     25.4978  50.5016   0.5000   C.2       1 RES1   0.0000
    20 C20     24.2748  50.9683  -0.1057   C.2       1 RES1   0.0000
    21 C21     23.4451  50.0509  -0.7850   C.2       1 RES1   0.0000
    22 C22     23.8265  48.6922  -0.8599   C.2       1 RES1   0.0000
@<TRIPOS>BOND
     1     1     2    2
     2     2     3   am
     3     3     4    1
     4     4     5    1
     5     5     6    1
     6     6     7    2
     7     7     8    1
     8     8     9    1
     9     9    10    1
    10    10    11    1
    11    11    12    1
    12    12    13    1
    13    13    14    1
    14    14    15    1
    15    15    16    1
    16    16    17    1
    17    17    18    1
    18     7    19    1
    19    19    20    2
    20    20    21    1
    21    21    22    2
    22    22     2    1
    23    22     6    1
    24    18    13    1
@<TRIPOS>SUBSTRUCTURE
     1 RES1        1 GROUP             0 ****  ****    0  
@<TRIPOS>MOLECULE
ligand_72
    22    24     1     0     0
SMALL
USER_CHARGES
****
Generated from the CSD

@<TRIPOS>ATOM
     1 O1      22.1620  48.0718  -2.4500   O.2       1 RES1   0.0000
     2 C2      22.9473  47.7109  -1.5836   C.2       1 RES1   0.0000
     3 N3      23.1238  46.4287  -1.2616   N.am      1 RES1   0.0000
     4 C4      24.0554  45.9370  -0.2595   C.3       1 RES1   0.0000
     5 C5      25.3348  46.7413  -0.3327   C.3       1 RES1   0.0000
     6 C6      25.0171  48.2124  -0.2757   C.2       1 RES1   0.0000
     7 C7      25.8857  49.1391   0.4278   C.2       1 RES1   0.0000
     8 O8      26.9043  48.6162   1.2102   O.3       1 RES1   0.0000
     9 C9      26.7797  47.9402   2.4643   C.3       1 RES1   0.0000
    10 C10     28.2883  47.6171   2.7876   C.3       1 RES1   0.0000
    11 C11     29.1732  48.8424   2.9971   C.3       1 RES1   0.0000
    12 C12     30.6691  48.4277   3.3163   C.3       1 RES1   0.0000
    13 N13     31.5934  49.6354   3.5341   N.3       1 RES1   1.0000
    14 C14     31.7598  50.4261   2.2765   C.3       1 RES1   0.0000
    15 C15     32.6044  51.6489   2.5234   C.3       1 RES1   0.0000
    16 C16     33.9538  51.2890   3.1130   C.3       1 RES1   0.0000
    17 C17     33.7773  50.4314   4.3491   C.3       1 RES1   0.0000
    18 C18     32.9289  49.2195   4.0656   C.3       1 RES1   0.0000
    19 C19     25.4978  50.5016   0.5000   C.2       1 RES1   0.0000
    20 C20     24.2748  50.9683  -0.1057   C.2       1 RES1   0.0000
    21 C21     23.4451  50.0509  -0.7850   C.2       1 RES1   0.0000
    22 C22     23.8265  48.6922  -0.8599   C.2       1 RES1   0.0000
@<TRIPOS>BOND
     1     1     2    2
     2     2     3   am
     3     3     4    1
     4     4     5    1
     5     5     6    1
     6     6     7    2
     7     7     8    1
     8     8     9    1
     9     9    10    1
    10    10    11    1
    11    11    12    1
    12    12    13    1
    13    13    14    1
    14    14    15    1
    15    15    16    1
    16    16    17    1
    17    17    18    1
    18     7    19    1
    19    19    20    2
    20    20    21    1
    21    21    22    2
    22    22     2    1
    23    22     6    1
    24    18    13    1
@<TRIPOS>SUBSTRUCTURE
     1 RES1        1 GROUP             0 ****  ****    0  
@<TRIPOS>MOLECULE
ligand_73
    22    24     1     0     0
SMALL
USER_CHARGES
****
Generated from the CSD

@<TRIPOS>ATOM
     1 O1      22.0963  48.0898  -2.3660   O.2       1 RES1   0.0000
     2 C2      22.8864  47.7327  -1.5024   C.2       1 RES1   0.0000
     3 N3      23.0388  46.4551  -1.1509   N.am      1 RES1   0.0000
     4 C4      23.9741  45.9672  -0.1504   C.3       1 RES1   0.0000
     5 C5      25.2700  46.7401  -0.2623   C.3       1 RES1   0.0000
     6 C6      24.9863  48.2190  -0.2376   C.2       1 RES1   0.0000
     7 C7      25.8861  49.1427   0.4298   C.2       1 RES1   0.0000
     8 O8      26.9043  48.6162   1.2102   O.3       1 RES1   0.0000
     9 C9      28.0676  47.9131   0.7656   C.3       1 RES1   0.0000
    10 C10     28.7813  47.6067   2.1372   C.3       1 RES1   0.0000
    11 C11     29.2409  48.8410   2.9078   C.3       1 RES1   0.0000
    12 C12     29.9459  48.4429   4.2702   C.3       1 RES1   0.0000
    13 N13     30.4238  49.6601   5.0767   N.3       1 RES1   1.0000
    14 C14     31.5221  50.3846   4.3675   C.3       1 RES1   0.0000
    15 C15     31.9271  51.6184   5.1314   C.3       1 RES1   0.0000
    16 C16     32.3334  51.2890   6.5543   C.3       1 RES1   0.0000
    17 C17     31.2423  50.4965   7.2441   C.3       1 RES1   0.0000
    18 C18     30.8633  49.2718   6.4535   C.3       1 RES1   0.0000
    19 C19     25.5300  50.5151   0.4734   C.2       1 RES1   0.0000
    20 C20     24.3088  50.9944  -0.1260   C.2       1 RES1   0.0000
    21 C21     23.4485  50.0797  -0.7700   C.2       1 RES1   0.0000
    22 C22     23.7981  48.7113  -0.8163   C.2       1 RES1   0.0000
@<TRIPOS>BOND
     1     1     2    2
     2     2     3   am
     3     3     4    1
     4     4     5    1
     5     5     6    1
     6     6     7    2
     7     7     8    1
     8     8     9    1
     9     9    10    1
    10    10    11    1
    11    11    12    1
    12    12    13    1
    13    13    14    1
    14    14    15    1
    15    15    16    1
    16    16    17    1
    17    17    18    1
    18     7    19    1
    19    19    20    2
    20    20    21    1
    21    21    22    2
    22    22     2    1
    23    22     6    1
    24    18    13    1
@<TRIPOS>SUBSTRUCTURE
     1 RES1        1 GROUP             0 ****  ****    0  
@<TRIPOS>MOLECULE
ligand_74
    22    24     1     0     0
SMALL
USER_CHARGES
****
Generated from the CSD

@<TRIPOS>ATOM
     1 O1      22.0963  48.0898  -2.3660   O.2       1 RES1   0.0000
     2 C2      22.8864  47.7327  -1.5024   C.2       1 RES1   0.0000
     3 N3      23.0388  46.4551  -1.1509   N.am      1 RES1   0.0000
     4 C4      23.9741  45.9672  -0.1504   C.3       1 RES1   0.0000
     5 C5      25.2700  46.7401  -0.2623   C.3       1 RES1   0.0000
     6 C6      24.9863  48.2190  -0.2376   C.2       1 RES1   0.0000
     7 C7      25.8861  49.1427   0.4298   C.2       1 RES1   0.0000
     8 O8      26.9043  48.6162   1.2102   O.3       1 RES1   0.0000
     9 C9      28.0676  47.9131   0.7656   C.3       1 RES1   0.0000
    10 C10     28.7813  47.6067   2.1372   C.3       1 RES1   0.0000
    11 C11     28.0013  46.6865   3.0716   C.3       1 RES1   0.0000
    12 C12     28.7890  46.4321   4.4231   C.3       1 RES1   0.0000
    13 N13     28.0353  45.5087   5.3924   N.3       1 RES1   1.0000
    14 C14     26.7802  46.1506   5.8893   C.3       1 RES1   0.0000
    15 C15     26.0129  45.2052   6.7765   C.3       1 RES1   0.0000
    16 C16     26.8578  44.7123   7.9346   C.3       1 RES1   0.0000
    17 C17     28.1578  44.1241   7.4259   C.3       1 RES1   0.0000
    18 C18     28.8973  45.0956   6.5437   C.3       1 RES1   0.0000
    19 C19     25.5300  50.5151   0.4734   C.2       1 RES1   0.0000
    20 C20     24.3088  50.9944  -0.1260   C.2       1 RES1   0.0000
    21 C21     23.4485  50.0797  -0.7700   C.2       1 RES1   0.0000
    22 C22     23.7981  48.7113  -0.8163   C.2       1 RES1   0.0000
@<TRIPOS>BOND
     1     1     2    2
     2     2     3   am
     3     3     4    1
     4     4     5    1
     5     5     6    1
     6     6     7    2
     7     7     8    1
     8     8     9    1
     9     9    10    1
    10    10    11    1
    11    11    12    1
    12    12    13    1
    13    13    14    1
    14    14    15    1
    15    15    16    1
    16    16    17    1
    17    17    18    1
    18     7    19    1
    19    19    20    2
    20    20    21    1
    21    21    22    2
    22    22     2    1
    23    22     6    1
    24    18    13    1
@<TRIPOS>SUBSTRUCTURE
     1 RES1        1 GROUP             0 ****  ****    0  
@<TRIPOS>MOLECULE
ligand_75
    22    24     1     0     0
SMALL
USER_CHARGES
****
Generated from the CSD

@<TRIPOS>ATOM
     1 O1      22.0963  48.0898  -2.3660   O.2       1 RES1   0.0000
     2 C2      22.8864  47.7327  -1.5024   C.2       1 RES1   0.0000
     3 N3      23.0388  46.4551  -1.1509   N.am      1 RES1   0.0000
     4 C4      23.9741  45.9672  -0.1504   C.3       1 RES1   0.0000
     5 C5      25.2700  46.7401  -0.2623   C.3       1 RES1   0.0000
     6 C6      24.9863  48.2190  -0.2376   C.2       1 RES1   0.0000
     7 C7      25.8861  49.1427   0.4298   C.2       1 RES1   0.0000
     8 O8      26.9043  48.6162   1.2102   O.3       1 RES1   0.0000
     9 C9      27.0927  48.7748   2.6190   C.3       1 RES1   0.0000
    10 C10     28.4081  47.9366   2.8468   C.3       1 RES1   0.0000
    11 C11     28.2742  46.4453   2.5528   C.3       1 RES1   0.0000
    12 C12     29.6389  45.6808   2.8072   C.3       1 RES1   0.0000
    13 N13     29.5452  44.1741   2.5220   N.3       1 RES1   1.0000
    14 C14     30.7580  43.4516   3.0131   C.3       1 RES1   0.0000
    15 C15     30.6182  41.9672   2.7971   C.3       1 RES1   0.0000
    16 C16     30.3483  41.6349   1.3429   C.3       1 RES1   0.0000
    17 C17     29.1584  42.4223   0.8342   C.3       1 RES1   0.0000
    18 C18     29.3325  43.9003   1.0663   C.3       1 RES1   0.0000
    19 C19     25.5300  50.5151   0.4734   C.2       1 RES1   0.0000
    20 C20     24.3088  50.9944  -0.1260   C.2       1 RES1   0.0000
    21 C21     23.4485  50.0797  -0.7700   C.2       1 RES1   0.0000
    22 C22     23.7981  48.7113  -0.8163   C.2       1 RES1   0.0000
@<TRIPOS>BOND
     1     1     2    2
     2     2     3   am
     3     3     4    1
     4     4     5    1
     5     5     6    1
     6     6     7    2
     7     7     8    1
     8     8     9    1
     9     9    10    1
    10    10    11    1
    11    11    12    1
    12    12    13    1
    13    13    14    1
    14    14    15    1
    15    15    16    1
    16    16    17    1
    17    17    18    1
    18     7    19    1
    19    19    20    2
    20    20    21    1
    21    21    22    2
    22    22     2    1
    23    22     6    1
    24    18    13    1
@<TRIPOS>SUBSTRUCTURE
     1 RES1        1 GROUP             0 ****  ****    0  
@<TRIPOS>MOLECULE
ligand_76
    22    24     1     0     0
SMALL
USER_CHARGES
****
Generated from the CSD

@<TRIPOS>ATOM
     1 O1      22.0963  48.0898  -2.3660   O.2       1 RES1   0.0000
     2 C2      22.8864  47.7327  -1.5024   C.2       1 RES1   0.0000
     3 N3      23.0388  46.4551  -1.1509   N.am      1 RES1   0.0000
     4 C4      23.9741  45.9672  -0.1504   C.3       1 RES1   0.0000
     5 C5      25.2700  46.7401  -0.2623   C.3       1 RES1   0.0000
     6 C6      24.9863  48.2190  -0.2376   C.2       1 RES1   0.0000
     7 C7      25.8861  49.1427   0.4298   C.2       1 RES1   0.0000
     8 O8      26.9043  48.6162   1.2102   O.3       1 RES1   0.0000
     9 C9      27.0927  48.7748   2.6190   C.3       1 RES1   0.0000
    10 C10     28.4081  47.9366   2.8468   C.3       1 RES1   0.0000
    11 C11     29.6447  48.4841   2.1401   C.3       1 RES1   0.0000
    12 C12     30.9181  47.5836   2.4220   C.3       1 RES1   0.0000
    13 N13     32.1860  48.1025   1.7266   N.3       1 RES1   1.0000
    14 C14     33.2940  47.1019   1.7998   C.3       1 RES1   0.0000
    15 C15     34.5045  47.5909   1.0478   C.3       1 RES1   0.0000
    16 C16     34.9691  48.9432   1.5511   C.3       1 RES1   0.0000
    17 C17     33.8227  49.9334   1.5368   C.3       1 RES1   0.0000
    18 C18     32.6315  49.4122   2.2971   C.3       1 RES1   0.0000
    19 C19     25.5300  50.5151   0.4734   C.2       1 RES1   0.0000
    20 C20     24.3088  50.9944  -0.1260   C.2       1 RES1   0.0000
    21 C21     23.4485  50.0797  -0.7700   C.2       1 RES1   0.0000
    22 C22     23.7981  48.7113  -0.8163   C.2       1 RES1   0.0000
@<TRIPOS>BOND
     1     1     2    2
     2     2     3   am
     3     3     4    1
     4     4     5    1
     5     5     6    1
     6     6     7    2
     7     7     8    1
     8     8     9    1
     9     9    10    1
    10    10    11    1
    11    11    12    1
    12    12    13    1
    13    13    14    1
    14    14    15    1
    15    15    16    1
    16    16    17    1
    17    17    18    1
    18     7    19    1
    19    19    20    2
    20    20    21    1
    21    21    22    2
    22    22     2    1
    23    22     6    1
    24    18    13    1
@<TRIPOS>SUBSTRUCTURE
     1 RES1        1 GROUP             0 ****  ****    0  
@<TRIPOS>MOLECULE
ligand_77
    22    24     1     0     0
SMALL
USER_CHARGES
****
Generated from the CSD

@<TRIPOS>ATOM
     1 O1      22.0963  48.0898  -2.3660   O.2       1 RES1   0.0000
     2 C2      22.8864  47.7327  -1.5024   C.2       1 RES1   0.0000
     3 N3      23.0388  46.4551  -1.1509   N.am      1 RES1   0.0000
     4 C4      23.9741  45.9672  -0.1504   C.3       1 RES1   0.0000
     5 C5      25.2700  46.7401  -0.2623   C.3       1 RES1   0.0000
     6 C6      24.9863  48.2190  -0.2376   C.2       1 RES1   0.0000
     7 C7      25.8861  49.1427   0.4298   C.2       1 RES1   0.0000
     8 O8      26.9043  48.6162   1.2102   O.3       1 RES1   0.0000
     9 C9      27.0927  48.7748   2.6190   C.3       1 RES1   0.0000
    10 C10     28.4081  47.9366   2.8468   C.3       1 RES1   0.0000
    11 C11     28.2742  46.4453   2.5528   C.3       1 RES1   0.0000
    12 C12     29.6389  45.6808   2.8072   C.3       1 RES1   0.0000
    13 N13     29.5452  44.1741   2.5220   N.3       1 RES1   1.0000
    14 C14     28.6316  43.4937   3.4899   C.3       1 RES1   0.0000
    15 C15     28.4884  42.0328   3.1510   C.3       1 RES1   0.0000
    16 C16     29.8328  41.3342   3.1007   C.3       1 RES1   0.0000
    17 C17     30.7743  42.0690   2.1689   C.3       1 RES1   0.0000
    18 C18     30.8932  43.5247   2.5370   C.3       1 RES1   0.0000
    19 C19     25.5300  50.5151   0.4734   C.2       1 RES1   0.0000
    20 C20     24.3088  50.9944  -0.1260   C.2       1 RES1   0.0000
    21 C21     23.4485  50.0797  -0.7700   C.2       1 RES1   0.0000
    22 C22     23.7981  48.7113  -0.8163   C.2       1 RES1   0.0000
@<TRIPOS>BOND
     1     1     2    2
     2     2     3   am
     3     3     4    1
     4     4     5    1
     5     5     6    1
     6     6     7    2
     7     7     8    1
     8     8     9    1
     9     9    10    1
    10    10    11    1
    11    11    12    1
    12    12    13    1
    13    13    14    1
    14    14    15    1
    15    15    16    1
    16    16    17    1
    17    17    18    1
    18     7    19    1
    19    19    20    2
    20    20    21    1
    21    21    22    2
    22    22     2    1
    23    22     6    1
    24    18    13    1
@<TRIPOS>SUBSTRUCTURE
     1 RES1        1 GROUP             0 ****  ****    0  
@<TRIPOS>MOLECULE
ligand_78
    22    24     1     0     0
SMALL
USER_CHARGES
****
Generated from the CSD

@<TRIPOS>ATOM
     1 O1      22.0963  48.0898  -2.3660   O.2       1 RES1   0.0000
     2 C2      22.8864  47.7327  -1.5024   C.2       1 RES1   0.0000
     3 N3      23.0388  46.4551  -1.1509   N.am      1 RES1   0.0000
     4 C4      23.9741  45.9672  -0.1504   C.3       1 RES1   0.0000
     5 C5      25.2700  46.7401  -0.2623   C.3       1 RES1   0.0000
     6 C6      24.9863  48.2190  -0.2376   C.2       1 RES1   0.0000
     7 C7      25.8861  49.1427   0.4298   C.2       1 RES1   0.0000
     8 O8      26.9043  48.6162   1.2102   O.3       1 RES1   0.0000
     9 C9      27.0927  48.7748   2.6190   C.3       1 RES1   0.0000
    10 C10     28.4081  47.9366   2.8468   C.3       1 RES1   0.0000
    11 C11     29.6447  48.4841   2.1401   C.3       1 RES1   0.0000
    12 C12     30.9181  47.5836   2.4220   C.3       1 RES1   0.0000
    13 N13     32.1860  48.1025   1.7266   N.3       1 RES1   1.0000
    14 C14     32.0689  48.0049   0.2397   C.3       1 RES1   0.0000
    15 C15     33.2856  48.5882  -0.4304   C.3       1 RES1   0.0000
    16 C16     34.5622  47.9278   0.0514   C.3       1 RES1   0.0000
    17 C17     34.6402  47.9717   1.5636   C.3       1 RES1   0.0000
    18 C18     33.4089  47.3810   2.1989   C.3       1 RES1   0.0000
    19 C19     25.5300  50.5151   0.4734   C.2       1 RES1   0.0000
    20 C20     24.3088  50.9944  -0.1260   C.2       1 RES1   0.0000
    21 C21     23.4485  50.0797  -0.7700   C.2       1 RES1   0.0000
    22 C22     23.7981  48.7113  -0.8163   C.2       1 RES1   0.0000
@<TRIPOS>BOND
     1     1     2    2
     2     2     3   am
     3     3     4    1
     4     4     5    1
     5     5     6    1
     6     6     7    2
     7     7     8    1
     8     8     9    1
     9     9    10    1
    10    10    11    1
    11    11    12    1
    12    12    13    1
    13    13    14    1
    14    14    15    1
    15    15    16    1
    16    16    17    1
    17    17    18    1
    18     7    19    1
    19    19    20    2
    20    20    21    1
    21    21    22    2
    22    22     2    1
    23    22     6    1
    24    18    13    1
@<TRIPOS>SUBSTRUCTURE
     1 RES1        1 GROUP             0 ****  ****    0  
@<TRIPOS>MOLECULE
ligand_79
    22    24     1     0     0
SMALL
USER_CHARGES
****
Generated from the CSD

@<TRIPOS>ATOM
     1 O1      22.0963  48.0898  -2.3660   O.2       1 RES1   0.0000
     2 C2      22.8864  47.7327  -1.5024   C.2       1 RES1   0.0000
     3 N3      23.0388  46.4551  -1.1509   N.am      1 RES1   0.0000
     4 C4      23.9741  45.9672  -0.1504   C.3       1 RES1   0.0000
     5 C5      25.2700  46.7401  -0.2623   C.3       1 RES1   0.0000
     6 C6      24.9863  48.2190  -0.2376   C.2       1 RES1   0.0000
     7 C7      25.8861  49.1427   0.4298   C.2       1 RES1   0.0000
     8 O8      26.9043  48.6162   1.2102   O.3       1 RES1   0.0000
     9 C9      27.8951  49.3349   1.9499   C.3       1 RES1   0.0000
    10 C10     28.7153  48.1510   2.5906   C.3       1 RES1   0.0000
    11 C11     29.8841  48.5861   3.4698   C.3       1 RES1   0.0000
    12 C12     30.7674  47.3470   3.9126   C.3       1 RES1   0.0000
    13 N13     29.9921  46.3317   4.7662   N.3       1 RES1   1.0000
    14 C14     29.2509  45.3558   3.9103   C.3       1 RES1   0.0000
    15 C15     28.5593  44.3206   4.7586   C.3       1 RES1   0.0000
    16 C16     27.6307  44.9567   5.7740   C.3       1 RES1   0.0000
    17 C17     28.3739  45.9926   6.5920   C.3       1 RES1   0.0000
    18 C18     29.0521  47.0101   5.7124   C.3       1 RES1   0.0000
    19 C19     25.5300  50.5151   0.4734   C.2       1 RES1   0.0000
    20 C20     24.3088  50.9944  -0.1260   C.2       1 RES1   0.0000
    21 C21     23.4485  50.0797  -0.7700   C.2       1 RES1   0.0000
    22 C22     23.7981  48.7113  -0.8163   C.2       1 RES1   0.0000
@<TRIPOS>BOND
     1     1     2    2
     2     2     3   am
     3     3     4    1
     4     4     5    1
     5     5     6    1
     6     6     7    2
     7     7     8    1
     8     8     9    1
     9     9    10    1
    10    10    11    1
    11    11    12    1
    12    12    13    1
    13    13    14    1
    14    14    15    1
    15    15    16    1
    16    16    17    1
    17    17    18    1
    18     7    19    1
    19    19    20    2
    20    20    21    1
    21    21    22    2
    22    22     2    1
    23    22     6    1
    24    18    13    1
@<TRIPOS>SUBSTRUCTURE
     1 RES1        1 GROUP             0 ****  ****    0  
@<TRIPOS>MOLECULE
ligand_80
    22    24     1     0     0
SMALL
USER_CHARGES
****
Generated from the CSD

@<TRIPOS>ATOM
     1 O1      21.6929  47.9867  -1.6618   O.2       1 RES1   0.0000
     2 C2      22.8837  47.7396  -1.5071   C.2       1 RES1   0.0000
     3 N3      23.4028  46.5457  -1.7926   N.am      1 RES1   0.0000
     4 C4      24.7852  46.1555  -1.5732   C.3       1 RES1   0.0000
     5 C5      25.2666  46.7392  -0.2629   C.3       1 RES1   0.0000
     6 C6      24.9897  48.2199  -0.2430   C.2       1 RES1   0.0000
     7 C7      25.8837  49.1405   0.4350   C.2       1 RES1   0.0000
     8 O8      26.9094  48.6250   1.2120   O.3       1 RES1   0.0000
     9 C9      27.8897  49.3542   1.9554   C.3       1 RES1   0.0000
    10 C10     28.7274  48.1791   2.5895   C.3       1 RES1   0.0000
    11 C11     29.9592  47.7681   1.7883   C.3       1 RES1   0.0000
    12 C12     30.7405  46.5843   2.4953   C.3       1 RES1   0.0000
    13 N13     31.9894  46.1408   1.7182   N.3       1 RES1   1.0000
    14 C14     32.5494  44.8693   2.2696   C.3       1 RES1   0.0000
    15 C15     33.7258  44.4055   1.4506   C.3       1 RES1   0.0000
    16 C16     34.8010  45.4703   1.3603   C.3       1 RES1   0.0000
    17 C17     34.2112  46.7745   0.8645   C.3       1 RES1   0.0000
    18 C18     33.0391  47.2072   1.7056   C.3       1 RES1   0.0000
    19 C19     25.5266  50.5129   0.4830   C.2       1 RES1   0.0000
    20 C20     24.3093  50.9932  -0.1232   C.2       1 RES1   0.0000
    21 C21     23.4544  50.0812  -0.7780   C.2       1 RES1   0.0000
    22 C22     23.8055  48.7132  -0.8282   C.2       1 RES1   0.0000
@<TRIPOS>BOND
     1     1     2    2
     2     2     3   am
     3     3     4    1
     4     4     5    1
     5     5     6    1
     6     6     7    2
     7     7     8    1
     8     8     9    1
     9     9    10    1
    10    10    11    1
    11    11    12    1
    12    12    13    1
    13    13    14    1
    14    14    15    1
    15    15    16    1
    16    16    17    1
    17    17    18    1
    18     7    19    1
    19    19    20    2
    20    20    21    1
    21    21    22    2
    22    22     2    1
    23    22     6    1
    24    18    13    1
@<TRIPOS>SUBSTRUCTURE
     1 RES1        1 GROUP             0 ****  ****    0  
@<TRIPOS>MOLECULE
ligand_81
    22    24     1     0     0
SMALL
USER_CHARGES
****
Generated from the CSD

@<TRIPOS>ATOM
     1 O1      21.6929  47.9867  -1.6618   O.2       1 RES1   0.0000
     2 C2      22.8837  47.7396  -1.5071   C.2       1 RES1   0.0000
     3 N3      23.4028  46.5457  -1.7926   N.am      1 RES1   0.0000
     4 C4      24.7852  46.1555  -1.5732   C.3       1 RES1   0.0000
     5 C5      25.2666  46.7392  -0.2629   C.3       1 RES1   0.0000
     6 C6      24.9897  48.2199  -0.2430   C.2       1 RES1   0.0000
     7 C7      25.8837  49.1405   0.4350   C.2       1 RES1   0.0000
     8 O8      26.9094  48.6250   1.2120   O.3       1 RES1   0.0000
     9 C9      27.8897  49.3542   1.9554   C.3       1 RES1   0.0000
    10 C10     28.7274  48.1791   2.5895   C.3       1 RES1   0.0000
    11 C11     29.9592  47.7681   1.7883   C.3       1 RES1   0.0000
    12 C12     30.7405  46.5843   2.4953   C.3       1 RES1   0.0000
    13 N13     31.9894  46.1408   1.7182   N.3       1 RES1   1.0000
    14 C14     31.6227  45.5219   0.4079   C.3       1 RES1   0.0000
    15 C15     32.8579  45.1631  -0.3765   C.3       1 RES1   0.0000
    16 C16     33.7760  44.2486   0.4102   C.3       1 RES1   0.0000
    17 C17     34.0884  44.8526   1.7638   C.3       1 RES1   0.0000
    18 C18     32.8319  45.1984   2.5190   C.3       1 RES1   0.0000
    19 C19     25.5266  50.5129   0.4830   C.2       1 RES1   0.0000
    20 C20     24.3093  50.9932  -0.1232   C.2       1 RES1   0.0000
    21 C21     23.4544  50.0812  -0.7780   C.2       1 RES1   0.0000
    22 C22     23.8055  48.7132  -0.8282   C.2       1 RES1   0.0000
@<TRIPOS>BOND
     1     1     2    2
     2     2     3   am
     3     3     4    1
     4     4     5    1
     5     5     6    1
     6     6     7    2
     7     7     8    1
     8     8     9    1
     9     9    10    1
    10    10    11    1
    11    11    12    1
    12    12    13    1
    13    13    14    1
    14    14    15    1
    15    15    16    1
    16    16    17    1
    17    17    18    1
    18     7    19    1
    19    19    20    2
    20    20    21    1
    21    21    22    2
    22    22     2    1
    23    22     6    1
    24    18    13    1
@<TRIPOS>SUBSTRUCTURE
     1 RES1        1 GROUP             0 ****  ****    0  
@<TRIPOS>MOLECULE
ligand_82
    22    24     1     0     0
SMALL
USER_CHARGES
****
Generated from the CSD

@<TRIPOS>ATOM
     1 O1      22.0963  48.0898  -2.3660   O.2       1 RES1   0.0000
     2 C2      22.8864  47.7327  -1.5024   C.2       1 RES1   0.0000
     3 N3      23.0388  46.4551  -1.1509   N.am      1 RES1   0.0000
     4 C4      23.9741  45.9672  -0.1504   C.3       1 RES1   0.0000
     5 C5      25.2700  46.7401  -0.2623   C.3       1 RES1   0.0000
     6 C6      24.9863  48.2190  -0.2376   C.2       1 RES1   0.0000
     7 C7      25.8861  49.1427   0.4298   C.2       1 RES1   0.0000
     8 O8      26.9043  48.6162   1.2102   O.3       1 RES1   0.0000
     9 C9      27.8951  49.3349   1.9499   C.3       1 RES1   0.0000
    10 C10     28.7153  48.1510   2.5906   C.3       1 RES1   0.0000
    11 C11     29.8841  48.5861   3.4698   C.3       1 RES1   0.0000
    12 C12     29.3799  49.3240   4.7787   C.3       1 RES1   0.0000
    13 N13     28.5197  48.4257   5.6806   N.3       1 RES1   1.0000
    14 C14     27.8574  49.2166   6.7623   C.3       1 RES1   0.0000
    15 C15     26.9570  48.3374   7.5905   C.3       1 RES1   0.0000
    16 C16     27.7075  47.1560   8.1728   C.3       1 RES1   0.0000
    17 C17     28.4307  46.3992   7.0779   C.3       1 RES1   0.0000
    18 C18     29.3206  47.3082   6.2714   C.3       1 RES1   0.0000
    19 C19     25.5300  50.5151   0.4734   C.2       1 RES1   0.0000
    20 C20     24.3088  50.9944  -0.1260   C.2       1 RES1   0.0000
    21 C21     23.4485  50.0797  -0.7700   C.2       1 RES1   0.0000
    22 C22     23.7981  48.7113  -0.8163   C.2       1 RES1   0.0000
@<TRIPOS>BOND
     1     1     2    2
     2     2     3   am
     3     3     4    1
     4     4     5    1
     5     5     6    1
     6     6     7    2
     7     7     8    1
     8     8     9    1
     9     9    10    1
    10    10    11    1
    11    11    12    1
    12    12    13    1
    13    13    14    1
    14    14    15    1
    15    15    16    1
    16    16    17    1
    17    17    18    1
    18     7    19    1
    19    19    20    2
    20    20    21    1
    21    21    22    2
    22    22     2    1
    23    22     6    1
    24    18    13    1
@<TRIPOS>SUBSTRUCTURE
     1 RES1        1 GROUP             0 ****  ****    0  
@<TRIPOS>MOLECULE
ligand_83
    22    24     1     0     0
SMALL
USER_CHARGES
****
Generated from the CSD

@<TRIPOS>ATOM
     1 O1      22.0963  48.0898  -2.3660   O.2       1 RES1   0.0000
     2 C2      22.8864  47.7327  -1.5024   C.2       1 RES1   0.0000
     3 N3      23.0388  46.4551  -1.1509   N.am      1 RES1   0.0000
     4 C4      23.9741  45.9672  -0.1504   C.3       1 RES1   0.0000
     5 C5      25.2700  46.7401  -0.2623   C.3       1 RES1   0.0000
     6 C6      24.9863  48.2190  -0.2376   C.2       1 RES1   0.0000
     7 C7      25.8861  49.1427   0.4298   C.2       1 RES1   0.0000
     8 O8      26.9043  48.6162   1.2102   O.3       1 RES1   0.0000
     9 C9      27.8951  49.3349   1.9499   C.3       1 RES1   0.0000
    10 C10     28.7153  48.1510   2.5906   C.3       1 RES1   0.0000
    11 C11     29.8836  48.5861   3.4704   C.3       1 RES1   0.0000
    12 C12     31.1792  48.8818   2.6067   C.3       1 RES1   0.0000
    13 N13     30.9681  49.9957   1.5699   N.3       1 RES1   1.0000
    14 C14     32.1842  50.1861   0.7217   C.3       1 RES1   0.0000
    15 C15     31.9364  51.2261  -0.3397   C.3       1 RES1   0.0000
    16 C16     31.4893  52.5445   0.2604   C.3       1 RES1   0.0000
    17 C17     30.2979  52.3322   1.1714   C.3       1 RES1   0.0000
    18 C18     30.5811  51.2874   2.2188   C.3       1 RES1   0.0000
    19 C19     25.5300  50.5151   0.4734   C.2       1 RES1   0.0000
    20 C20     24.3088  50.9944  -0.1260   C.2       1 RES1   0.0000
    21 C21     23.4485  50.0797  -0.7700   C.2       1 RES1   0.0000
    22 C22     23.7981  48.7113  -0.8163   C.2       1 RES1   0.0000
@<TRIPOS>BOND
     1     1     2    2
     2     2     3   am
     3     3     4    1
     4     4     5    1
     5     5     6    1
     6     6     7    2
     7     7     8    1
     8     8     9    1
     9     9    10    1
    10    10    11    1
    11    11    12    1
    12    12    13    1
    13    13    14    1
    14    14    15    1
    15    15    16    1
    16    16    17    1
    17    17    18    1
    18     7    19    1
    19    19    20    2
    20    20    21    1
    21    21    22    2
    22    22     2    1
    23    22     6    1
    24    18    13    1
@<TRIPOS>SUBSTRUCTURE
     1 RES1        1 GROUP             0 ****  ****    0  
@<TRIPOS>MOLECULE
ligand_84
    22    24     1     0     0
SMALL
USER_CHARGES
****
Generated from the CSD

@<TRIPOS>ATOM
     1 O1      22.0963  48.0898  -2.3660   O.2       1 RES1   0.0000
     2 C2      22.8864  47.7327  -1.5024   C.2       1 RES1   0.0000
     3 N3      23.0388  46.4551  -1.1509   N.am      1 RES1   0.0000
     4 C4      23.9741  45.9672  -0.1504   C.3       1 RES1   0.0000
     5 C5      25.2700  46.7401  -0.2623   C.3       1 RES1   0.0000
     6 C6      24.9863  48.2190  -0.2376   C.2       1 RES1   0.0000
     7 C7      25.8861  49.1427   0.4298   C.2       1 RES1   0.0000
     8 O8      26.9043  48.6162   1.2102   O.3       1 RES1   0.0000
     9 C9      27.8951  49.3349   1.9499   C.3       1 RES1   0.0000
    10 C10     28.7153  48.1510   2.5906   C.3       1 RES1   0.0000
    11 C11     29.8841  48.5861   3.4698   C.3       1 RES1   0.0000
    12 C12     30.9484  49.4220   2.6450   C.3       1 RES1   0.0000
    13 N13     31.5722  48.6252   1.4890   N.3       1 RES1   1.0000
    14 C14     32.9903  49.0333   1.2507   C.3       1 RES1   0.0000
    15 C15     33.6127  48.1910   0.1678   C.3       1 RES1   0.0000
    16 C16     32.8138  48.2517  -1.1191   C.3       1 RES1   0.0000
    17 C17     31.3635  47.9019  -0.8563   C.3       1 RES1   0.0000
    18 C18     30.7745  48.7627   0.2304   C.3       1 RES1   0.0000
    19 C19     25.5300  50.5151   0.4734   C.2       1 RES1   0.0000
    20 C20     24.3088  50.9944  -0.1260   C.2       1 RES1   0.0000
    21 C21     23.4485  50.0797  -0.7700   C.2       1 RES1   0.0000
    22 C22     23.7981  48.7113  -0.8163   C.2       1 RES1   0.0000
@<TRIPOS>BOND
     1     1     2    2
     2     2     3   am
     3     3     4    1
     4     4     5    1
     5     5     6    1
     6     6     7    2
     7     7     8    1
     8     8     9    1
     9     9    10    1
    10    10    11    1
    11    11    12    1
    12    12    13    1
    13    13    14    1
    14    14    15    1
    15    15    16    1
    16    16    17    1
    17    17    18    1
    18     7    19    1
    19    19    20    2
    20    20    21    1
    21    21    22    2
    22    22     2    1
    23    22     6    1
    24    18    13    1
@<TRIPOS>SUBSTRUCTURE
     1 RES1        1 GROUP             0 ****  ****    0  
@<TRIPOS>MOLECULE
ligand_85
    22    24     1     0     0
SMALL
USER_CHARGES
****
Generated from the CSD

@<TRIPOS>ATOM
     1 O1      21.6929  47.9867  -1.6618   O.2       1 RES1   0.0000
     2 C2      22.8837  47.7396  -1.5071   C.2       1 RES1   0.0000
     3 N3      23.4028  46.5457  -1.7926   N.am      1 RES1   0.0000
     4 C4      24.7852  46.1555  -1.5732   C.3       1 RES1   0.0000
     5 C5      25.2666  46.7392  -0.2629   C.3       1 RES1   0.0000
     6 C6      24.9897  48.2199  -0.2430   C.2       1 RES1   0.0000
     7 C7      25.8837  49.1405   0.4350   C.2       1 RES1   0.0000
     8 O8      26.9094  48.6250   1.2120   O.3       1 RES1   0.0000
     9 C9      27.8897  49.3542   1.9554   C.3       1 RES1   0.0000
    10 C10     29.1960  49.0335   1.1335   C.3       1 RES1   0.0000
    11 C11     30.4672  49.6792   1.6770   C.3       1 RES1   0.0000
    12 C12     31.7289  49.3055   0.7937   C.3       1 RES1   0.0000
    13 N13     33.0309  49.9375   1.3091   N.3       1 RES1   1.0000
    14 C14     34.1404  49.7795   0.3199   C.3       1 RES1   0.0000
    15 C15     35.3885  50.4707   0.8037   C.3       1 RES1   0.0000
    16 C16     35.8131  49.9701   2.1701   C.3       1 RES1   0.0000
    17 C17     34.6622  50.0712   3.1498   C.3       1 RES1   0.0000
    18 C18     33.4329  49.3700   2.6341   C.3       1 RES1   0.0000
    19 C19     25.5266  50.5129   0.4830   C.2       1 RES1   0.0000
    20 C20     24.3093  50.9932  -0.1232   C.2       1 RES1   0.0000
    21 C21     23.4544  50.0812  -0.7780   C.2       1 RES1   0.0000
    22 C22     23.8055  48.7132  -0.8282   C.2       1 RES1   0.0000
@<TRIPOS>BOND
     1     1     2    2
     2     2     3   am
     3     3     4    1
     4     4     5    1
     5     5     6    1
     6     6     7    2
     7     7     8    1
     8     8     9    1
     9     9    10    1
    10    10    11    1
    11    11    12    1
    12    12    13    1
    13    13    14    1
    14    14    15    1
    15    15    16    1
    16    16    17    1
    17    17    18    1
    18     7    19    1
    19    19    20    2
    20    20    21    1
    21    21    22    2
    22    22     2    1
    23    22     6    1
    24    18    13    1
@<TRIPOS>SUBSTRUCTURE
     1 RES1        1 GROUP             0 ****  ****    0  
@<TRIPOS>MOLECULE
ligand_86
    22    24     1     0     0
SMALL
USER_CHARGES
****
Generated from the CSD

@<TRIPOS>ATOM
     1 O1      22.0963  48.0898  -2.3660   O.2       1 RES1   0.0000
     2 C2      22.8864  47.7327  -1.5024   C.2       1 RES1   0.0000
     3 N3      23.0388  46.4551  -1.1509   N.am      1 RES1   0.0000
     4 C4      23.9741  45.9672  -0.1504   C.3       1 RES1   0.0000
     5 C5      25.2700  46.7401  -0.2623   C.3       1 RES1   0.0000
     6 C6      24.9863  48.2190  -0.2376   C.2       1 RES1   0.0000
     7 C7      25.8861  49.1427   0.4298   C.2       1 RES1   0.0000
     8 O8      26.9043  48.6162   1.2102   O.3       1 RES1   0.0000
     9 C9      27.8951  49.3349   1.9499   C.3       1 RES1   0.0000
    10 C10     28.7153  48.1510   2.5906   C.3       1 RES1   0.0000
    11 C11     29.8841  48.5861   3.4698   C.3       1 RES1   0.0000
    12 C12     31.0208  49.2864   2.6158   C.3       1 RES1   0.0000
    13 N13     31.6393  48.3554   1.5617   N.3       1 RES1   1.0000
    14 C14     32.3895  47.2322   2.2020   C.3       1 RES1   0.0000
    15 C15     32.9241  46.2853   1.1592   C.3       1 RES1   0.0000
    16 C16     33.7935  47.0012   0.1444   C.3       1 RES1   0.0000
    17 C17     33.0489  48.1787  -0.4504   C.3       1 RES1   0.0000
    18 C18     32.5295  49.1030   0.6195   C.3       1 RES1   0.0000
    19 C19     25.5300  50.5151   0.4734   C.2       1 RES1   0.0000
    20 C20     24.3088  50.9944  -0.1260   C.2       1 RES1   0.0000
    21 C21     23.4485  50.0797  -0.7700   C.2       1 RES1   0.0000
    22 C22     23.7981  48.7113  -0.8163   C.2       1 RES1   0.0000
@<TRIPOS>BOND
     1     1     2    2
     2     2     3   am
     3     3     4    1
     4     4     5    1
     5     5     6    1
     6     6     7    2
     7     7     8    1
     8     8     9    1
     9     9    10    1
    10    10    11    1
    11    11    12    1
    12    12    13    1
    13    13    14    1
    14    14    15    1
    15    15    16    1
    16    16    17    1
    17    17    18    1
    18     7    19    1
    19    19    20    2
    20    20    21    1
    21    21    22    2
    22    22     2    1
    23    22     6    1
    24    18    13    1
@<TRIPOS>SUBSTRUCTURE
     1 RES1        1 GROUP             0 ****  ****    0  
@<TRIPOS>MOLECULE
ligand_87
    22    24     1     0     0
SMALL
USER_CHARGES
****
Generated from the CSD

@<TRIPOS>ATOM
     1 O1      22.0963  48.0898  -2.3660   O.2       1 RES1   0.0000
     2 C2      22.8864  47.7327  -1.5024   C.2       1 RES1   0.0000
     3 N3      23.0388  46.4551  -1.1509   N.am      1 RES1   0.0000
     4 C4      23.9741  45.9672  -0.1504   C.3       1 RES1   0.0000
     5 C5      25.2700  46.7401  -0.2623   C.3       1 RES1   0.0000
     6 C6      24.9863  48.2190  -0.2376   C.2       1 RES1   0.0000
     7 C7      25.8861  49.1427   0.4298   C.2       1 RES1   0.0000
     8 O8      26.9043  48.6162   1.2102   O.3       1 RES1   0.0000
     9 C9      27.8951  49.3349   1.9499   C.3       1 RES1   0.0000
    10 C10     28.7153  48.1510   2.5906   C.3       1 RES1   0.0000
    11 C11     29.8850  48.5861   3.4685   C.3       1 RES1   0.0000
    12 C12     29.4080  48.9253   4.9413   C.3       1 RES1   0.0000
    13 N13     28.3758  50.0622   4.9911   N.3       1 RES1   1.0000
    14 C14     28.9245  51.3205   4.3996   C.3       1 RES1   0.0000
    15 C15     27.8771  52.4033   4.3841   C.3       1 RES1   0.0000
    16 C16     27.3167  52.6615   5.7688   C.3       1 RES1   0.0000
    17 C17     26.8242  51.3696   6.3877   C.3       1 RES1   0.0000
    18 C18     27.8960  50.3113   6.3864   C.3       1 RES1   0.0000
    19 C19     25.5300  50.5151   0.4734   C.2       1 RES1   0.0000
    20 C20     24.3088  50.9944  -0.1260   C.2       1 RES1   0.0000
    21 C21     23.4485  50.0797  -0.7700   C.2       1 RES1   0.0000
    22 C22     23.7981  48.7113  -0.8163   C.2       1 RES1   0.0000
@<TRIPOS>BOND
     1     1     2    2
     2     2     3   am
     3     3     4    1
     4     4     5    1
     5     5     6    1
     6     6     7    2
     7     7     8    1
     8     8     9    1
     9     9    10    1
    10    10    11    1
    11    11    12    1
    12    12    13    1
    13    13    14    1
    14    14    15    1
    15    15    16    1
    16    16    17    1
    17    17    18    1
    18     7    19    1
    19    19    20    2
    20    20    21    1
    21    21    22    2
    22    22     2    1
    23    22     6    1
    24    18    13    1
@<TRIPOS>SUBSTRUCTURE
     1 RES1        1 GROUP             0 ****  ****    0  
@<TRIPOS>MOLECULE
ligand_88
    22    24     1     0     0
SMALL
USER_CHARGES
****
Generated from the CSD

@<TRIPOS>ATOM
     1 O1      21.6929  47.9867  -1.6618   O.2       1 RES1   0.0000
     2 C2      22.8837  47.7396  -1.5071   C.2       1 RES1   0.0000
     3 N3      23.4028  46.5457  -1.7926   N.am      1 RES1   0.0000
     4 C4      24.7852  46.1555  -1.5732   C.3       1 RES1   0.0000
     5 C5      25.2666  46.7392  -0.2629   C.3       1 RES1   0.0000
     6 C6      24.9897  48.2199  -0.2430   C.2       1 RES1   0.0000
     7 C7      25.8837  49.1405   0.4350   C.2       1 RES1   0.0000
     8 O8      26.9094  48.6250   1.2120   O.3       1 RES1   0.0000
     9 C9      27.8897  49.3542   1.9554   C.3       1 RES1   0.0000
    10 C10     29.1960  49.0335   1.1335   C.3       1 RES1   0.0000
    11 C11     30.4672  49.6792   1.6770   C.3       1 RES1   0.0000
    12 C12     31.7289  49.3055   0.7937   C.3       1 RES1   0.0000
    13 N13     33.0309  49.9375   1.3091   N.3       1 RES1   1.0000
    14 C14     33.0006  51.4263   1.1798   C.3       1 RES1   0.0000
    15 C15     34.2496  52.0374   1.7598   C.3       1 RES1   0.0000
    16 C16     35.5011  51.4690   1.1205   C.3       1 RES1   0.0000
    17 C17     35.4914  49.9561   1.1962   C.3       1 RES1   0.0000
    18 C18     34.2299  49.3804   0.6081   C.3       1 RES1   0.0000
    19 C19     25.5266  50.5129   0.4830   C.2       1 RES1   0.0000
    20 C20     24.3093  50.9932  -0.1232   C.2       1 RES1   0.0000
    21 C21     23.4544  50.0812  -0.7780   C.2       1 RES1   0.0000
    22 C22     23.8055  48.7132  -0.8282   C.2       1 RES1   0.0000
@<TRIPOS>BOND
     1     1     2    2
     2     2     3   am
     3     3     4    1
     4     4     5    1
     5     5     6    1
     6     6     7    2
     7     7     8    1
     8     8     9    1
     9     9    10    1
    10    10    11    1
    11    11    12    1
    12    12    13    1
    13    13    14    1
    14    14    15    1
    15    15    16    1
    16    16    17    1
    17    17    18    1
    18     7    19    1
    19    19    20    2
    20    20    21    1
    21    21    22    2
    22    22     2    1
    23    22     6    1
    24    18    13    1
@<TRIPOS>SUBSTRUCTURE
     1 RES1        1 GROUP             0 ****  ****    0  
@<TRIPOS>MOLECULE
ligand_89
    22    24     1     0     0
SMALL
USER_CHARGES
****
Generated from the CSD

@<TRIPOS>ATOM
     1 O1      21.6929  47.9867  -1.6618   O.2       1 RES1   0.0000
     2 C2      22.8837  47.7396  -1.5071   C.2       1 RES1   0.0000
     3 N3      23.4028  46.5457  -1.7926   N.am      1 RES1   0.0000
     4 C4      24.7852  46.1555  -1.5732   C.3       1 RES1   0.0000
     5 C5      25.2666  46.7392  -0.2629   C.3       1 RES1   0.0000
     6 C6      24.9897  48.2199  -0.2430   C.2       1 RES1   0.0000
     7 C7      25.8837  49.1405   0.4350   C.2       1 RES1   0.0000
     8 O8      26.9094  48.6250   1.2120   O.3       1 RES1   0.0000
     9 C9      27.8897  49.3542   1.9554   C.3       1 RES1   0.0000
    10 C10     28.7274  48.1791   2.5895   C.3       1 RES1   0.0000
    11 C11     27.9538  47.2975   3.5655   C.3       1 RES1   0.0000
    12 C12     28.8669  46.1408   4.1487   C.3       1 RES1   0.0000
    13 N13     28.6986  44.8089   3.4018   N.3       1 RES1   1.0000
    14 C14     29.3831  43.6919   4.1216   C.3       1 RES1   0.0000
    15 C15     29.1445  42.3802   3.4202   C.3       1 RES1   0.0000
    16 C16     29.5828  42.4317   1.9699   C.3       1 RES1   0.0000
    17 C17     28.9364  43.6066   1.2652   C.3       1 RES1   0.0000
    18 C18     29.1954  44.8995   1.9932   C.3       1 RES1   0.0000
    19 C19     25.5266  50.5129   0.4830   C.2       1 RES1   0.0000
    20 C20     24.3093  50.9932  -0.1232   C.2       1 RES1   0.0000
    21 C21     23.4544  50.0812  -0.7780   C.2       1 RES1   0.0000
    22 C22     23.8055  48.7132  -0.8282   C.2       1 RES1   0.0000
@<TRIPOS>BOND
     1     1     2    2
     2     2     3   am
     3     3     4    1
     4     4     5    1
     5     5     6    1
     6     6     7    2
     7     7     8    1
     8     8     9    1
     9     9    10    1
    10    10    11    1
    11    11    12    1
    12    12    13    1
    13    13    14    1
    14    14    15    1
    15    15    16    1
    16    16    17    1
    17    17    18    1
    18     7    19    1
    19    19    20    2
    20    20    21    1
    21    21    22    2
    22    22     2    1
    23    22     6    1
    24    18    13    1
@<TRIPOS>SUBSTRUCTURE
     1 RES1        1 GROUP             0 ****  ****    0  
@<TRIPOS>MOLECULE
ligand_90
    22    24     1     0     0
SMALL
USER_CHARGES
****
Generated from the CSD

@<TRIPOS>ATOM
     1 O1      21.6929  47.9867  -1.6618   O.2       1 RES1   0.0000
     2 C2      22.8837  47.7396  -1.5071   C.2       1 RES1   0.0000
     3 N3      23.4028  46.5457  -1.7926   N.am      1 RES1   0.0000
     4 C4      24.7852  46.1555  -1.5732   C.3       1 RES1   0.0000
     5 C5      25.2666  46.7392  -0.2629   C.3       1 RES1   0.0000
     6 C6      24.9897  48.2199  -0.2430   C.2       1 RES1   0.0000
     7 C7      25.8837  49.1405   0.4350   C.2       1 RES1   0.0000
     8 O8      26.9094  48.6250   1.2120   O.3       1 RES1   0.0000
     9 C9      27.8897  49.3542   1.9554   C.3       1 RES1   0.0000
    10 C10     28.7274  48.1791   2.5895   C.3       1 RES1   0.0000
    11 C11     27.9538  47.2975   3.5655   C.3       1 RES1   0.0000
    12 C12     28.8688  46.1451   4.1540   C.3       1 RES1   0.0000
    13 N13     28.7954  44.8450   3.3388   N.3       1 RES1   1.0000
    14 C14     27.4431  44.2162   3.4393   C.3       1 RES1   0.0000
    15 C15     27.3616  42.9856   2.5740   C.3       1 RES1   0.0000
    16 C16     28.4457  41.9840   2.9197   C.3       1 RES1   0.0000
    17 C17     29.8074  42.6465   2.8810   C.3       1 RES1   0.0000
    18 C18     29.8523  43.8714   3.7564   C.3       1 RES1   0.0000
    19 C19     25.5266  50.5129   0.4830   C.2       1 RES1   0.0000
    20 C20     24.3093  50.9932  -0.1232   C.2       1 RES1   0.0000
    21 C21     23.4544  50.0812  -0.7780   C.2       1 RES1   0.0000
    22 C22     23.8055  48.7132  -0.8282   C.2       1 RES1   0.0000
@<TRIPOS>BOND
     1     1     2    2
     2     2     3   am
     3     3     4    1
     4     4     5    1
     5     5     6    1
     6     6     7    2
     7     7     8    1
     8     8     9    1
     9     9    10    1
    10    10    11    1
    11    11    12    1
    12    12    13    1
    13    13    14    1
    14    14    15    1
    15    15    16    1
    16    16    17    1
    17    17    18    1
    18     7    19    1
    19    19    20    2
    20    20    21    1
    21    21    22    2
    22    22     2    1
    23    22     6    1
    24    18    13    1
@<TRIPOS>SUBSTRUCTURE
     1 RES1        1 GROUP             0 ****  ****    0  
@<TRIPOS>MOLECULE
ligand_91
    22    24     1     0     0
SMALL
USER_CHARGES
****
Generated from the CSD

@<TRIPOS>ATOM
     1 O1      21.6929  47.9867  -1.6618   O.2       1 RES1   0.0000
     2 C2      22.8837  47.7396  -1.5071   C.2       1 RES1   0.0000
     3 N3      23.4028  46.5457  -1.7926   N.am      1 RES1   0.0000
     4 C4      24.7852  46.1555  -1.5732   C.3       1 RES1   0.0000
     5 C5      25.2666  46.7392  -0.2629   C.3       1 RES1   0.0000
     6 C6      24.9897  48.2199  -0.2430   C.2       1 RES1   0.0000
     7 C7      25.8837  49.1405   0.4350   C.2       1 RES1   0.0000
     8 O8      26.9094  48.6250   1.2120   O.3       1 RES1   0.0000
     9 C9      28.1873  49.2134   1.4692   C.3       1 RES1   0.0000
    10 C10     28.8414  48.1252   2.4034   C.3       1 RES1   0.0000
    11 C11     30.2551  48.4538   2.8740   C.3       1 RES1   0.0000
    12 C12     30.8350  47.3103   3.8056   C.3       1 RES1   0.0000
    13 N13     30.9574  45.9568   3.0891   N.3       1 RES1   1.0000
    14 C14     31.2581  44.8561   4.0547   C.3       1 RES1   0.0000
    15 C15     31.2983  43.5250   3.3502   C.3       1 RES1   0.0000
    16 C16     32.2958  43.5244   2.2087   C.3       1 RES1   0.0000
    17 C17     32.0250  44.6830   1.2712   C.3       1 RES1   0.0000
    18 C18     31.9920  45.9959   2.0088   C.3       1 RES1   0.0000
    19 C19     25.5266  50.5129   0.4830   C.2       1 RES1   0.0000
    20 C20     24.3093  50.9932  -0.1232   C.2       1 RES1   0.0000
    21 C21     23.4544  50.0812  -0.7780   C.2       1 RES1   0.0000
    22 C22     23.8055  48.7132  -0.8282   C.2       1 RES1   0.0000
@<TRIPOS>BOND
     1     1     2    2
     2     2     3   am
     3     3     4    1
     4     4     5    1
     5     5     6    1
     6     6     7    2
     7     7     8    1
     8     8     9    1
     9     9    10    1
    10    10    11    1
    11    11    12    1
    12    12    13    1
    13    13    14    1
    14    14    15    1
    15    15    16    1
    16    16    17    1
    17    17    18    1
    18     7    19    1
    19    19    20    2
    20    20    21    1
    21    21    22    2
    22    22     2    1
    23    22     6    1
    24    18    13    1
@<TRIPOS>SUBSTRUCTURE
     1 RES1        1 GROUP             0 ****  ****    0  
@<TRIPOS>MOLECULE
ligand_92
    22    24     1     0     0
SMALL
USER_CHARGES
****
Generated from the CSD

@<TRIPOS>ATOM
     1 O1      22.0963  48.0898  -2.3660   O.2       1 RES1   0.0000
     2 C2      22.8864  47.7327  -1.5024   C.2       1 RES1   0.0000
     3 N3      23.0388  46.4551  -1.1509   N.am      1 RES1   0.0000
     4 C4      23.9741  45.9672  -0.1504   C.3       1 RES1   0.0000
     5 C5      25.2700  46.7401  -0.2623   C.3       1 RES1   0.0000
     6 C6      24.9863  48.2190  -0.2376   C.2       1 RES1   0.0000
     7 C7      25.8861  49.1427   0.4298   C.2       1 RES1   0.0000
     8 O8      26.9043  48.6162   1.2102   O.3       1 RES1   0.0000
     9 C9      27.8951  49.3349   1.9499   C.3       1 RES1   0.0000
    10 C10     28.9337  49.6777   0.8148   C.3       1 RES1   0.0000
    11 C11     30.1532  50.4670   1.2820   C.3       1 RES1   0.0000
    12 C12     31.1424  50.7677   0.0809   C.3       1 RES1   0.0000
    13 N13     30.5059  51.6308  -1.0192   N.3       1 RES1   1.0000
    14 C14     31.3677  51.6780  -2.2397   C.3       1 RES1   0.0000
    15 C15     30.6961  52.4626  -3.3365   C.3       1 RES1   0.0000
    16 C16     30.3319  53.8624  -2.8828   C.3       1 RES1   0.0000
    17 C17     29.5153  53.8078  -1.6081   C.3       1 RES1   0.0000
    18 C18     30.2164  53.0168  -0.5350   C.3       1 RES1   0.0000
    19 C19     25.5300  50.5151   0.4734   C.2       1 RES1   0.0000
    20 C20     24.3088  50.9944  -0.1260   C.2       1 RES1   0.0000
    21 C21     23.4485  50.0797  -0.7700   C.2       1 RES1   0.0000
    22 C22     23.7981  48.7113  -0.8163   C.2       1 RES1   0.0000
@<TRIPOS>BOND
     1     1     2    2
     2     2     3   am
     3     3     4    1
     4     4     5    1
     5     5     6    1
     6     6     7    2
     7     7     8    1
     8     8     9    1
     9     9    10    1
    10    10    11    1
    11    11    12    1
    12    12    13    1
    13    13    14    1
    14    14    15    1
    15    15    16    1
    16    16    17    1
    17    17    18    1
    18     7    19    1
    19    19    20    2
    20    20    21    1
    21    21    22    2
    22    22     2    1
    23    22     6    1
    24    18    13    1
@<TRIPOS>SUBSTRUCTURE
     1 RES1        1 GROUP             0 ****  ****    0  
@<TRIPOS>MOLECULE
ligand_93
    22    24     1     0     0
SMALL
USER_CHARGES
****
Generated from the CSD

@<TRIPOS>ATOM
     1 O1      22.0986  48.0900  -2.3692   O.2       1 RES1   0.0000
     2 C2      22.8871  47.7335  -1.5038   C.2       1 RES1   0.0000
     3 N3      23.0366  46.4566  -1.1487   N.am      1 RES1   0.0000
     4 C4      23.9700  45.9695  -0.1460   C.3       1 RES1   0.0000
     5 C5      25.2676  46.7394  -0.2588   C.3       1 RES1   0.0000
     6 C6      24.9869  48.2190  -0.2383   C.2       1 RES1   0.0000
     7 C7      25.8879  49.1427   0.4274   C.2       1 RES1   0.0000
     8 O8      26.9043  48.6162   1.2102   O.3       1 RES1   0.0000
     9 C9      27.8951  49.3349   1.9499   C.3       1 RES1   0.0000
    10 C10     27.0882  49.7166   3.2491   C.3       1 RES1   0.0000
    11 C11     27.8796  50.5145   4.2812   C.3       1 RES1   0.0000
    12 C12     26.9951  50.8547   5.5515   C.3       1 RES1   0.0000
    13 N13     26.5124  49.6027   6.2996   N.3       1 RES1   1.0000
    14 C14     25.4816  49.9466   7.3260   C.3       1 RES1   0.0000
    15 C15     24.9613  48.7021   7.9970   C.3       1 RES1   0.0000
    16 C16     26.0811  47.8875   8.6137   C.3       1 RES1   0.0000
    17 C17     27.1538  47.6007   7.5833   C.3       1 RES1   0.0000
    18 C18     27.6500  48.8660   6.9338   C.3       1 RES1   0.0000
    19 C19     25.5346  50.5159   0.4670   C.2       1 RES1   0.0000
    20 C20     24.3150  50.9961  -0.1349   C.2       1 RES1   0.0000
    21 C21     23.4534  50.0814  -0.7772   C.2       1 RES1   0.0000
    22 C22     23.8002  48.7121  -0.8195   C.2       1 RES1   0.0000
@<TRIPOS>BOND
     1     1     2    2
     2     2     3   am
     3     3     4    1
     4     4     5    1
     5     5     6    1
     6     6     7    2
     7     7     8    1
     8     8     9    1
     9     9    10    1
    10    10    11    1
    11    11    12    1
    12    12    13    1
    13    13    14    1
    14    14    15    1
    15    15    16    1
    16    16    17    1
    17    17    18    1
    18     7    19    1
    19    19    20    2
    20    20    21    1
    21    21    22    2
    22    22     2    1
    23    22     6    1
    24    18    13    1
@<TRIPOS>SUBSTRUCTURE
     1 RES1        1 GROUP             0 ****  ****    0  
@<TRIPOS>MOLECULE
ligand_94
    22    24     1     0     0
SMALL
USER_CHARGES
****
Generated from the CSD

@<TRIPOS>ATOM
     1 O1      22.0963  48.0898  -2.3660   O.2       1 RES1   0.0000
     2 C2      22.8864  47.7327  -1.5024   C.2       1 RES1   0.0000
     3 N3      23.0388  46.4551  -1.1509   N.am      1 RES1   0.0000
     4 C4      23.9741  45.9672  -0.1504   C.3       1 RES1   0.0000
     5 C5      25.2700  46.7401  -0.2623   C.3       1 RES1   0.0000
     6 C6      24.9863  48.2190  -0.2376   C.2       1 RES1   0.0000
     7 C7      25.8861  49.1427   0.4298   C.2       1 RES1   0.0000
     8 O8      26.9043  48.6162   1.2102   O.3       1 RES1   0.0000
     9 C9      27.8951  49.3349   1.9499   C.3       1 RES1   0.0000
    10 C10     28.9337  49.6777   0.8148   C.3       1 RES1   0.0000
    11 C11     30.1532  50.4670   1.2820   C.3       1 RES1   0.0000
    12 C12     31.0638  50.9017   0.0599   C.3       1 RES1   0.0000
    13 N13     31.6129  49.7067  -0.7344   N.3       1 RES1   1.0000
    14 C14     32.9486  50.0173  -1.3292   C.3       1 RES1   0.0000
    15 C15     33.5094  48.8124  -2.0388   C.3       1 RES1   0.0000
    16 C16     32.5582  48.2924  -3.0985   C.3       1 RES1   0.0000
    17 C17     31.1884  48.0440  -2.5014   C.3       1 RES1   0.0000
    18 C18     30.6595  49.2682  -1.8011   C.3       1 RES1   0.0000
    19 C19     25.5300  50.5151   0.4734   C.2       1 RES1   0.0000
    20 C20     24.3088  50.9944  -0.1260   C.2       1 RES1   0.0000
    21 C21     23.4485  50.0797  -0.7700   C.2       1 RES1   0.0000
    22 C22     23.7981  48.7113  -0.8163   C.2       1 RES1   0.0000
@<TRIPOS>BOND
     1     1     2    2
     2     2     3   am
     3     3     4    1
     4     4     5    1
     5     5     6    1
     6     6     7    2
     7     7     8    1
     8     8     9    1
     9     9    10    1
    10    10    11    1
    11    11    12    1
    12    12    13    1
    13    13    14    1
    14    14    15    1
    15    15    16    1
    16    16    17    1
    17    17    18    1
    18     7    19    1
    19    19    20    2
    20    20    21    1
    21    21    22    2
    22    22     2    1
    23    22     6    1
    24    18    13    1
@<TRIPOS>SUBSTRUCTURE
     1 RES1        1 GROUP             0 ****  ****    0  
@<TRIPOS>MOLECULE
ligand_95
    22    24     1     0     0
SMALL
USER_CHARGES
****
Generated from the CSD

@<TRIPOS>ATOM
     1 O1      22.0986  48.0900  -2.3691   O.2       1 RES1   0.0000
     2 C2      22.8871  47.7335  -1.5038   C.2       1 RES1   0.0000
     3 N3      23.0366  46.4566  -1.1487   N.am      1 RES1   0.0000
     4 C4      23.9700  45.9695  -0.1461   C.3       1 RES1   0.0000
     5 C5      25.2676  46.7394  -0.2588   C.3       1 RES1   0.0000
     6 C6      24.9869  48.2190  -0.2383   C.2       1 RES1   0.0000
     7 C7      25.8879  49.1427   0.4275   C.2       1 RES1   0.0000
     8 O8      26.9043  48.6162   1.2102   O.3       1 RES1   0.0000
     9 C9      27.8951  49.3349   1.9499   C.3       1 RES1   0.0000
    10 C10     27.0882  49.7166   3.2491   C.3       1 RES1   0.0000
    11 C11     27.8796  50.5145   4.2812   C.3       1 RES1   0.0000
    12 C12     27.0478  50.7212   5.6143   C.3       1 RES1   0.0000
    13 N13     25.7407  51.4973   5.3920   N.3       1 RES1   1.0000
    14 C14     25.3744  52.3013   6.5977   C.3       1 RES1   0.0000
    15 C15     24.1344  53.1166   6.3383   C.3       1 RES1   0.0000
    16 C16     22.9725  52.2468   5.9005   C.3       1 RES1   0.0000
    17 C17     23.3736  51.3863   4.7201   C.3       1 RES1   0.0000
    18 C18     24.6153  50.5862   5.0147   C.3       1 RES1   0.0000
    19 C19     25.5345  50.5159   0.4670   C.2       1 RES1   0.0000
    20 C20     24.3149  50.9961  -0.1348   C.2       1 RES1   0.0000
    21 C21     23.4534  50.0814  -0.7772   C.2       1 RES1   0.0000
    22 C22     23.8002  48.7121  -0.8195   C.2       1 RES1   0.0000
@<TRIPOS>BOND
     1     1     2    2
     2     2     3   am
     3     3     4    1
     4     4     5    1
     5     5     6    1
     6     6     7    2
     7     7     8    1
     8     8     9    1
     9     9    10    1
    10    10    11    1
    11    11    12    1
    12    12    13    1
    13    13    14    1
    14    14    15    1
    15    15    16    1
    16    16    17    1
    17    17    18    1
    18     7    19    1
    19    19    20    2
    20    20    21    1
    21    21    22    2
    22    22     2    1
    23    22     6    1
    24    18    13    1
@<TRIPOS>SUBSTRUCTURE
     1 RES1        1 GROUP             0 ****  ****    0  
@<TRIPOS>MOLECULE
ligand_96
    22    24     1     0     0
SMALL
USER_CHARGES
****
Generated from the CSD

@<TRIPOS>ATOM
     1 O1      21.6929  47.9867  -1.6618   O.2       1 RES1   0.0000
     2 C2      22.8837  47.7396  -1.5071   C.2       1 RES1   0.0000
     3 N3      23.4028  46.5457  -1.7926   N.am      1 RES1   0.0000
     4 C4      24.7852  46.1555  -1.5732   C.3       1 RES1   0.0000
     5 C5      25.2666  46.7392  -0.2629   C.3       1 RES1   0.0000
     6 C6      24.9897  48.2199  -0.2430   C.2       1 RES1   0.0000
     7 C7      25.8837  49.1405   0.4350   C.2       1 RES1   0.0000
     8 O8      26.9094  48.6250   1.2120   O.3       1 RES1   0.0000
     9 C9      28.1873  49.2134   1.4692   C.3       1 RES1   0.0000
    10 C10     28.8414  48.1252   2.4034   C.3       1 RES1   0.0000
    11 C11     30.2551  48.4538   2.8740   C.3       1 RES1   0.0000
    12 C12     30.7749  47.3918   3.9294   C.3       1 RES1   0.0000
    13 N13     30.8404  45.9652   3.3629   N.3       1 RES1   1.0000
    14 C14     29.5339  45.2567   3.5224   C.3       1 RES1   0.0000
    15 C15     29.5891  43.8887   2.8937   C.3       1 RES1   0.0000
    16 C16     30.7228  43.0566   3.4595   C.3       1 RES1   0.0000
    17 C17     32.0329  43.8100   3.3551   C.3       1 RES1   0.0000
    18 C18     31.9411  45.1713   3.9932   C.3       1 RES1   0.0000
    19 C19     25.5266  50.5129   0.4830   C.2       1 RES1   0.0000
    20 C20     24.3093  50.9932  -0.1232   C.2       1 RES1   0.0000
    21 C21     23.4544  50.0812  -0.7780   C.2       1 RES1   0.0000
    22 C22     23.8055  48.7132  -0.8282   C.2       1 RES1   0.0000
@<TRIPOS>BOND
     1     1     2    2
     2     2     3   am
     3     3     4    1
     4     4     5    1
     5     5     6    1
     6     6     7    2
     7     7     8    1
     8     8     9    1
     9     9    10    1
    10    10    11    1
    11    11    12    1
    12    12    13    1
    13    13    14    1
    14    14    15    1
    15    15    16    1
    16    16    17    1
    17    17    18    1
    18     7    19    1
    19    19    20    2
    20    20    21    1
    21    21    22    2
    22    22     2    1
    23    22     6    1
    24    18    13    1
@<TRIPOS>SUBSTRUCTURE
     1 RES1        1 GROUP             0 ****  ****    0  
@<TRIPOS>MOLECULE
ligand_97
    22    24     1     0     0
SMALL
USER_CHARGES
****
Generated from the CSD

@<TRIPOS>ATOM
     1 O1      22.0963  48.0898  -2.3660   O.2       1 RES1   0.0000
     2 C2      22.8864  47.7327  -1.5024   C.2       1 RES1   0.0000
     3 N3      23.0388  46.4551  -1.1509   N.am      1 RES1   0.0000
     4 C4      23.9741  45.9672  -0.1504   C.3       1 RES1   0.0000
     5 C5      25.2700  46.7401  -0.2623   C.3       1 RES1   0.0000
     6 C6      24.9863  48.2190  -0.2376   C.2       1 RES1   0.0000
     7 C7      25.8861  49.1427   0.4298   C.2       1 RES1   0.0000
     8 O8      26.9043  48.6162   1.2102   O.3       1 RES1   0.0000
     9 C9      27.8951  49.3349   1.9499   C.3       1 RES1   0.0000
    10 C10     28.9337  49.6777   0.8148   C.3       1 RES1   0.0000
    11 C11     30.1532  50.4670   1.2820   C.3       1 RES1   0.0000
    12 C12     31.1424  50.7677   0.0809   C.3       1 RES1   0.0000
    13 N13     31.7133  49.4935  -0.5600   N.3       1 RES1   1.0000
    14 C14     32.6041  48.7597   0.3899   C.3       1 RES1   0.0000
    15 C15     33.0942  47.4741  -0.2239   C.3       1 RES1   0.0000
    16 C16     33.8003  47.7158  -1.5433   C.3       1 RES1   0.0000
    17 C17     32.9160  48.5180  -2.4755   C.3       1 RES1   0.0000
    18 C18     32.4454  49.7949  -1.8298   C.3       1 RES1   0.0000
    19 C19     25.5300  50.5151   0.4734   C.2       1 RES1   0.0000
    20 C20     24.3088  50.9944  -0.1260   C.2       1 RES1   0.0000
    21 C21     23.4485  50.0797  -0.7700   C.2       1 RES1   0.0000
    22 C22     23.7981  48.7113  -0.8163   C.2       1 RES1   0.0000
@<TRIPOS>BOND
     1     1     2    2
     2     2     3   am
     3     3     4    1
     4     4     5    1
     5     5     6    1
     6     6     7    2
     7     7     8    1
     8     8     9    1
     9     9    10    1
    10    10    11    1
    11    11    12    1
    12    12    13    1
    13    13    14    1
    14    14    15    1
    15    15    16    1
    16    16    17    1
    17    17    18    1
    18     7    19    1
    19    19    20    2
    20    20    21    1
    21    21    22    2
    22    22     2    1
    23    22     6    1
    24    18    13    1
@<TRIPOS>SUBSTRUCTURE
     1 RES1        1 GROUP             0 ****  ****    0  
@<TRIPOS>MOLECULE
ligand_98
    22    24     1     0     0
SMALL
USER_CHARGES
****
Generated from the CSD

@<TRIPOS>ATOM
     1 O1      22.0986  48.0900  -2.3692   O.2       1 RES1   0.0000
     2 C2      22.8871  47.7335  -1.5038   C.2       1 RES1   0.0000
     3 N3      23.0366  46.4566  -1.1487   N.am      1 RES1   0.0000
     4 C4      23.9700  45.9695  -0.1460   C.3       1 RES1   0.0000
     5 C5      25.2676  46.7394  -0.2588   C.3       1 RES1   0.0000
     6 C6      24.9869  48.2190  -0.2383   C.2       1 RES1   0.0000
     7 C7      25.8879  49.1427   0.4274   C.2       1 RES1   0.0000
     8 O8      26.9043  48.6162   1.2102   O.3       1 RES1   0.0000
     9 C9      27.8951  49.3349   1.9499   C.3       1 RES1   0.0000
    10 C10     27.0882  49.7166   3.2491   C.3       1 RES1   0.0000
    11 C11     27.8796  50.5145   4.2812   C.3       1 RES1   0.0000
    12 C12     26.9951  50.8547   5.5515   C.3       1 RES1   0.0000
    13 N13     25.7776  51.7304   5.2181   N.3       1 RES1   1.0000
    14 C14     26.1954  53.0925   4.7660   C.3       1 RES1   0.0000
    15 C15     24.9964  53.9136   4.3687   C.3       1 RES1   0.0000
    16 C16     23.9842  54.0088   5.4932   C.3       1 RES1   0.0000
    17 C17     23.6169  52.6259   5.9905   C.3       1 RES1   0.0000
    18 C18     24.8384  51.8345   6.3784   C.3       1 RES1   0.0000
    19 C19     25.5346  50.5159   0.4670   C.2       1 RES1   0.0000
    20 C20     24.3150  50.9961  -0.1349   C.2       1 RES1   0.0000
    21 C21     23.4534  50.0814  -0.7772   C.2       1 RES1   0.0000
    22 C22     23.8002  48.7121  -0.8195   C.2       1 RES1   0.0000
@<TRIPOS>BOND
     1     1     2    2
     2     2     3   am
     3     3     4    1
     4     4     5    1
     5     5     6    1
     6     6     7    2
     7     7     8    1
     8     8     9    1
     9     9    10    1
    10    10    11    1
    11    11    12    1
    12    12    13    1
    13    13    14    1
    14    14    15    1
    15    15    16    1
    16    16    17    1
    17    17    18    1
    18     7    19    1
    19    19    20    2
    20    20    21    1
    21    21    22    2
    22    22     2    1
    23    22     6    1
    24    18    13    1
@<TRIPOS>SUBSTRUCTURE
     1 RES1        1 GROUP             0 ****  ****    0  
@<TRIPOS>MOLECULE
ligand_99
    22    24     1     0     0
SMALL
USER_CHARGES
****
Generated from the CSD

@<TRIPOS>ATOM
     1 O1      22.0963  48.0898  -2.3660   O.2       1 RES1   0.0000
     2 C2      22.8864  47.7327  -1.5024   C.2       1 RES1   0.0000
     3 N3      23.0388  46.4551  -1.1509   N.am      1 RES1   0.0000
     4 C4      23.9741  45.9672  -0.1504   C.3       1 RES1   0.0000
     5 C5      25.2700  46.7401  -0.2623   C.3       1 RES1   0.0000
     6 C6      24.9863  48.2190  -0.2376   C.2       1 RES1   0.0000
     7 C7      25.8861  49.1427   0.4298   C.2       1 RES1   0.0000
     8 O8      26.9043  48.6162   1.2102   O.3       1 RES1   0.0000
     9 C9      27.8951  49.3349   1.9499   C.3       1 RES1   0.0000
    10 C10     28.9337  49.6777   0.8148   C.3       1 RES1   0.0000
    11 C11     30.1532  50.4670   1.2820   C.3       1 RES1   0.0000
    12 C12     31.2165  50.6310   0.1183   C.3       1 RES1   0.0000
    13 N13     30.6636  51.3905  -1.0973   N.3       1 RES1   1.0000
    14 C14     29.9861  50.4639  -2.0547   C.3       1 RES1   0.0000
    15 C15     29.3817  51.2311  -3.2018   C.3       1 RES1   0.0000
    16 C16     30.4156  52.0786  -3.9165   C.3       1 RES1   0.0000
    17 C17     31.1441  52.9662  -2.9285   C.3       1 RES1   0.0000
    18 C18     31.7348  52.1667  -1.7969   C.3       1 RES1   0.0000
    19 C19     25.5300  50.5151   0.4734   C.2       1 RES1   0.0000
    20 C20     24.3088  50.9944  -0.1260   C.2       1 RES1   0.0000
    21 C21     23.4485  50.0797  -0.7700   C.2       1 RES1   0.0000
    22 C22     23.7981  48.7113  -0.8163   C.2       1 RES1   0.0000
@<TRIPOS>BOND
     1     1     2    2
     2     2     3   am
     3     3     4    1
     4     4     5    1
     5     5     6    1
     6     6     7    2
     7     7     8    1
     8     8     9    1
     9     9    10    1
    10    10    11    1
    11    11    12    1
    12    12    13    1
    13    13    14    1
    14    14    15    1
    15    15    16    1
    16    16    17    1
    17    17    18    1
    18     7    19    1
    19    19    20    2
    20    20    21    1
    21    21    22    2
    22    22     2    1
    23    22     6    1
    24    18    13    1
@<TRIPOS>SUBSTRUCTURE
     1 RES1        1 GROUP             0 ****  ****    0  
