@<TRIPOS>MOLECULE
native
    37    39     1     0     0
SMALL
NO_CHARGES
****
Generated from the CSD

@<TRIPOS>ATOM
     1 C1      -7.4060  -1.9510  -6.0160   C.3       1 RES1   0.0000
     2 C2      -6.5290  -3.1810  -5.9550   C.3       1 RES1   0.0000
     3 O3      -7.3380  -4.3400  -5.7710   O.3       1 RES1   0.0000
     4 C4      -6.9610  -5.6090  -6.3560   C.2       1 RES1   0.0000
     5 O5      -6.0360  -5.6200  -7.1570   O.2       1 RES1   0.0000
     6 C6      -7.7460  -6.8320  -5.9430   C.3       1 RES1   0.0000
     7 C7      -6.9780  -8.1360  -5.7470   C.3       1 RES1   0.0000
     8 C8      -6.0520  -7.9290  -4.5220   C.3       1 RES1   0.0000
     9 C9      -4.8700  -8.9010  -4.5480   C.3       1 RES1   0.0000
    10 C10     -4.0300  -8.8200  -3.2690   C.3       1 RES1   0.0000
    11 C11     -3.3830  -7.4590  -3.0320   C.3       1 RES1   0.0000
    12 C12     -1.9630  -7.7630  -2.5600   C.3       1 RES1   0.0000
    13 N13     -1.7540  -9.1430  -2.9340   N.am      1 RES1   0.0000
    14 C14     -2.8690  -9.7510  -3.3330   C.2       1 RES1   0.0000
    15 O15     -2.9940 -10.8970  -3.7040   O.2       1 RES1   0.0000
    16 N16     -6.8560  -8.0100  -3.3100   N.am      1 RES1   0.0000
    17 C17     -7.0440  -6.9930  -2.4530   C.2       1 RES1   0.0000
    18 O18     -6.5500  -5.8840  -2.5600   O.2       1 RES1   0.0000
    19 C19     -7.9250  -7.2900  -1.2790   C.3       1 RES1   0.0000
    20 C20     -9.1790  -6.4480  -1.5220   C.3       1 RES1   0.0000
    21 C21    -10.3650  -6.7080  -0.6140   C.2       1 RES1   0.0000
    22 C22    -10.7890  -7.9960  -0.2880   C.2       1 RES1   0.0000
    23 C23    -11.8960  -8.1790   0.5410   C.2       1 RES1   0.0000
    24 C24    -12.5830  -7.0830   1.0500   C.2       1 RES1   0.0000
    25 C25    -12.1690  -5.7970   0.7230   C.2       1 RES1   0.0000
    26 C26    -11.0730  -5.6120  -0.1100   C.2       1 RES1   0.0000
    27 N27     -7.3410  -7.0100   0.0300   N.am      1 RES1   0.0000
    28 C28     -6.1820  -7.4620   0.5070   C.2       1 RES1   0.0000
    29 O29     -5.4260  -8.1760  -0.1650   O.2       1 RES1   0.0000
    30 C30     -5.9190  -6.9640   1.8950   C.2       1 RES1   0.0000
    31 O31     -6.5850  -6.0120   2.2610   O.2       1 RES1   0.0000
    32 N32     -5.0700  -7.3780   2.8280   N.am      1 RES1   0.0000
    33 C33     -4.1380  -8.4650   2.7680   C.3       1 RES1   0.0000
    34 C34     -4.0190  -9.0760   4.1520   C.3       1 RES1   0.0000
    35 C35     -3.8380 -10.5920   4.1800   C.3       1 RES1   0.0000
    36 C36     -5.1780 -10.7650   4.8740   C.3       1 RES1   0.0000
    37 C37     -5.3440  -9.2530   4.8770   C.3       1 RES1   0.0000
@<TRIPOS>BOND
     1     1     2    1
     2     2     3    1
     3     3     4    1
     4     4     5    2
     5     4     6    1
     6     6     7    1
     7     8     7    1
     8     8     9    1
     9    10     9    1
    10    10    11    1
    11    11    12    1
    12    12    13    1
    13    13    14   am
    14    14    15    2
    15     8    16    1
    16    16    17   am
    17    17    18    2
    18    17    19    1
    19    19    20    1
    20    20    21    1
    21    21    22    2
    22    22    23    1
    23    23    24    2
    24    24    25    1
    25    25    26    2
    26    19    27    1
    27    27    28   am
    28    28    29    2
    29    28    30    1
    30    30    31    2
    31    30    32   am
    32    32    33    1
    33    33    34    1
    34    34    35    1
    35    35    36    1
    36    36    37    1
    37    14    10    1
    38    26    21    1
    39    37    34    1
@<TRIPOS>SUBSTRUCTURE
     1 RES1        1 GROUP             0 ****  ****    0  
@<TRIPOS>MOLECULE
ligand_0
    37    39     1     0     0
SMALL
NO_CHARGES
****
Generated from the CSD

@<TRIPOS>ATOM
     1 C1      -7.1357  -1.9842  -5.9987   C.3       1 RES1   0.0000
     2 C2      -6.3050  -3.2458  -5.9357   C.3       1 RES1   0.0000
     3 O3      -7.1585  -4.3764  -5.7780   O.3       1 RES1   0.0000
     4 C4      -6.6111  -5.7133  -5.6901   C.2       1 RES1   0.0000
     5 O5      -5.3960  -5.8419  -5.7554   O.2       1 RES1   0.0000
     6 C6      -7.5828  -6.8597  -5.5346   C.3       1 RES1   0.0000
     7 C7      -7.0086  -8.2713  -5.4537   C.3       1 RES1   0.0000
     8 C8      -8.2059  -9.2279  -5.2248   C.3       1 RES1   0.0000
     9 C9      -7.7462 -10.6859  -5.1504   C.3       1 RES1   0.0000
    10 C10     -8.9165 -11.6471  -4.9169   C.3       1 RES1   0.0000
    11 C11     -9.5342 -11.5805  -3.5058   C.3       1 RES1   0.0000
    12 C12     -9.8283 -13.0247  -3.1217   C.3       1 RES1   0.0000
    13 N13     -8.9938 -13.7834  -4.0339   N.am      1 RES1   0.0000
    14 C14     -8.5151 -13.0909  -5.0705   C.2       1 RES1   0.0000
    15 O15     -7.8365 -13.5472  -5.9637   O.2       1 RES1   0.0000
    16 N16     -9.2073  -8.9766  -6.2524   N.am      1 RES1   0.0000
    17 C17    -10.3152  -8.2395  -6.0702   C.2       1 RES1   0.0000
    18 O18    -10.6280  -7.6872  -5.0298   O.2       1 RES1   0.0000
    19 C19    -11.2185  -8.1234  -7.2590   C.3       1 RES1   0.0000
    20 C20    -12.0444  -9.4109  -7.2362   C.3       1 RES1   0.0000
    21 C21    -13.1807  -9.5134  -8.2347   C.2       1 RES1   0.0000
    22 C22    -14.4738  -9.0800  -7.9431   C.2       1 RES1   0.0000
    23 C23    -15.4864  -9.2109  -8.8938   C.2       1 RES1   0.0000
    24 C24    -15.2163  -9.7704 -10.1372   C.2       1 RES1   0.0000
    25 C25    -13.9308 -10.2102 -10.4310   C.2       1 RES1   0.0000
    26 C26    -12.9230 -10.0900  -9.4827   C.2       1 RES1   0.0000
    27 N27    -10.5455  -7.9451  -8.5429   N.am      1 RES1   0.0000
    28 C28     -9.9991  -6.8259  -9.0160   C.2       1 RES1   0.0000
    29 O29    -10.0091  -5.7658  -8.3764   O.2       1 RES1   0.0000
    30 C30     -9.3599  -7.0406 -10.3536   C.2       1 RES1   0.0000
    31 O31     -9.4576  -8.1600 -10.8239   O.2       1 RES1   0.0000
    32 N32     -8.6862  -6.2147 -11.1452   N.am      1 RES1   0.0000
    33 C33     -8.0952  -6.4857 -12.4224   C.3       1 RES1   0.0000
    34 C34     -9.1845  -6.4397 -13.4780   C.3       1 RES1   0.0000
    35 C35     -8.7237  -6.3760 -14.9994   C.3       1 RES1   0.0000
    36 C36     -9.3770  -5.0177 -15.1273   C.3       1 RES1   0.0000
    37 C37     -9.7563  -4.9573 -13.6395   C.3       1 RES1   0.0000
@<TRIPOS>BOND
     1     1     2    1
     2     2     3    1
     3     3     4    1
     4     4     5    2
     5     4     6    1
     6     6     7    1
     7     8     7    1
     8     8     9    1
     9    10     9    1
    10    10    11    1
    11    11    12    1
    12    12    13    1
    13    13    14   am
    14    14    15    2
    15     8    16    1
    16    16    17   am
    17    17    18    2
    18    17    19    1
    19    19    20    1
    20    20    21    1
    21    21    22    2
    22    22    23    1
    23    23    24    2
    24    24    25    1
    25    25    26    2
    26    19    27    1
    27    27    28   am
    28    28    29    2
    29    28    30    1
    30    30    31    2
    31    30    32   am
    32    32    33    1
    33    33    34    1
    34    34    35    1
    35    35    36    1
    36    36    37    1
    37    14    10    1
    38    26    21    1
    39    37    34    1
@<TRIPOS>SUBSTRUCTURE
     1 RES1        1 GROUP             0 ****  ****    0  
@<TRIPOS>MOLECULE
ligand_1
    37    39     1     0     0
SMALL
NO_CHARGES
****
Generated from the CSD

@<TRIPOS>ATOM
     1 C1      -7.1357  -1.9842  -5.9987   C.3       1 RES1   0.0000
     2 C2      -6.3050  -3.2458  -5.9357   C.3       1 RES1   0.0000
     3 O3      -7.1585  -4.3764  -5.7780   O.3       1 RES1   0.0000
     4 C4      -6.6111  -5.7133  -5.6901   C.2       1 RES1   0.0000
     5 O5      -5.3960  -5.8419  -5.7554   O.2       1 RES1   0.0000
     6 C6      -7.5828  -6.8597  -5.5346   C.3       1 RES1   0.0000
     7 C7      -7.0086  -8.2713  -5.4537   C.3       1 RES1   0.0000
     8 C8      -8.2059  -9.2279  -5.2248   C.3       1 RES1   0.0000
     9 C9      -7.7462 -10.6859  -5.1504   C.3       1 RES1   0.0000
    10 C10     -8.9165 -11.6471  -4.9169   C.3       1 RES1   0.0000
    11 C11     -9.5342 -11.5805  -3.5058   C.3       1 RES1   0.0000
    12 C12     -9.8283 -13.0247  -3.1217   C.3       1 RES1   0.0000
    13 N13     -8.9938 -13.7834  -4.0339   N.am      1 RES1   0.0000
    14 C14     -8.5151 -13.0909  -5.0705   C.2       1 RES1   0.0000
    15 O15     -7.8365 -13.5472  -5.9637   O.2       1 RES1   0.0000
    16 N16     -9.2073  -8.9766  -6.2524   N.am      1 RES1   0.0000
    17 C17    -10.3152  -8.2395  -6.0702   C.2       1 RES1   0.0000
    18 O18    -10.6280  -7.6872  -5.0298   O.2       1 RES1   0.0000
    19 C19    -11.2185  -8.1234  -7.2590   C.3       1 RES1   0.0000
    20 C20    -11.0960  -6.6600  -7.6881   C.3       1 RES1   0.0000
    21 C21    -11.7751  -6.2677  -8.9856   C.2       1 RES1   0.0000
    22 C22    -11.1258  -6.3304 -10.2182   C.2       1 RES1   0.0000
    23 C23    -11.7930  -5.9435 -11.3807   C.2       1 RES1   0.0000
    24 C24    -13.1077  -5.4957 -11.3217   C.2       1 RES1   0.0000
    25 C25    -13.7577  -5.4248 -10.0951   C.2       1 RES1   0.0000
    26 C26    -13.0925  -5.8002  -8.9350   C.2       1 RES1   0.0000
    27 N27    -12.6115  -8.4954  -7.0269   N.am      1 RES1   0.0000
    28 C28    -13.1105  -9.7274  -6.9355   C.2       1 RES1   0.0000
    29 O29    -12.4008 -10.7360  -7.0448   O.2       1 RES1   0.0000
    30 C30    -14.5805  -9.7128  -6.6482   C.2       1 RES1   0.0000
    31 O31    -15.1048  -8.6156  -6.5778   O.2       1 RES1   0.0000
    32 N32    -15.4440 -10.7015  -6.4491   N.am      1 RES1   0.0000
    33 C33    -16.8484 -10.6188  -6.1757   C.3       1 RES1   0.0000
    34 C34    -17.5818 -10.3829  -7.4831   C.3       1 RES1   0.0000
    35 C35    -19.1591 -10.5905  -7.4826   C.3       1 RES1   0.0000
    36 C36    -18.9978 -11.7227  -8.4727   C.3       1 RES1   0.0000
    37 C37    -17.4630 -11.6570  -8.4386   C.3       1 RES1   0.0000
@<TRIPOS>BOND
     1     1     2    1
     2     2     3    1
     3     3     4    1
     4     4     5    2
     5     4     6    1
     6     6     7    1
     7     8     7    1
     8     8     9    1
     9    10     9    1
    10    10    11    1
    11    11    12    1
    12    12    13    1
    13    13    14   am
    14    14    15    2
    15     8    16    1
    16    16    17   am
    17    17    18    2
    18    17    19    1
    19    19    20    1
    20    20    21    1
    21    21    22    2
    22    22    23    1
    23    23    24    2
    24    24    25    1
    25    25    26    2
    26    19    27    1
    27    27    28   am
    28    28    29    2
    29    28    30    1
    30    30    31    2
    31    30    32   am
    32    32    33    1
    33    33    34    1
    34    34    35    1
    35    35    36    1
    36    36    37    1
    37    14    10    1
    38    26    21    1
    39    37    34    1
@<TRIPOS>SUBSTRUCTURE
     1 RES1        1 GROUP             0 ****  ****    0  
@<TRIPOS>MOLECULE
ligand_2
    37    39     1     0     0
SMALL
NO_CHARGES
****
Generated from the CSD

@<TRIPOS>ATOM
     1 C1      -7.2007  -1.9600  -6.2427   C.3       1 RES1   0.0000
     2 C2      -6.3563  -3.2113  -6.1609   C.3       1 RES1   0.0000
     3 O3      -7.1950  -4.3450  -5.9537   O.3       1 RES1   0.0000
     4 C4      -6.6325  -5.6736  -5.8391   C.2       1 RES1   0.0000
     5 O5      -5.4177  -5.7924  -5.9254   O.2       1 RES1   0.0000
     6 C6      -7.5893  -6.8243  -5.6313   C.3       1 RES1   0.0000
     7 C7      -6.9994  -8.2274  -5.5220   C.3       1 RES1   0.0000
     8 C8      -8.1818  -9.1881  -5.2397   C.3       1 RES1   0.0000
     9 C9      -7.7061 -10.6389  -5.1326   C.3       1 RES1   0.0000
    10 C10     -8.8520 -11.5965  -4.7894   C.3       1 RES1   0.0000
    11 C11     -9.3621 -11.4979  -3.3378   C.3       1 RES1   0.0000
    12 C12     -9.6213 -12.9333  -2.8991   C.3       1 RES1   0.0000
    13 N13     -8.8550 -13.7116  -3.8536   N.am      1 RES1   0.0000
    14 C14     -8.4580 -13.0428  -4.9391   C.2       1 RES1   0.0000
    15 O15     -7.8468 -13.5187  -5.8699   O.2       1 RES1   0.0000
    16 N16     -9.2073  -8.9766  -6.2524   N.am      1 RES1   0.0000
    17 C17    -10.3152  -8.2395  -6.0702   C.2       1 RES1   0.0000
    18 O18    -10.6280  -7.6872  -5.0298   O.2       1 RES1   0.0000
    19 C19    -11.2185  -8.1234  -7.2590   C.3       1 RES1   0.0000
    20 C20    -12.0629  -9.3985  -7.2210   C.3       1 RES1   0.0000
    21 C21    -12.9139  -9.6197  -5.9858   C.2       1 RES1   0.0000
    22 C22    -12.4476 -10.3167  -4.8715   C.2       1 RES1   0.0000
    23 C23    -13.2778 -10.5041  -3.7661   C.2       1 RES1   0.0000
    24 C24    -14.5723  -9.9976  -3.7641   C.2       1 RES1   0.0000
    25 C25    -15.0447  -9.3080  -4.8747   C.2       1 RES1   0.0000
    26 C26    -14.2235  -9.1283  -5.9804   C.2       1 RES1   0.0000
    27 N27    -10.5449  -7.9690  -8.5456   N.am      1 RES1   0.0000
    28 C28     -9.9831  -6.8630  -9.0318   C.2       1 RES1   0.0000
    29 O29     -9.9768  -5.7960  -8.4039   O.2       1 RES1   0.0000
    30 C30     -9.3491  -7.1017 -10.3678   C.2       1 RES1   0.0000
    31 O31     -9.4637  -8.2246 -10.8256   O.2       1 RES1   0.0000
    32 N32     -8.6647  -6.2943 -11.1694   N.am      1 RES1   0.0000
    33 C33     -8.0796  -6.5879 -12.4442   C.3       1 RES1   0.0000
    34 C34     -9.1696  -6.5377 -13.4989   C.3       1 RES1   0.0000
    35 C35     -8.7103  -6.4974 -15.0215   C.3       1 RES1   0.0000
    36 C36     -9.3440  -5.1313 -15.1635   C.3       1 RES1   0.0000
    37 C37     -9.7202  -5.0491 -13.6759   C.3       1 RES1   0.0000
@<TRIPOS>BOND
     1     1     2    1
     2     2     3    1
     3     3     4    1
     4     4     5    2
     5     4     6    1
     6     6     7    1
     7     8     7    1
     8     8     9    1
     9    10     9    1
    10    10    11    1
    11    11    12    1
    12    12    13    1
    13    13    14   am
    14    14    15    2
    15     8    16    1
    16    16    17   am
    17    17    18    2
    18    17    19    1
    19    19    20    1
    20    20    21    1
    21    21    22    2
    22    22    23    1
    23    23    24    2
    24    24    25    1
    25    25    26    2
    26    19    27    1
    27    27    28   am
    28    28    29    2
    29    28    30    1
    30    30    31    2
    31    30    32   am
    32    32    33    1
    33    33    34    1
    34    34    35    1
    35    35    36    1
    36    36    37    1
    37    14    10    1
    38    26    21    1
    39    37    34    1
@<TRIPOS>SUBSTRUCTURE
     1 RES1        1 GROUP             0 ****  ****    0  
@<TRIPOS>MOLECULE
ligand_3
    37    39     1     0     0
SMALL
NO_CHARGES
****
Generated from the CSD

@<TRIPOS>ATOM
     1 C1      -7.1461  -1.9786  -6.0838   C.3       1 RES1   0.0000
     2 C2      -6.3128  -3.2381  -6.0135   C.3       1 RES1   0.0000
     3 O3      -7.1633  -4.3685  -5.8387   O.3       1 RES1   0.0000
     4 C4      -6.6130  -5.7035  -5.7409   C.2       1 RES1   0.0000
     5 O5      -5.3981  -5.8307  -5.8128   O.2       1 RES1   0.0000
     6 C6      -7.5816  -6.8499  -5.5673   C.3       1 RES1   0.0000
     7 C7      -7.0045  -8.2596  -5.4758   C.3       1 RES1   0.0000
     8 C8      -8.1985  -9.2158  -5.2291   C.3       1 RES1   0.0000
     9 C9      -7.7359 -10.6722  -5.1430   C.3       1 RES1   0.0000
    10 C10     -8.9029 -11.6329  -4.8919   C.3       1 RES1   0.0000
    11 C11     -9.5111 -11.5530  -3.4774   C.3       1 RES1   0.0000
    12 C12     -9.8002 -12.9937  -3.0766   C.3       1 RES1   0.0000
    13 N13     -8.9706 -13.7603  -3.9867   N.am      1 RES1   0.0000
    14 C14     -8.5000 -13.0775  -5.0335   C.2       1 RES1   0.0000
    15 O15     -7.8267 -13.5417  -5.9266   O.2       1 RES1   0.0000
    16 N16     -9.2073  -8.9766  -6.2524   N.am      1 RES1   0.0000
    17 C17    -10.3152  -8.2395  -6.0702   C.2       1 RES1   0.0000
    18 O18    -10.6280  -7.6872  -5.0298   O.2       1 RES1   0.0000
    19 C19    -11.2185  -8.1234  -7.2590   C.3       1 RES1   0.0000
    20 C20    -12.0158  -9.4290  -7.2597   C.3       1 RES1   0.0000
    21 C21    -13.1499  -9.5383  -8.2600   C.2       1 RES1   0.0000
    22 C22    -14.4522  -9.1390  -7.9606   C.2       1 RES1   0.0000
    23 C23    -15.4619  -9.2749  -8.9137   C.2       1 RES1   0.0000
    24 C24    -15.1799  -9.8056 -10.1671   C.2       1 RES1   0.0000
    25 C25    -13.8851 -10.2115 -10.4687   C.2       1 RES1   0.0000
    26 C26    -12.8799 -10.0863  -9.5183   C.2       1 RES1   0.0000
    27 N27    -10.5471  -7.9088  -8.5381   N.am      1 RES1   0.0000
    28 C28    -11.0849  -7.4275  -9.6581   C.2       1 RES1   0.0000
    29 O29    -12.2738  -7.0888  -9.7259   O.2       1 RES1   0.0000
    30 C30    -10.0746  -7.3181 -10.7586   C.2       1 RES1   0.0000
    31 O31     -8.9497  -7.7060 -10.4977   O.2       1 RES1   0.0000
    32 N32    -10.1790  -6.8632 -12.0015   N.am      1 RES1   0.0000
    33 C33     -9.1654  -6.7847 -13.0115   C.3       1 RES1   0.0000
    34 C34     -9.0026  -8.1564 -13.6399   C.3       1 RES1   0.0000
    35 C35     -8.1840  -8.2428 -15.0013   C.3       1 RES1   0.0000
    36 C36     -9.4306  -8.7311 -15.7052   C.3       1 RES1   0.0000
    37 C37    -10.3120  -8.5655 -14.4575   C.3       1 RES1   0.0000
@<TRIPOS>BOND
     1     1     2    1
     2     2     3    1
     3     3     4    1
     4     4     5    2
     5     4     6    1
     6     6     7    1
     7     8     7    1
     8     8     9    1
     9    10     9    1
    10    10    11    1
    11    11    12    1
    12    12    13    1
    13    13    14   am
    14    14    15    2
    15     8    16    1
    16    16    17   am
    17    17    18    2
    18    17    19    1
    19    19    20    1
    20    20    21    1
    21    21    22    2
    22    22    23    1
    23    23    24    2
    24    24    25    1
    25    25    26    2
    26    19    27    1
    27    27    28   am
    28    28    29    2
    29    28    30    1
    30    30    31    2
    31    30    32   am
    32    32    33    1
    33    33    34    1
    34    34    35    1
    35    35    36    1
    36    36    37    1
    37    14    10    1
    38    26    21    1
    39    37    34    1
@<TRIPOS>SUBSTRUCTURE
     1 RES1        1 GROUP             0 ****  ****    0  
@<TRIPOS>MOLECULE
ligand_4
    37    39     1     0     0
SMALL
NO_CHARGES
****
Generated from the CSD

@<TRIPOS>ATOM
     1 C1      -7.3896  -1.9345  -5.8236   C.3       1 RES1   0.0000
     2 C2      -6.5153  -3.1676  -5.7939   C.3       1 RES1   0.0000
     3 O3      -7.3279  -4.3301  -5.6525   O.3       1 RES1   0.0000
     4 C4      -6.7340  -5.6487  -5.5971   C.2       1 RES1   0.0000
     5 O5      -5.5158  -5.7337  -5.6752   O.2       1 RES1   0.0000
     6 C6      -7.6641  -6.8310  -5.4572   C.3       1 RES1   0.0000
     7 C7      -7.0409  -8.2232  -5.4104   C.3       1 RES1   0.0000
     8 C8      -8.2059  -9.2279  -5.2248   C.3       1 RES1   0.0000
     9 C9      -7.6963 -10.6708  -5.1954   C.3       1 RES1   0.0000
    10 C10     -8.8341 -11.6793  -5.0051   C.3       1 RES1   0.0000
    11 C11     -9.4649 -11.6821  -3.5982   C.3       1 RES1   0.0000
    12 C12     -9.7115 -13.1479  -3.2657   C.3       1 RES1   0.0000
    13 N13     -8.8439 -13.8458  -4.1953   N.am      1 RES1   0.0000
    14 C14     -8.3814 -13.1023  -5.2036   C.2       1 RES1   0.0000
    15 O15     -7.6802 -13.5042  -6.1055   O.2       1 RES1   0.0000
    16 N16     -9.2073  -8.9766  -6.2524   N.am      1 RES1   0.0000
    17 C17    -10.5257  -8.8693  -6.0191   C.2       1 RES1   0.0000
    18 O18    -11.0556  -8.9668  -4.9260   O.2       1 RES1   0.0000
    19 C19    -11.3789  -8.6247  -7.2253   C.3       1 RES1   0.0000
    20 C20    -11.5778 -10.0123  -7.8381   C.3       1 RES1   0.0000
    21 C21    -12.5508 -10.1165  -8.9961   C.2       1 RES1   0.0000
    22 C22    -13.9085 -10.3760  -8.8109   C.2       1 RES1   0.0000
    23 C23    -14.7580 -10.4761  -9.9129   C.2       1 RES1   0.0000
    24 C24    -14.2613 -10.3163 -11.2013   C.2       1 RES1   0.0000
    25 C25    -12.9078 -10.0641 -11.3923   C.2       1 RES1   0.0000
    26 C26    -12.0580  -9.9736 -10.2973   C.2       1 RES1   0.0000
    27 N27    -10.8316  -7.6853  -8.2005   N.am      1 RES1   0.0000
    28 C28    -10.8089  -6.3561  -8.1120   C.2       1 RES1   0.0000
    29 O29    -11.2768  -5.7522  -7.1377   O.2       1 RES1   0.0000
    30 C30    -10.1242  -5.7314  -9.2887   C.2       1 RES1   0.0000
    31 O31     -9.7303  -6.4961 -10.1513   O.2       1 RES1   0.0000
    32 N32     -9.8578  -4.4627  -9.5752   N.am      1 RES1   0.0000
    33 C33     -9.1933  -3.9280 -10.7269   C.3       1 RES1   0.0000
    34 C34    -10.1864  -3.8679 -11.8728   C.3       1 RES1   0.0000
    35 C35     -9.7797  -3.0055 -13.1463   C.3       1 RES1   0.0000
    36 C36    -10.9479  -2.0826 -12.8788   C.3       1 RES1   0.0000
    37 C37    -11.3335  -2.7976 -11.5745   C.3       1 RES1   0.0000
@<TRIPOS>BOND
     1     1     2    1
     2     2     3    1
     3     3     4    1
     4     4     5    2
     5     4     6    1
     6     6     7    1
     7     8     7    1
     8     8     9    1
     9    10     9    1
    10    10    11    1
    11    11    12    1
    12    12    13    1
    13    13    14   am
    14    14    15    2
    15     8    16    1
    16    16    17   am
    17    17    18    2
    18    17    19    1
    19    19    20    1
    20    20    21    1
    21    21    22    2
    22    22    23    1
    23    23    24    2
    24    24    25    1
    25    25    26    2
    26    19    27    1
    27    27    28   am
    28    28    29    2
    29    28    30    1
    30    30    31    2
    31    30    32   am
    32    32    33    1
    33    33    34    1
    34    34    35    1
    35    35    36    1
    36    36    37    1
    37    14    10    1
    38    26    21    1
    39    37    34    1
@<TRIPOS>SUBSTRUCTURE
     1 RES1        1 GROUP             0 ****  ****    0  
@<TRIPOS>MOLECULE
ligand_5
    37    39     1     0     0
SMALL
NO_CHARGES
****
Generated from the CSD

@<TRIPOS>ATOM
     1 C1      -7.1426  -1.9803  -6.0559   C.3       1 RES1   0.0000
     2 C2      -6.3101  -3.2406  -5.9882   C.3       1 RES1   0.0000
     3 O3      -7.1617  -4.3710  -5.8188   O.3       1 RES1   0.0000
     4 C4      -6.6123  -5.7067  -5.7243   C.2       1 RES1   0.0000
     5 O5      -5.3974  -5.8343  -5.7943   O.2       1 RES1   0.0000
     6 C6      -7.5820  -6.8531  -5.5565   C.3       1 RES1   0.0000
     7 C7      -7.0058  -8.2634  -5.4686   C.3       1 RES1   0.0000
     8 C8      -8.2009  -9.2197  -5.2277   C.3       1 RES1   0.0000
     9 C9      -7.7393 -10.6767  -5.1454   C.3       1 RES1   0.0000
    10 C10     -8.9074 -11.6375  -4.9000   C.3       1 RES1   0.0000
    11 C11     -9.5187 -11.5620  -3.4866   C.3       1 RES1   0.0000
    12 C12     -9.8094 -13.0039  -3.0913   C.3       1 RES1   0.0000
    13 N13     -8.9783 -13.7679  -4.0021   N.am      1 RES1   0.0000
    14 C14     -8.5050 -13.0819  -5.0455   C.2       1 RES1   0.0000
    15 O15     -7.8300 -13.5436  -5.9387   O.2       1 RES1   0.0000
    16 N16     -9.2073  -8.9766  -6.2524   N.am      1 RES1   0.0000
    17 C17    -10.3152  -8.2395  -6.0702   C.2       1 RES1   0.0000
    18 O18    -10.6280  -7.6872  -5.0298   O.2       1 RES1   0.0000
    19 C19    -11.2185  -8.1234  -7.2590   C.3       1 RES1   0.0000
    20 C20    -12.4632  -8.9234  -6.8704   C.3       1 RES1   0.0000
    21 C21    -13.6452  -8.8540  -7.8174   C.2       1 RES1   0.0000
    22 C22    -14.6438  -7.8879  -7.6975   C.2       1 RES1   0.0000
    23 C23    -15.7179  -7.8781  -8.5877   C.2       1 RES1   0.0000
    24 C24    -15.8013  -8.8265  -9.6006   C.2       1 RES1   0.0000
    25 C25    -14.8124  -9.7958  -9.7208   C.2       1 RES1   0.0000
    26 C26    -13.7469  -9.8138  -8.8298   C.2       1 RES1   0.0000
    27 N27    -10.6561  -8.5936  -8.5222   N.am      1 RES1   0.0000
    28 C28     -9.7761  -7.9600  -9.2963   C.2       1 RES1   0.0000
    29 O29     -9.3227  -6.8457  -9.0034   O.2       1 RES1   0.0000
    30 C30     -9.3986  -8.7767 -10.4938   C.2       1 RES1   0.0000
    31 O31     -9.9571  -9.8530 -10.6098   O.2       1 RES1   0.0000
    32 N32     -8.5431  -8.5400 -11.4812   N.am      1 RES1   0.0000
    33 C33     -8.2253  -9.3701 -12.6053   C.3       1 RES1   0.0000
    34 C34     -9.3133  -9.2052 -13.6503   C.3       1 RES1   0.0000
    35 C35     -9.0128  -9.7606 -15.1105   C.3       1 RES1   0.0000
    36 C36     -9.1135  -8.3523 -15.6533   C.3       1 RES1   0.0000
    37 C37     -9.2955  -7.7294 -14.2604   C.3       1 RES1   0.0000
@<TRIPOS>BOND
     1     1     2    1
     2     2     3    1
     3     3     4    1
     4     4     5    2
     5     4     6    1
     6     6     7    1
     7     8     7    1
     8     8     9    1
     9    10     9    1
    10    10    11    1
    11    11    12    1
    12    12    13    1
    13    13    14   am
    14    14    15    2
    15     8    16    1
    16    16    17   am
    17    17    18    2
    18    17    19    1
    19    19    20    1
    20    20    21    1
    21    21    22    2
    22    22    23    1
    23    23    24    2
    24    24    25    1
    25    25    26    2
    26    19    27    1
    27    27    28   am
    28    28    29    2
    29    28    30    1
    30    30    31    2
    31    30    32   am
    32    32    33    1
    33    33    34    1
    34    34    35    1
    35    35    36    1
    36    36    37    1
    37    14    10    1
    38    26    21    1
    39    37    34    1
@<TRIPOS>SUBSTRUCTURE
     1 RES1        1 GROUP             0 ****  ****    0  
@<TRIPOS>MOLECULE
ligand_6
    37    39     1     0     0
SMALL
NO_CHARGES
****
Generated from the CSD

@<TRIPOS>ATOM
     1 C1      -7.6005  -2.1293  -6.3932   C.3       1 RES1   0.0000
     2 C2      -6.6979  -3.3367  -6.2776   C.3       1 RES1   0.0000
     3 O3      -7.4788  -4.4964  -6.0006   O.3       1 RES1   0.0000
     4 C4      -6.8536  -5.7920  -5.8421   C.2       1 RES1   0.0000
     5 O5      -5.6368  -5.8600  -5.9530   O.2       1 RES1   0.0000
     6 C6      -7.7516  -6.9740  -5.5608   C.3       1 RES1   0.0000
     7 C7      -7.0940  -8.3402  -5.3882   C.3       1 RES1   0.0000
     8 C8      -6.2354  -8.2629  -4.1007   C.3       1 RES1   0.0000
     9 C9      -5.5146  -9.5863  -3.8329   C.3       1 RES1   0.0000
    10 C10     -4.6539  -9.5269  -2.5665   C.3       1 RES1   0.0000
    11 C11     -3.3889  -8.6537  -2.6868   C.3       1 RES1   0.0000
    12 C12     -2.2942  -9.4202  -1.9560   C.3       1 RES1   0.0000
    13 N13     -2.8218 -10.7701  -1.8976   N.am      1 RES1   0.0000
    14 C14     -4.1254 -10.8795  -2.1657   C.2       1 RES1   0.0000
    15 O15     -4.7638 -11.9079  -2.1291   O.2       1 RES1   0.0000
    16 N16     -7.0815  -7.8189  -3.0012   N.am      1 RES1   0.0000
    17 C17     -7.0951  -6.5692  -2.5091   C.2       1 RES1   0.0000
    18 O18     -6.4001  -5.6503  -2.9066   O.2       1 RES1   0.0000
    19 C19     -8.0420  -6.3307  -1.3737   C.3       1 RES1   0.0000
    20 C20     -7.2900  -6.8323  -0.1395   C.3       1 RES1   0.0000
    21 C21     -7.9326  -6.5686   1.2081   C.2       1 RES1   0.0000
    22 C22     -7.6798  -5.4108   1.9434   C.2       1 RES1   0.0000
    23 C23     -8.2869  -5.2247   3.1856   C.2       1 RES1   0.0000
    24 C24     -9.1484  -6.1871   3.6992   C.2       1 RES1   0.0000
    25 C25     -9.3987  -7.3461   2.9738   C.2       1 RES1   0.0000
    26 C26     -8.7881  -7.5384   1.7412   C.2       1 RES1   0.0000
    27 N27     -9.3471  -6.9738  -1.5000   N.am      1 RES1   0.0000
    28 C28    -10.3683  -6.5791  -2.2593   C.2       1 RES1   0.0000
    29 O29    -10.3070  -5.5698  -2.9737   O.2       1 RES1   0.0000
    30 C30    -11.5307  -7.5187  -2.1614   C.2       1 RES1   0.0000
    31 O31    -11.4001  -8.4597  -1.3990   O.2       1 RES1   0.0000
    32 N32    -12.7113  -7.5179  -2.7688   N.am      1 RES1   0.0000
    33 C33    -13.7873  -8.4542  -2.6301   C.3       1 RES1   0.0000
    34 C34    -14.5566  -8.1219  -1.3649   C.3       1 RES1   0.0000
    35 C35    -15.9814  -8.8042  -1.1769   C.3       1 RES1   0.0000
    36 C36    -16.6267  -7.4365  -1.2099   C.3       1 RES1   0.0000
    37 C37    -15.3019  -6.7166  -1.5062   C.3       1 RES1   0.0000
@<TRIPOS>BOND
     1     1     2    1
     2     2     3    1
     3     3     4    1
     4     4     5    2
     5     4     6    1
     6     6     7    1
     7     8     7    1
     8     8     9    1
     9    10     9    1
    10    10    11    1
    11    11    12    1
    12    12    13    1
    13    13    14   am
    14    14    15    2
    15     8    16    1
    16    16    17   am
    17    17    18    2
    18    17    19    1
    19    19    20    1
    20    20    21    1
    21    21    22    2
    22    22    23    1
    23    23    24    2
    24    24    25    1
    25    25    26    2
    26    19    27    1
    27    27    28   am
    28    28    29    2
    29    28    30    1
    30    30    31    2
    31    30    32   am
    32    32    33    1
    33    33    34    1
    34    34    35    1
    35    35    36    1
    36    36    37    1
    37    14    10    1
    38    26    21    1
    39    37    34    1
@<TRIPOS>SUBSTRUCTURE
     1 RES1        1 GROUP             0 ****  ****    0  
@<TRIPOS>MOLECULE
ligand_7
    37    39     1     0     0
SMALL
NO_CHARGES
****
Generated from the CSD

@<TRIPOS>ATOM
     1 C1      -7.1357  -1.9842  -5.9987   C.3       1 RES1   0.0000
     2 C2      -6.3050  -3.2458  -5.9357   C.3       1 RES1   0.0000
     3 O3      -7.1586  -4.3764  -5.7780   O.3       1 RES1   0.0000
     4 C4      -6.6112  -5.7133  -5.6901   C.2       1 RES1   0.0000
     5 O5      -5.3960  -5.8419  -5.7554   O.2       1 RES1   0.0000
     6 C6      -7.5828  -6.8597  -5.5346   C.3       1 RES1   0.0000
     7 C7      -7.0086  -8.2713  -5.4537   C.3       1 RES1   0.0000
     8 C8      -8.2059  -9.2279  -5.2248   C.3       1 RES1   0.0000
     9 C9      -7.7462 -10.6859  -5.1504   C.3       1 RES1   0.0000
    10 C10     -8.9165 -11.6471  -4.9169   C.3       1 RES1   0.0000
    11 C11     -9.5342 -11.5805  -3.5058   C.3       1 RES1   0.0000
    12 C12     -9.8283 -13.0247  -3.1217   C.3       1 RES1   0.0000
    13 N13     -8.9938 -13.7834  -4.0339   N.am      1 RES1   0.0000
    14 C14     -8.5151 -13.0909  -5.0705   C.2       1 RES1   0.0000
    15 O15     -7.8365 -13.5472  -5.9637   O.2       1 RES1   0.0000
    16 N16     -9.2073  -8.9766  -6.2524   N.am      1 RES1   0.0000
    17 C17    -10.3152  -8.2395  -6.0702   C.2       1 RES1   0.0000
    18 O18    -10.6280  -7.6872  -5.0298   O.2       1 RES1   0.0000
    19 C19    -11.2185  -8.1234  -7.2590   C.3       1 RES1   0.0000
    20 C20    -11.0960  -6.6600  -7.6881   C.3       1 RES1   0.0000
    21 C21    -11.7726  -6.2683  -8.9871   C.2       1 RES1   0.0000
    22 C22    -11.1206  -6.3308 -10.2184   C.2       1 RES1   0.0000
    23 C23    -11.7856  -5.9446 -11.3823   C.2       1 RES1   0.0000
    24 C24    -13.1007  -5.4976 -11.3262   C.2       1 RES1   0.0000
    25 C25    -13.7533  -5.4269 -10.1010   C.2       1 RES1   0.0000
    26 C26    -13.0903  -5.8016  -8.9394   C.2       1 RES1   0.0000
    27 N27    -12.6115  -8.4954  -7.0269   N.am      1 RES1   0.0000
    28 C28    -13.5186  -8.8286  -7.9441   C.2       1 RES1   0.0000
    29 O29    -13.2522  -8.8631  -9.1527   O.2       1 RES1   0.0000
    30 C30    -14.8344  -9.1837  -7.3226   C.2       1 RES1   0.0000
    31 O31    -14.9015  -9.0857  -6.1103   O.2       1 RES1   0.0000
    32 N32    -15.9745  -9.5983  -7.8620   N.am      1 RES1   0.0000
    33 C33    -17.2061  -9.9243  -7.2057   C.3       1 RES1   0.0000
    34 C34    -17.9443  -8.6351  -6.8960   C.3       1 RES1   0.0000
    35 C35    -19.4744  -8.7530  -6.4768   C.3       1 RES1   0.0000
    36 C36    -19.8603  -7.9718  -7.7133   C.3       1 RES1   0.0000
    37 C37    -18.4181  -7.9151  -8.2404   C.3       1 RES1   0.0000
@<TRIPOS>BOND
     1     1     2    1
     2     2     3    1
     3     3     4    1
     4     4     5    2
     5     4     6    1
     6     6     7    1
     7     8     7    1
     8     8     9    1
     9    10     9    1
    10    10    11    1
    11    11    12    1
    12    12    13    1
    13    13    14   am
    14    14    15    2
    15     8    16    1
    16    16    17   am
    17    17    18    2
    18    17    19    1
    19    19    20    1
    20    20    21    1
    21    21    22    2
    22    22    23    1
    23    23    24    2
    24    24    25    1
    25    25    26    2
    26    19    27    1
    27    27    28   am
    28    28    29    2
    29    28    30    1
    30    30    31    2
    31    30    32   am
    32    32    33    1
    33    33    34    1
    34    34    35    1
    35    35    36    1
    36    36    37    1
    37    14    10    1
    38    26    21    1
    39    37    34    1
@<TRIPOS>SUBSTRUCTURE
     1 RES1        1 GROUP             0 ****  ****    0  
@<TRIPOS>MOLECULE
ligand_8
    37    39     1     0     0
SMALL
NO_CHARGES
****
Generated from the CSD

@<TRIPOS>ATOM
     1 C1      -7.2422  -1.9478  -6.2864   C.3       1 RES1   0.0000
     2 C2      -6.3898  -3.1936  -6.2022   C.3       1 RES1   0.0000
     3 O3      -7.2208  -4.3314  -5.9866   O.3       1 RES1   0.0000
     4 C4      -6.6498  -5.6560  -5.8682   C.2       1 RES1   0.0000
     5 O5      -5.4347  -5.7679  -5.9587   O.2       1 RES1   0.0000
     6 C6      -7.5987  -6.8115  -5.6514   C.3       1 RES1   0.0000
     7 C7      -6.9999  -8.2105  -5.5381   C.3       1 RES1   0.0000
     8 C8      -8.1751  -9.1768  -5.2443   C.3       1 RES1   0.0000
     9 C9      -7.6901 -10.6241  -5.1323   C.3       1 RES1   0.0000
    10 C10     -8.8301 -11.5880  -4.7868   C.3       1 RES1   0.0000
    11 C11     -9.3461 -11.4836  -3.3378   C.3       1 RES1   0.0000
    12 C12     -9.5961 -12.9179  -2.8904   C.3       1 RES1   0.0000
    13 N13     -8.8206 -13.6968  -3.8370   N.am      1 RES1   0.0000
    14 C14     -8.4247 -13.0322  -4.9255   C.2       1 RES1   0.0000
    15 O15     -7.8067 -13.5097  -5.8510   O.2       1 RES1   0.0000
    16 N16     -9.2073  -8.9766  -6.2524   N.am      1 RES1   0.0000
    17 C17    -10.3152  -8.2395  -6.0702   C.2       1 RES1   0.0000
    18 O18    -10.6280  -7.6872  -5.0298   O.2       1 RES1   0.0000
    19 C19    -11.2185  -8.1234  -7.2590   C.3       1 RES1   0.0000
    20 C20    -12.0421  -9.4125  -7.2382   C.3       1 RES1   0.0000
    21 C21    -12.9021  -9.6560  -6.0135   C.2       1 RES1   0.0000
    22 C22    -12.4350 -10.3502  -4.8978   C.2       1 RES1   0.0000
    23 C23    -13.2734 -10.5589  -3.8025   C.2       1 RES1   0.0000
    24 C24    -14.5770 -10.0764  -3.8119   C.2       1 RES1   0.0000
    25 C25    -15.0500  -9.3895  -4.9240   C.2       1 RES1   0.0000
    26 C26    -14.2205  -9.1888  -6.0198   C.2       1 RES1   0.0000
    27 N27    -10.5456  -7.9421  -8.5425   N.am      1 RES1   0.0000
    28 C28    -11.0804  -7.4835  -9.6733   C.2       1 RES1   0.0000
    29 O29    -12.2692  -7.1466  -9.7512   O.2       1 RES1   0.0000
    30 C30    -10.0671  -7.3959 -10.7730   C.2       1 RES1   0.0000
    31 O31     -8.9428  -7.7781 -10.5013   O.2       1 RES1   0.0000
    32 N32    -10.1681  -6.9659 -12.0250   N.am      1 RES1   0.0000
    33 C33     -9.1517  -6.9074 -13.0336   C.3       1 RES1   0.0000
    34 C34     -8.9868  -8.2914 -13.6339   C.3       1 RES1   0.0000
    35 C35     -8.1644  -8.4048 -14.9911   C.3       1 RES1   0.0000
    36 C36     -9.4089  -8.9074 -15.6886   C.3       1 RES1   0.0000
    37 C37    -10.2938  -8.7170 -14.4469   C.3       1 RES1   0.0000
@<TRIPOS>BOND
     1     1     2    1
     2     2     3    1
     3     3     4    1
     4     4     5    2
     5     4     6    1
     6     6     7    1
     7     8     7    1
     8     8     9    1
     9    10     9    1
    10    10    11    1
    11    11    12    1
    12    12    13    1
    13    13    14   am
    14    14    15    2
    15     8    16    1
    16    16    17   am
    17    17    18    2
    18    17    19    1
    19    19    20    1
    20    20    21    1
    21    21    22    2
    22    22    23    1
    23    23    24    2
    24    24    25    1
    25    25    26    2
    26    19    27    1
    27    27    28   am
    28    28    29    2
    29    28    30    1
    30    30    31    2
    31    30    32   am
    32    32    33    1
    33    33    34    1
    34    34    35    1
    35    35    36    1
    36    36    37    1
    37    14    10    1
    38    26    21    1
    39    37    34    1
@<TRIPOS>SUBSTRUCTURE
     1 RES1        1 GROUP             0 ****  ****    0  
@<TRIPOS>MOLECULE
ligand_9
    37    39     1     0     0
SMALL
NO_CHARGES
****
Generated from the CSD

@<TRIPOS>ATOM
     1 C1      -7.1357  -1.9842  -5.9987   C.3       1 RES1   0.0000
     2 C2      -6.3050  -3.2458  -5.9357   C.3       1 RES1   0.0000
     3 O3      -7.1585  -4.3764  -5.7780   O.3       1 RES1   0.0000
     4 C4      -6.6111  -5.7133  -5.6901   C.2       1 RES1   0.0000
     5 O5      -5.3960  -5.8419  -5.7554   O.2       1 RES1   0.0000
     6 C6      -7.5828  -6.8597  -5.5346   C.3       1 RES1   0.0000
     7 C7      -7.0086  -8.2713  -5.4537   C.3       1 RES1   0.0000
     8 C8      -8.2059  -9.2279  -5.2248   C.3       1 RES1   0.0000
     9 C9      -7.7462 -10.6859  -5.1504   C.3       1 RES1   0.0000
    10 C10     -8.9165 -11.6471  -4.9169   C.3       1 RES1   0.0000
    11 C11     -9.5342 -11.5805  -3.5058   C.3       1 RES1   0.0000
    12 C12     -9.8283 -13.0247  -3.1217   C.3       1 RES1   0.0000
    13 N13     -8.9938 -13.7834  -4.0339   N.am      1 RES1   0.0000
    14 C14     -8.5151 -13.0909  -5.0705   C.2       1 RES1   0.0000
    15 O15     -7.8365 -13.5472  -5.9637   O.2       1 RES1   0.0000
    16 N16     -9.2073  -8.9766  -6.2524   N.am      1 RES1   0.0000
    17 C17    -10.3152  -8.2395  -6.0702   C.2       1 RES1   0.0000
    18 O18    -10.6280  -7.6872  -5.0298   O.2       1 RES1   0.0000
    19 C19    -11.2185  -8.1234  -7.2590   C.3       1 RES1   0.0000
    20 C20    -10.5789  -7.0301  -8.1171   C.3       1 RES1   0.0000
    21 C21    -11.1804  -6.7968  -9.4891   C.2       1 RES1   0.0000
    22 C22    -10.7378  -7.4745 -10.6248   C.2       1 RES1   0.0000
    23 C23    -11.3167  -7.2111 -11.8664   C.2       1 RES1   0.0000
    24 C24    -12.3383  -6.2756 -11.9825   C.2       1 RES1   0.0000
    25 C25    -12.7789  -5.5923 -10.8551   C.2       1 RES1   0.0000
    26 C26    -12.1976  -5.8456  -9.6193   C.2       1 RES1   0.0000
    27 N27    -12.6142  -7.8161  -6.9585   N.am      1 RES1   0.0000
    28 C28    -13.5426  -8.6560  -6.5026   C.2       1 RES1   0.0000
    29 O29    -13.2986  -9.8485  -6.2760   O.2       1 RES1   0.0000
    30 C30    -14.8520  -7.9664  -6.2713   C.2       1 RES1   0.0000
    31 O31    -14.8957  -6.7832  -6.5577   O.2       1 RES1   0.0000
    32 N32    -16.0077  -8.4169  -5.7977   N.am      1 RES1   0.0000
    33 C33    -17.2319  -7.6988  -5.5991   C.3       1 RES1   0.0000
    34 C34    -17.9452  -7.5821  -6.9334   C.3       1 RES1   0.0000
    35 C35    -19.4691  -7.1260  -6.9087   C.3       1 RES1   0.0000
    36 C36    -19.8658  -8.4628  -7.4948   C.3       1 RES1   0.0000
    37 C37    -18.4326  -9.0147  -7.4438   C.3       1 RES1   0.0000
@<TRIPOS>BOND
     1     1     2    1
     2     2     3    1
     3     3     4    1
     4     4     5    2
     5     4     6    1
     6     6     7    1
     7     8     7    1
     8     8     9    1
     9    10     9    1
    10    10    11    1
    11    11    12    1
    12    12    13    1
    13    13    14   am
    14    14    15    2
    15     8    16    1
    16    16    17   am
    17    17    18    2
    18    17    19    1
    19    19    20    1
    20    20    21    1
    21    21    22    2
    22    22    23    1
    23    23    24    2
    24    24    25    1
    25    25    26    2
    26    19    27    1
    27    27    28   am
    28    28    29    2
    29    28    30    1
    30    30    31    2
    31    30    32   am
    32    32    33    1
    33    33    34    1
    34    34    35    1
    35    35    36    1
    36    36    37    1
    37    14    10    1
    38    26    21    1
    39    37    34    1
@<TRIPOS>SUBSTRUCTURE
     1 RES1        1 GROUP             0 ****  ****    0  
@<TRIPOS>MOLECULE
ligand_10
    37    39     1     0     0
SMALL
NO_CHARGES
****
Generated from the CSD

@<TRIPOS>ATOM
     1 C1      -7.3896  -1.9345  -5.8236   C.3       1 RES1   0.0000
     2 C2      -6.5153  -3.1676  -5.7939   C.3       1 RES1   0.0000
     3 O3      -7.3279  -4.3301  -5.6525   O.3       1 RES1   0.0000
     4 C4      -6.7340  -5.6487  -5.5971   C.2       1 RES1   0.0000
     5 O5      -5.5158  -5.7337  -5.6752   O.2       1 RES1   0.0000
     6 C6      -7.6641  -6.8310  -5.4572   C.3       1 RES1   0.0000
     7 C7      -7.0409  -8.2232  -5.4104   C.3       1 RES1   0.0000
     8 C8      -8.2059  -9.2279  -5.2248   C.3       1 RES1   0.0000
     9 C9      -7.6963 -10.6708  -5.1954   C.3       1 RES1   0.0000
    10 C10     -8.8341 -11.6793  -5.0051   C.3       1 RES1   0.0000
    11 C11     -9.4649 -11.6821  -3.5982   C.3       1 RES1   0.0000
    12 C12     -9.7115 -13.1479  -3.2657   C.3       1 RES1   0.0000
    13 N13     -8.8439 -13.8458  -4.1953   N.am      1 RES1   0.0000
    14 C14     -8.3814 -13.1023  -5.2036   C.2       1 RES1   0.0000
    15 O15     -7.6802 -13.5042  -6.1055   O.2       1 RES1   0.0000
    16 N16     -9.2073  -8.9766  -6.2524   N.am      1 RES1   0.0000
    17 C17    -10.5257  -8.8693  -6.0191   C.2       1 RES1   0.0000
    18 O18    -11.0556  -8.9668  -4.9260   O.2       1 RES1   0.0000
    19 C19    -11.3789  -8.6247  -7.2253   C.3       1 RES1   0.0000
    20 C20    -11.8868  -7.1925  -7.0477   C.3       1 RES1   0.0000
    21 C21    -12.6537  -6.5891  -8.2080   C.2       1 RES1   0.0000
    22 C22    -12.0257  -5.8788  -9.2308   C.2       1 RES1   0.0000
    23 C23    -12.7811  -5.3315 -10.2681   C.2       1 RES1   0.0000
    24 C24    -14.1618  -5.4906 -10.2932   C.2       1 RES1   0.0000
    25 C25    -14.7938  -6.1918  -9.2729   C.2       1 RES1   0.0000
    26 C26    -14.0452  -6.7295  -8.2338   C.2       1 RES1   0.0000
    27 N27    -12.4832  -9.5619  -7.4127   N.am      1 RES1   0.0000
    28 C28    -12.4107 -10.8069  -7.8815   C.2       1 RES1   0.0000
    29 O29    -11.3377 -11.3210  -8.2239   O.2       1 RES1   0.0000
    30 C30    -13.7499 -11.4778  -7.8892   C.2       1 RES1   0.0000
    31 O31    -14.6925 -10.8033  -7.5145   O.2       1 RES1   0.0000
    32 N32    -14.1121 -12.7067  -8.2375   N.am      1 RES1   0.0000
    33 C33    -15.4208 -13.2905  -8.2202   C.3       1 RES1   0.0000
    34 C34    -16.1701 -12.8327  -9.4579   C.3       1 RES1   0.0000
    35 C35    -17.5085 -13.6085  -9.8291   C.3       1 RES1   0.0000
    36 C36    -16.8691 -14.0680 -11.1206   C.3       1 RES1   0.0000
    37 C37    -15.5090 -13.4400 -10.7788   C.3       1 RES1   0.0000
@<TRIPOS>BOND
     1     1     2    1
     2     2     3    1
     3     3     4    1
     4     4     5    2
     5     4     6    1
     6     6     7    1
     7     8     7    1
     8     8     9    1
     9    10     9    1
    10    10    11    1
    11    11    12    1
    12    12    13    1
    13    13    14   am
    14    14    15    2
    15     8    16    1
    16    16    17   am
    17    17    18    2
    18    17    19    1
    19    19    20    1
    20    20    21    1
    21    21    22    2
    22    22    23    1
    23    23    24    2
    24    24    25    1
    25    25    26    2
    26    19    27    1
    27    27    28   am
    28    28    29    2
    29    28    30    1
    30    30    31    2
    31    30    32   am
    32    32    33    1
    33    33    34    1
    34    34    35    1
    35    35    36    1
    36    36    37    1
    37    14    10    1
    38    26    21    1
    39    37    34    1
@<TRIPOS>SUBSTRUCTURE
     1 RES1        1 GROUP             0 ****  ****    0  
@<TRIPOS>MOLECULE
ligand_11
    37    39     1     0     0
SMALL
NO_CHARGES
****
Generated from the CSD

@<TRIPOS>ATOM
     1 C1      -7.1649  -2.0270  -6.3547   C.3       1 RES1   0.0000
     2 C2      -6.3269  -3.2730  -6.1789   C.3       1 RES1   0.0000
     3 O3      -7.1769  -4.4035  -6.0026   O.3       1 RES1   0.0000
     4 C4      -6.6224  -5.7268  -5.8124   C.2       1 RES1   0.0000
     5 O5      -5.4044  -5.8439  -5.8078   O.2       1 RES1   0.0000
     6 C6      -7.5902  -6.8746  -5.6435   C.3       1 RES1   0.0000
     7 C7      -7.0079  -8.2724  -5.4547   C.3       1 RES1   0.0000
     8 C8      -8.2059  -9.2279  -5.2248   C.3       1 RES1   0.0000
     9 C9      -7.7474 -10.6862  -5.1493   C.3       1 RES1   0.0000
    10 C10     -6.7661 -10.9220  -3.9963   C.3       1 RES1   0.0000
    11 C11     -5.3149 -10.4893  -4.2858   C.3       1 RES1   0.0000
    12 C12     -4.4371 -11.5735  -3.6744   C.3       1 RES1   0.0000
    13 N13     -5.3512 -12.6897  -3.5239   N.am      1 RES1   0.0000
    14 C14     -6.6454 -12.3787  -3.6320   C.2       1 RES1   0.0000
    15 O15     -7.5654 -13.1546  -3.4969   O.2       1 RES1   0.0000
    16 N16     -9.2073  -8.9766  -6.2524   N.am      1 RES1   0.0000
    17 C17    -10.3152  -8.2395  -6.0702   C.2       1 RES1   0.0000
    18 O18    -10.6280  -7.6872  -5.0298   O.2       1 RES1   0.0000
    19 C19    -11.2185  -8.1234  -7.2590   C.3       1 RES1   0.0000
    20 C20    -12.0444  -9.4109  -7.2362   C.3       1 RES1   0.0000
    21 C21    -13.1807  -9.5134  -8.2347   C.2       1 RES1   0.0000
    22 C22    -14.4738  -9.0800  -7.9431   C.2       1 RES1   0.0000
    23 C23    -15.4864  -9.2109  -8.8938   C.2       1 RES1   0.0000
    24 C24    -15.2163  -9.7704 -10.1372   C.2       1 RES1   0.0000
    25 C25    -13.9308 -10.2102 -10.4310   C.2       1 RES1   0.0000
    26 C26    -12.9230 -10.0900  -9.4827   C.2       1 RES1   0.0000
    27 N27    -10.5455  -7.9451  -8.5429   N.am      1 RES1   0.0000
    28 C28     -9.9991  -6.8259  -9.0160   C.2       1 RES1   0.0000
    29 O29    -10.0091  -5.7658  -8.3764   O.2       1 RES1   0.0000
    30 C30     -9.3599  -7.0406 -10.3536   C.2       1 RES1   0.0000
    31 O31     -9.4576  -8.1600 -10.8239   O.2       1 RES1   0.0000
    32 N32     -8.6862  -6.2147 -11.1452   N.am      1 RES1   0.0000
    33 C33     -8.0952  -6.4857 -12.4224   C.3       1 RES1   0.0000
    34 C34     -9.1845  -6.4397 -13.4780   C.3       1 RES1   0.0000
    35 C35     -8.7237  -6.3760 -14.9994   C.3       1 RES1   0.0000
    36 C36     -9.3770  -5.0177 -15.1273   C.3       1 RES1   0.0000
    37 C37     -9.7563  -4.9573 -13.6395   C.3       1 RES1   0.0000
@<TRIPOS>BOND
     1     1     2    1
     2     2     3    1
     3     3     4    1
     4     4     5    2
     5     4     6    1
     6     6     7    1
     7     8     7    1
     8     8     9    1
     9    10     9    1
    10    10    11    1
    11    11    12    1
    12    12    13    1
    13    13    14   am
    14    14    15    2
    15     8    16    1
    16    16    17   am
    17    17    18    2
    18    17    19    1
    19    19    20    1
    20    20    21    1
    21    21    22    2
    22    22    23    1
    23    23    24    2
    24    24    25    1
    25    25    26    2
    26    19    27    1
    27    27    28   am
    28    28    29    2
    29    28    30    1
    30    30    31    2
    31    30    32   am
    32    32    33    1
    33    33    34    1
    34    34    35    1
    35    35    36    1
    36    36    37    1
    37    14    10    1
    38    26    21    1
    39    37    34    1
@<TRIPOS>SUBSTRUCTURE
     1 RES1        1 GROUP             0 ****  ****    0  
@<TRIPOS>MOLECULE
ligand_12
    37    39     1     0     0
SMALL
NO_CHARGES
****
Generated from the CSD

@<TRIPOS>ATOM
     1 C1      -7.6005  -2.1293  -6.3932   C.3       1 RES1   0.0000
     2 C2      -6.6979  -3.3367  -6.2776   C.3       1 RES1   0.0000
     3 O3      -7.4788  -4.4964  -6.0006   O.3       1 RES1   0.0000
     4 C4      -6.8536  -5.7920  -5.8421   C.2       1 RES1   0.0000
     5 O5      -5.6368  -5.8600  -5.9530   O.2       1 RES1   0.0000
     6 C6      -7.7516  -6.9740  -5.5608   C.3       1 RES1   0.0000
     7 C7      -7.0940  -8.3402  -5.3882   C.3       1 RES1   0.0000
     8 C8      -6.2354  -8.2629  -4.1007   C.3       1 RES1   0.0000
     9 C9      -5.5146  -9.5863  -3.8329   C.3       1 RES1   0.0000
    10 C10     -4.6539  -9.5269  -2.5665   C.3       1 RES1   0.0000
    11 C11     -3.3889  -8.6537  -2.6868   C.3       1 RES1   0.0000
    12 C12     -2.2942  -9.4202  -1.9560   C.3       1 RES1   0.0000
    13 N13     -2.8218 -10.7701  -1.8976   N.am      1 RES1   0.0000
    14 C14     -4.1254 -10.8795  -2.1657   C.2       1 RES1   0.0000
    15 O15     -4.7638 -11.9079  -2.1291   O.2       1 RES1   0.0000
    16 N16     -7.0815  -7.8189  -3.0012   N.am      1 RES1   0.0000
    17 C17     -7.0951  -6.5692  -2.5091   C.2       1 RES1   0.0000
    18 O18     -6.4001  -5.6503  -2.9066   O.2       1 RES1   0.0000
    19 C19     -8.0420  -6.3307  -1.3737   C.3       1 RES1   0.0000
    20 C20     -9.1197  -5.4184  -1.9627   C.3       1 RES1   0.0000
    21 C21    -10.3256  -5.1309  -1.0899   C.2       1 RES1   0.0000
    22 C22    -11.4696  -5.9283  -1.1088   C.2       1 RES1   0.0000
    23 C23    -12.5573  -5.6102  -0.2953   C.2       1 RES1   0.0000
    24 C24    -12.5102  -4.5007   0.5408   C.2       1 RES1   0.0000
    25 C25    -11.3752  -3.6985   0.5589   C.2       1 RES1   0.0000
    26 C26    -10.2946  -4.0074  -0.2573   C.2       1 RES1   0.0000
    27 N27     -7.4481  -5.7473  -0.1738   N.am      1 RES1   0.0000
    28 C28     -6.7136  -6.3722   0.7455   C.2       1 RES1   0.0000
    29 O29     -6.4472  -7.5788   0.6678   O.2       1 RES1   0.0000
    30 C30     -6.2407  -5.4336   1.8127   C.2       1 RES1   0.0000
    31 O31     -6.6115  -4.2773   1.7162   O.2       1 RES1   0.0000
    32 N32     -5.4695  -5.6321   2.8751   N.am      1 RES1   0.0000
    33 C33     -5.0509  -4.6834   3.8643   C.3       1 RES1   0.0000
    34 C34     -6.1837  -4.4870   4.8549   C.3       1 RES1   0.0000
    35 C35     -5.8394  -3.7445   6.2191   C.3       1 RES1   0.0000
    36 C36     -6.1952  -5.0029   6.9793   C.3       1 RES1   0.0000
    37 C37     -6.4363  -5.8186   5.6996   C.3       1 RES1   0.0000
@<TRIPOS>BOND
     1     1     2    1
     2     2     3    1
     3     3     4    1
     4     4     5    2
     5     4     6    1
     6     6     7    1
     7     8     7    1
     8     8     9    1
     9    10     9    1
    10    10    11    1
    11    11    12    1
    12    12    13    1
    13    13    14   am
    14    14    15    2
    15     8    16    1
    16    16    17   am
    17    17    18    2
    18    17    19    1
    19    19    20    1
    20    20    21    1
    21    21    22    2
    22    22    23    1
    23    23    24    2
    24    24    25    1
    25    25    26    2
    26    19    27    1
    27    27    28   am
    28    28    29    2
    29    28    30    1
    30    30    31    2
    31    30    32   am
    32    32    33    1
    33    33    34    1
    34    34    35    1
    35    35    36    1
    36    36    37    1
    37    14    10    1
    38    26    21    1
    39    37    34    1
@<TRIPOS>SUBSTRUCTURE
     1 RES1        1 GROUP             0 ****  ****    0  
@<TRIPOS>MOLECULE
ligand_13
    37    39     1     0     0
SMALL
NO_CHARGES
****
Generated from the CSD

@<TRIPOS>ATOM
     1 C1      -7.4044  -1.9261  -5.9123   C.3       1 RES1   0.0000
     2 C2      -6.5275  -3.1569  -5.8683   C.3       1 RES1   0.0000
     3 O3      -7.3374  -4.3193  -5.7116   O.3       1 RES1   0.0000
     4 C4      -6.7406  -5.6359  -5.6405   C.2       1 RES1   0.0000
     5 O5      -5.5223  -5.7192  -5.7189   O.2       1 RES1   0.0000
     6 C6      -7.6680  -6.8184  -5.4850   C.3       1 RES1   0.0000
     7 C7      -7.0417  -8.2085  -5.4217   C.3       1 RES1   0.0000
     8 C8      -8.2043  -9.2134  -5.2229   C.3       1 RES1   0.0000
     9 C9      -7.6916 -10.6547  -5.1766   C.3       1 RES1   0.0000
    10 C10     -8.8272 -11.6633  -4.9730   C.3       1 RES1   0.0000
    11 C11     -9.4565 -11.6505  -3.5656   C.3       1 RES1   0.0000
    12 C12     -9.6997 -13.1127  -3.2152   C.3       1 RES1   0.0000
    13 N13     -8.8315 -13.8199  -4.1372   N.am      1 RES1   0.0000
    14 C14     -8.3715 -13.0876  -5.1548   C.2       1 RES1   0.0000
    15 O15     -7.6704 -13.4988  -6.0525   O.2       1 RES1   0.0000
    16 N16     -9.2073  -8.9766  -6.2524   N.am      1 RES1   0.0000
    17 C17    -10.5257  -8.8693  -6.0191   C.2       1 RES1   0.0000
    18 O18    -11.0556  -8.9668  -4.9260   O.2       1 RES1   0.0000
    19 C19    -11.3789  -8.6247  -7.2253   C.3       1 RES1   0.0000
    20 C20    -11.5439 -10.0065  -7.8608   C.3       1 RES1   0.0000
    21 C21    -12.5121 -10.1147  -9.0225   C.2       1 RES1   0.0000
    22 C22    -13.8636 -10.4091  -8.8446   C.2       1 RES1   0.0000
    23 C23    -14.7085 -10.5113  -9.9501   C.2       1 RES1   0.0000
    24 C24    -14.2133 -10.3190 -11.2346   C.2       1 RES1   0.0000
    25 C25    -12.8657 -10.0320 -11.4184   C.2       1 RES1   0.0000
    26 C26    -12.0203  -9.9392 -10.3202   C.2       1 RES1   0.0000
    27 N27    -10.8486  -7.6580  -8.1830   N.am      1 RES1   0.0000
    28 C28    -11.5276  -7.0007  -9.1221   C.2       1 RES1   0.0000
    29 O29    -12.7468  -7.1485  -9.2793   O.2       1 RES1   0.0000
    30 C30    -10.6479  -6.0655  -9.8936   C.2       1 RES1   0.0000
    31 O31     -9.4679  -6.0633  -9.5912   O.2       1 RES1   0.0000
    32 N32    -10.9222  -5.2129 -10.8736   N.am      1 RES1   0.0000
    33 C33    -10.0273  -4.3395 -11.5737   C.3       1 RES1   0.0000
    34 C34     -9.2890  -5.1467 -12.6255   C.3       1 RES1   0.0000
    35 C35     -8.4964  -4.3378 -13.7428   C.3       1 RES1   0.0000
    36 C36     -9.4087  -4.9247 -14.7970   C.3       1 RES1   0.0000
    37 C37    -10.2905  -5.6450 -13.7653   C.3       1 RES1   0.0000
@<TRIPOS>BOND
     1     1     2    1
     2     2     3    1
     3     3     4    1
     4     4     5    2
     5     4     6    1
     6     6     7    1
     7     8     7    1
     8     8     9    1
     9    10     9    1
    10    10    11    1
    11    11    12    1
    12    12    13    1
    13    13    14   am
    14    14    15    2
    15     8    16    1
    16    16    17   am
    17    17    18    2
    18    17    19    1
    19    19    20    1
    20    20    21    1
    21    21    22    2
    22    22    23    1
    23    23    24    2
    24    24    25    1
    25    25    26    2
    26    19    27    1
    27    27    28   am
    28    28    29    2
    29    28    30    1
    30    30    31    2
    31    30    32   am
    32    32    33    1
    33    33    34    1
    34    34    35    1
    35    35    36    1
    36    36    37    1
    37    14    10    1
    38    26    21    1
    39    37    34    1
@<TRIPOS>SUBSTRUCTURE
     1 RES1        1 GROUP             0 ****  ****    0  
@<TRIPOS>MOLECULE
ligand_14
    37    39     1     0     0
SMALL
NO_CHARGES
****
Generated from the CSD

@<TRIPOS>ATOM
     1 C1      -7.1444  -1.9793  -6.0719   C.3       1 RES1   0.0000
     2 C2      -6.3116  -3.2392  -6.0027   C.3       1 RES1   0.0000
     3 O3      -7.1625  -4.3696  -5.8301   O.3       1 RES1   0.0000
     4 C4      -6.6127  -5.7049  -5.7338   C.2       1 RES1   0.0000
     5 O5      -5.3977  -5.8323  -5.8051   O.2       1 RES1   0.0000
     6 C6      -7.5817  -6.8513  -5.5626   C.3       1 RES1   0.0000
     7 C7      -7.0050  -8.2612  -5.4727   C.3       1 RES1   0.0000
     8 C8      -8.1996  -9.2175  -5.2285   C.3       1 RES1   0.0000
     9 C9      -7.7374 -10.6741  -5.1440   C.3       1 RES1   0.0000
    10 C10     -8.9049 -11.6349  -4.8953   C.3       1 RES1   0.0000
    11 C11     -9.5144 -11.5568  -3.4813   C.3       1 RES1   0.0000
    12 C12     -9.8042 -12.9980  -3.0829   C.3       1 RES1   0.0000
    13 N13     -8.9740 -13.7635  -3.9933   N.am      1 RES1   0.0000
    14 C14     -8.5022 -13.0794  -5.0386   C.2       1 RES1   0.0000
    15 O15     -7.8282 -13.5425  -5.9318   O.2       1 RES1   0.0000
    16 N16     -9.2073  -8.9766  -6.2524   N.am      1 RES1   0.0000
    17 C17    -10.3152  -8.2395  -6.0702   C.2       1 RES1   0.0000
    18 O18    -10.6280  -7.6872  -5.0298   O.2       1 RES1   0.0000
    19 C19    -11.2185  -8.1234  -7.2590   C.3       1 RES1   0.0000
    20 C20    -12.4068  -9.0266  -6.9234   C.3       1 RES1   0.0000
    21 C21    -13.2126  -8.6681  -5.6901   C.2       1 RES1   0.0000
    22 C22    -12.9448  -9.2169  -4.4363   C.2       1 RES1   0.0000
    23 C23    -13.7270  -8.8633  -3.3366   C.2       1 RES1   0.0000
    24 C24    -14.7755  -7.9619  -3.4793   C.2       1 RES1   0.0000
    25 C25    -15.0512  -7.4168  -4.7279   C.2       1 RES1   0.0000
    26 C26    -14.2801  -7.7746  -5.8265   C.2       1 RES1   0.0000
    27 N27    -10.6187  -8.4866  -8.5401   N.am      1 RES1   0.0000
    28 C28     -9.7808  -7.7540  -9.2725   C.2       1 RES1   0.0000
    29 O29     -9.4071  -6.6281  -8.9181   O.2       1 RES1   0.0000
    30 C30     -9.3418  -8.4785 -10.5079   C.2       1 RES1   0.0000
    31 O31     -9.8239  -9.5831 -10.6846   O.2       1 RES1   0.0000
    32 N32     -8.4999  -8.1319 -11.4741   N.am      1 RES1   0.0000
    33 C33     -8.1199  -8.8778 -12.6373   C.3       1 RES1   0.0000
    34 C34     -9.2115  -8.7333 -13.6815   C.3       1 RES1   0.0000
    35 C35     -8.8661  -9.1890 -15.1661   C.3       1 RES1   0.0000
    36 C36     -9.0614  -7.7644 -15.6354   C.3       1 RES1   0.0000
    37 C37     -9.2929  -7.2297 -14.2136   C.3       1 RES1   0.0000
@<TRIPOS>BOND
     1     1     2    1
     2     2     3    1
     3     3     4    1
     4     4     5    2
     5     4     6    1
     6     6     7    1
     7     8     7    1
     8     8     9    1
     9    10     9    1
    10    10    11    1
    11    11    12    1
    12    12    13    1
    13    13    14   am
    14    14    15    2
    15     8    16    1
    16    16    17   am
    17    17    18    2
    18    17    19    1
    19    19    20    1
    20    20    21    1
    21    21    22    2
    22    22    23    1
    23    23    24    2
    24    24    25    1
    25    25    26    2
    26    19    27    1
    27    27    28   am
    28    28    29    2
    29    28    30    1
    30    30    31    2
    31    30    32   am
    32    32    33    1
    33    33    34    1
    34    34    35    1
    35    35    36    1
    36    36    37    1
    37    14    10    1
    38    26    21    1
    39    37    34    1
@<TRIPOS>SUBSTRUCTURE
     1 RES1        1 GROUP             0 ****  ****    0  
@<TRIPOS>MOLECULE
ligand_15
    37    39     1     0     0
SMALL
NO_CHARGES
****
Generated from the CSD

@<TRIPOS>ATOM
     1 C1      -7.2055  -1.9638  -6.5021   C.3       1 RES1   0.0000
     2 C2      -6.3589  -3.2120  -6.3972   C.3       1 RES1   0.0000
     3 O3      -7.1928  -4.3384  -6.1376   O.3       1 RES1   0.0000
     4 C4      -6.6275  -5.6628  -5.9920   C.2       1 RES1   0.0000
     5 O5      -5.4145  -5.7844  -6.0984   O.2       1 RES1   0.0000
     6 C6      -7.5793  -6.8062  -5.7288   C.3       1 RES1   0.0000
     7 C7      -6.9866  -8.2052  -5.5867   C.3       1 RES1   0.0000
     8 C8      -8.1631  -9.1567  -5.2528   C.3       1 RES1   0.0000
     9 C9      -7.6846 -10.6034  -5.1098   C.3       1 RES1   0.0000
    10 C10     -8.8339 -11.5590  -4.7721   C.3       1 RES1   0.0000
    11 C11     -9.3957 -11.4128  -3.3438   C.3       1 RES1   0.0000
    12 C12     -9.6582 -12.8338  -2.8622   C.3       1 RES1   0.0000
    13 N13     -8.8522 -13.6388  -3.7603   N.am      1 RES1   0.0000
    14 C14     -8.4228 -13.0059  -4.8549   C.2       1 RES1   0.0000
    15 O15     -7.7752 -13.5093  -5.7459   O.2       1 RES1   0.0000
    16 N16     -9.2073  -8.9766  -6.2524   N.am      1 RES1   0.0000
    17 C17    -10.3152  -8.2395  -6.0702   C.2       1 RES1   0.0000
    18 O18    -10.6280  -7.6872  -5.0298   O.2       1 RES1   0.0000
    19 C19    -11.2185  -8.1234  -7.2590   C.3       1 RES1   0.0000
    20 C20    -12.3754  -9.0762  -6.9521   C.3       1 RES1   0.0000
    21 C21    -13.5531  -9.0532  -7.9066   C.2       1 RES1   0.0000
    22 C22    -14.6474  -8.2081  -7.7238   C.2       1 RES1   0.0000
    23 C23    -15.7119  -8.2376  -8.6249   C.2       1 RES1   0.0000
    24 C24    -15.6910  -9.1050  -9.7110   C.2       1 RES1   0.0000
    25 C25    -14.6061  -9.9544  -9.8943   C.2       1 RES1   0.0000
    26 C26    -13.5492  -9.9339  -8.9933   C.2       1 RES1   0.0000
    27 N27    -10.6025  -8.4311  -8.5470   N.am      1 RES1   0.0000
    28 C28    -11.0347  -8.0655  -9.7531   C.2       1 RES1   0.0000
    29 O29    -12.0584  -7.3867  -9.9088   O.2       1 RES1   0.0000
    30 C30    -10.1169  -8.5356 -10.8395   C.2       1 RES1   0.0000
    31 O31     -9.1566  -9.1959 -10.4853   O.2       1 RES1   0.0000
    32 N32    -10.1552  -8.3611 -12.1551   N.am      1 RES1   0.0000
    33 C33     -9.2379  -8.8404 -13.1464   C.3       1 RES1   0.0000
    34 C34     -9.5572 -10.2953 -13.4364   C.3       1 RES1   0.0000
    35 C35     -8.8999 -10.9422 -14.7328   C.3       1 RES1   0.0000
    36 C36    -10.2807 -11.1479 -15.3150   C.3       1 RES1   0.0000
    37 C37    -10.9801 -10.4333 -14.1483   C.3       1 RES1   0.0000
@<TRIPOS>BOND
     1     1     2    1
     2     2     3    1
     3     3     4    1
     4     4     5    2
     5     4     6    1
     6     6     7    1
     7     8     7    1
     8     8     9    1
     9    10     9    1
    10    10    11    1
    11    11    12    1
    12    12    13    1
    13    13    14   am
    14    14    15    2
    15     8    16    1
    16    16    17   am
    17    17    18    2
    18    17    19    1
    19    19    20    1
    20    20    21    1
    21    21    22    2
    22    22    23    1
    23    23    24    2
    24    24    25    1
    25    25    26    2
    26    19    27    1
    27    27    28   am
    28    28    29    2
    29    28    30    1
    30    30    31    2
    31    30    32   am
    32    32    33    1
    33    33    34    1
    34    34    35    1
    35    35    36    1
    36    36    37    1
    37    14    10    1
    38    26    21    1
    39    37    34    1
@<TRIPOS>SUBSTRUCTURE
     1 RES1        1 GROUP             0 ****  ****    0  
@<TRIPOS>MOLECULE
ligand_16
    37    39     1     0     0
SMALL
NO_CHARGES
****
Generated from the CSD

@<TRIPOS>ATOM
     1 C1      -7.7279  -2.1076  -6.3277   C.3       1 RES1   0.0000
     2 C2      -6.8172  -3.3118  -6.2489   C.3       1 RES1   0.0000
     3 O3      -7.5848  -4.4774  -5.9592   O.3       1 RES1   0.0000
     4 C4      -6.9496  -5.7714  -5.8301   C.2       1 RES1   0.0000
     5 O5      -5.7363  -5.8330  -5.9771   O.2       1 RES1   0.0000
     6 C6      -7.8339  -6.9598  -5.5329   C.3       1 RES1   0.0000
     7 C7      -7.1656  -8.3242  -5.3902   C.3       1 RES1   0.0000
     8 C8      -6.2680  -8.2520  -4.1292   C.3       1 RES1   0.0000
     9 C9      -5.5340  -9.5742  -3.8928   C.3       1 RES1   0.0000
    10 C10     -4.5985  -9.5045  -2.6813   C.3       1 RES1   0.0000
    11 C11     -3.3288  -8.6564  -2.8947   C.3       1 RES1   0.0000
    12 C12     -2.2052  -9.4272  -2.2141   C.3       1 RES1   0.0000
    13 N13     -2.7505 -10.7662  -2.0960   N.am      1 RES1   0.0000
    14 C14     -4.0694 -10.8578  -2.2839   C.2       1 RES1   0.0000
    15 O15     -4.7212 -11.8739  -2.1878   O.2       1 RES1   0.0000
    16 N16     -7.0815  -7.8189  -3.0012   N.am      1 RES1   0.0000
    17 C17     -7.0951  -6.5692  -2.5091   C.2       1 RES1   0.0000
    18 O18     -6.4001  -5.6503  -2.9066   O.2       1 RES1   0.0000
    19 C19     -8.0420  -6.3307  -1.3737   C.3       1 RES1   0.0000
    20 C20     -7.2745  -6.7950  -0.1344   C.3       1 RES1   0.0000
    21 C21     -5.9744  -6.0787   0.1742   C.2       1 RES1   0.0000
    22 C22     -4.7449  -6.5152  -0.3186   C.2       1 RES1   0.0000
    23 C23     -3.5763  -5.8269   0.0082   C.2       1 RES1   0.0000
    24 C24     -3.6265  -4.7020   0.8232   C.2       1 RES1   0.0000
    25 C25     -4.8483  -4.2663   1.3227   C.2       1 RES1   0.0000
    26 C26     -6.0122  -4.9554   1.0068   C.2       1 RES1   0.0000
    27 N27     -9.3339  -7.0029  -1.4829   N.am      1 RES1   0.0000
    28 C28    -10.3663  -6.6428  -2.2443   C.2       1 RES1   0.0000
    29 O29    -10.3291  -5.6450  -2.9763   O.2       1 RES1   0.0000
    30 C30    -11.5084  -7.6045  -2.1248   C.2       1 RES1   0.0000
    31 O31    -11.3550  -8.5292  -1.3468   O.2       1 RES1   0.0000
    32 N32    -12.6913  -7.6388  -2.7267   N.am      1 RES1   0.0000
    33 C33    -13.7470  -8.5948  -2.5669   C.3       1 RES1   0.0000
    34 C34    -14.5177  -8.2566  -1.3042   C.3       1 RES1   0.0000
    35 C35    -15.9272  -8.9649  -1.0979   C.3       1 RES1   0.0000
    36 C36    -16.6010  -7.6118  -1.1516   C.3       1 RES1   0.0000
    37 C37    -15.2928  -6.8697  -1.4664   C.3       1 RES1   0.0000
@<TRIPOS>BOND
     1     1     2    1
     2     2     3    1
     3     3     4    1
     4     4     5    2
     5     4     6    1
     6     6     7    1
     7     8     7    1
     8     8     9    1
     9    10     9    1
    10    10    11    1
    11    11    12    1
    12    12    13    1
    13    13    14   am
    14    14    15    2
    15     8    16    1
    16    16    17   am
    17    17    18    2
    18    17    19    1
    19    19    20    1
    20    20    21    1
    21    21    22    2
    22    22    23    1
    23    23    24    2
    24    24    25    1
    25    25    26    2
    26    19    27    1
    27    27    28   am
    28    28    29    2
    29    28    30    1
    30    30    31    2
    31    30    32   am
    32    32    33    1
    33    33    34    1
    34    34    35    1
    35    35    36    1
    36    36    37    1
    37    14    10    1
    38    26    21    1
    39    37    34    1
@<TRIPOS>SUBSTRUCTURE
     1 RES1        1 GROUP             0 ****  ****    0  
@<TRIPOS>MOLECULE
ligand_17
    37    39     1     0     0
SMALL
NO_CHARGES
****
Generated from the CSD

@<TRIPOS>ATOM
     1 C1      -7.6583  -2.1285  -6.3770   C.3       1 RES1   0.0000
     2 C2      -6.7494  -3.3322  -6.2721   C.3       1 RES1   0.0000
     3 O3      -7.5229  -4.4958  -5.9902   O.3       1 RES1   0.0000
     4 C4      -6.8906  -5.7890  -5.8398   C.2       1 RES1   0.0000
     5 O5      -5.6747  -5.8515  -5.9620   O.2       1 RES1   0.0000
     6 C6      -7.7809  -6.9753  -5.5526   C.3       1 RES1   0.0000
     7 C7      -7.1159  -8.3389  -5.3882   C.3       1 RES1   0.0000
     8 C8      -6.2449  -8.2597  -4.1092   C.3       1 RES1   0.0000
     9 C9      -5.5173  -9.5809  -3.8493   C.3       1 RES1   0.0000
    10 C10     -4.6443  -9.5195  -2.5914   C.3       1 RES1   0.0000
    11 C11     -3.3834  -8.6422  -2.7236   C.3       1 RES1   0.0000
    12 C12     -2.2791  -9.4056  -2.0041   C.3       1 RES1   0.0000
    13 N13     -2.8019 -10.7573  -1.9413   N.am      1 RES1   0.0000
    14 C14     -4.1077 -10.8706  -2.1966   C.2       1 RES1   0.0000
    15 O15     -4.7424 -11.9011  -2.1542   O.2       1 RES1   0.0000
    16 N16     -7.0815  -7.8189  -3.0012   N.am      1 RES1   0.0000
    17 C17     -7.0951  -6.5692  -2.5091   C.2       1 RES1   0.0000
    18 O18     -6.4001  -5.6503  -2.9066   O.2       1 RES1   0.0000
    19 C19     -8.0420  -6.3307  -1.3737   C.3       1 RES1   0.0000
    20 C20     -7.3052  -6.8671  -0.1449   C.3       1 RES1   0.0000
    21 C21     -7.9465  -6.6097   1.2046   C.2       1 RES1   0.0000
    22 C22     -7.6711  -5.4689   1.9580   C.2       1 RES1   0.0000
    23 C23     -8.2782  -5.2883   3.2010   C.2       1 RES1   0.0000
    24 C24     -9.1621  -6.2394   3.6974   C.2       1 RES1   0.0000
    25 C25     -9.4352  -7.3816   2.9538   C.2       1 RES1   0.0000
    26 C26     -8.8247  -7.5686   1.7203   C.2       1 RES1   0.0000
    27 N27     -9.3589  -6.9459  -1.5157   N.am      1 RES1   0.0000
    28 C28    -10.4745  -6.6174  -0.8655   C.2       1 RES1   0.0000
    29 O29    -10.5074  -5.7006  -0.0341   O.2       1 RES1   0.0000
    30 C30    -11.6395  -7.4515  -1.3021   C.2       1 RES1   0.0000
    31 O31    -11.4058  -8.3097  -2.1345   O.2       1 RES1   0.0000
    32 N32    -12.9171  -7.4290  -0.9415   N.am      1 RES1   0.0000
    33 C33    -13.9895  -8.2606  -1.4020   C.3       1 RES1   0.0000
    34 C34    -13.9169  -9.5899  -0.6735   C.3       1 RES1   0.0000
    35 C35    -15.1869 -10.5434  -0.7668   C.3       1 RES1   0.0000
    36 C36    -15.3753 -10.4180   0.7287   C.3       1 RES1   0.0000
    37 C37    -14.2316  -9.4033   0.8811   C.3       1 RES1   0.0000
@<TRIPOS>BOND
     1     1     2    1
     2     2     3    1
     3     3     4    1
     4     4     5    2
     5     4     6    1
     6     6     7    1
     7     8     7    1
     8     8     9    1
     9    10     9    1
    10    10    11    1
    11    11    12    1
    12    12    13    1
    13    13    14   am
    14    14    15    2
    15     8    16    1
    16    16    17   am
    17    17    18    2
    18    17    19    1
    19    19    20    1
    20    20    21    1
    21    21    22    2
    22    22    23    1
    23    23    24    2
    24    24    25    1
    25    25    26    2
    26    19    27    1
    27    27    28   am
    28    28    29    2
    29    28    30    1
    30    30    31    2
    31    30    32   am
    32    32    33    1
    33    33    34    1
    34    34    35    1
    35    35    36    1
    36    36    37    1
    37    14    10    1
    38    26    21    1
    39    37    34    1
@<TRIPOS>SUBSTRUCTURE
     1 RES1        1 GROUP             0 ****  ****    0  
@<TRIPOS>MOLECULE
ligand_18
    37    39     1     0     0
SMALL
NO_CHARGES
****
Generated from the CSD

@<TRIPOS>ATOM
     1 C1      -7.1649  -2.0270  -6.3547   C.3       1 RES1   0.0000
     2 C2      -6.3269  -3.2730  -6.1789   C.3       1 RES1   0.0000
     3 O3      -7.1769  -4.4035  -6.0026   O.3       1 RES1   0.0000
     4 C4      -6.6224  -5.7268  -5.8124   C.2       1 RES1   0.0000
     5 O5      -5.4044  -5.8439  -5.8078   O.2       1 RES1   0.0000
     6 C6      -7.5902  -6.8746  -5.6435   C.3       1 RES1   0.0000
     7 C7      -7.0079  -8.2724  -5.4547   C.3       1 RES1   0.0000
     8 C8      -8.2059  -9.2279  -5.2248   C.3       1 RES1   0.0000
     9 C9      -7.7474 -10.6862  -5.1493   C.3       1 RES1   0.0000
    10 C10     -6.7661 -10.9220  -3.9963   C.3       1 RES1   0.0000
    11 C11     -5.3149 -10.4893  -4.2858   C.3       1 RES1   0.0000
    12 C12     -4.4371 -11.5735  -3.6744   C.3       1 RES1   0.0000
    13 N13     -5.3512 -12.6897  -3.5239   N.am      1 RES1   0.0000
    14 C14     -6.6454 -12.3787  -3.6320   C.2       1 RES1   0.0000
    15 O15     -7.5654 -13.1546  -3.4969   O.2       1 RES1   0.0000
    16 N16     -9.2073  -8.9766  -6.2524   N.am      1 RES1   0.0000
    17 C17    -10.3152  -8.2395  -6.0702   C.2       1 RES1   0.0000
    18 O18    -10.6280  -7.6872  -5.0298   O.2       1 RES1   0.0000
    19 C19    -11.2185  -8.1234  -7.2590   C.3       1 RES1   0.0000
    20 C20    -11.0960  -6.6600  -7.6881   C.3       1 RES1   0.0000
    21 C21    -11.7751  -6.2677  -8.9856   C.2       1 RES1   0.0000
    22 C22    -11.1258  -6.3304 -10.2182   C.2       1 RES1   0.0000
    23 C23    -11.7930  -5.9435 -11.3807   C.2       1 RES1   0.0000
    24 C24    -13.1077  -5.4957 -11.3217   C.2       1 RES1   0.0000
    25 C25    -13.7577  -5.4248 -10.0951   C.2       1 RES1   0.0000
    26 C26    -13.0925  -5.8002  -8.9350   C.2       1 RES1   0.0000
    27 N27    -12.6115  -8.4954  -7.0269   N.am      1 RES1   0.0000
    28 C28    -13.1105  -9.7274  -6.9355   C.2       1 RES1   0.0000
    29 O29    -12.4008 -10.7360  -7.0448   O.2       1 RES1   0.0000
    30 C30    -14.5805  -9.7128  -6.6482   C.2       1 RES1   0.0000
    31 O31    -15.1048  -8.6156  -6.5778   O.2       1 RES1   0.0000
    32 N32    -15.4440 -10.7015  -6.4491   N.am      1 RES1   0.0000
    33 C33    -16.8484 -10.6188  -6.1757   C.3       1 RES1   0.0000
    34 C34    -17.5818 -10.3829  -7.4831   C.3       1 RES1   0.0000
    35 C35    -19.1591 -10.5905  -7.4826   C.3       1 RES1   0.0000
    36 C36    -18.9978 -11.7227  -8.4727   C.3       1 RES1   0.0000
    37 C37    -17.4630 -11.6570  -8.4386   C.3       1 RES1   0.0000
@<TRIPOS>BOND
     1     1     2    1
     2     2     3    1
     3     3     4    1
     4     4     5    2
     5     4     6    1
     6     6     7    1
     7     8     7    1
     8     8     9    1
     9    10     9    1
    10    10    11    1
    11    11    12    1
    12    12    13    1
    13    13    14   am
    14    14    15    2
    15     8    16    1
    16    16    17   am
    17    17    18    2
    18    17    19    1
    19    19    20    1
    20    20    21    1
    21    21    22    2
    22    22    23    1
    23    23    24    2
    24    24    25    1
    25    25    26    2
    26    19    27    1
    27    27    28   am
    28    28    29    2
    29    28    30    1
    30    30    31    2
    31    30    32   am
    32    32    33    1
    33    33    34    1
    34    34    35    1
    35    35    36    1
    36    36    37    1
    37    14    10    1
    38    26    21    1
    39    37    34    1
@<TRIPOS>SUBSTRUCTURE
     1 RES1        1 GROUP             0 ****  ****    0  
@<TRIPOS>MOLECULE
ligand_19
    37    39     1     0     0
SMALL
NO_CHARGES
****
Generated from the CSD

@<TRIPOS>ATOM
     1 C1      -7.0891  -1.9979  -6.0054   C.3       1 RES1   0.0000
     2 C2      -6.2671  -3.2651  -5.9412   C.3       1 RES1   0.0000
     3 O3      -7.1283  -4.3896  -5.7812   O.3       1 RES1   0.0000
     4 C4      -6.5901  -5.7301  -5.6919   C.2       1 RES1   0.0000
     5 O5      -5.3759  -5.8671  -5.7578   O.2       1 RES1   0.0000
     6 C6      -7.5696  -6.8695  -5.5340   C.3       1 RES1   0.0000
     7 C7      -7.0051  -8.2849  -5.4515   C.3       1 RES1   0.0000
     8 C8      -8.2091  -9.2331  -5.2230   C.3       1 RES1   0.0000
     9 C9      -7.7593 -10.6941  -5.1459   C.3       1 RES1   0.0000
    10 C10     -8.9364 -11.6471  -4.9127   C.3       1 RES1   0.0000
    11 C11     -9.5556 -11.5744  -3.5027   C.3       1 RES1   0.0000
    12 C12     -9.8599 -13.0161  -3.1169   C.3       1 RES1   0.0000
    13 N13     -9.0293 -13.7816  -4.0269   N.am      1 RES1   0.0000
    14 C14     -8.5444 -13.0937  -5.0637   C.2       1 RES1   0.0000
    15 O15     -7.8675 -13.5558  -5.9553   O.2       1 RES1   0.0000
    16 N16     -9.2073  -8.9766  -6.2524   N.am      1 RES1   0.0000
    17 C17    -10.3152  -8.2395  -6.0702   C.2       1 RES1   0.0000
    18 O18    -10.6280  -7.6872  -5.0298   O.2       1 RES1   0.0000
    19 C19    -11.2185  -8.1234  -7.2590   C.3       1 RES1   0.0000
    20 C20    -11.0296  -6.6837  -7.7408   C.3       1 RES1   0.0000
    21 C21    -11.4869  -5.5826  -6.8043   C.2       1 RES1   0.0000
    22 C22    -10.6347  -4.9925  -5.8713   C.2       1 RES1   0.0000
    23 C23    -11.1111  -3.9926  -5.0232   C.2       1 RES1   0.0000
    24 C24    -12.4345  -3.5748  -5.1014   C.2       1 RES1   0.0000
    25 C25    -13.2903  -4.1640  -6.0247   C.2       1 RES1   0.0000
    26 C26    -12.8211  -5.1666  -6.8638   C.2       1 RES1   0.0000
    27 N27    -12.6262  -8.4207  -7.0085   N.am      1 RES1   0.0000
    28 C28    -13.1815  -9.6236  -6.8679   C.2       1 RES1   0.0000
    29 O29    -12.5200 -10.6677  -6.9401   O.2       1 RES1   0.0000
    30 C30    -14.6479  -9.5294  -6.5769   C.2       1 RES1   0.0000
    31 O31    -15.1202  -8.4069  -6.5475   O.2       1 RES1   0.0000
    32 N32    -15.5555 -10.4682  -6.3371   N.am      1 RES1   0.0000
    33 C33    -16.9531 -10.3095  -6.0628   C.3       1 RES1   0.0000
    34 C34    -17.6811 -10.0904  -7.3762   C.3       1 RES1   0.0000
    35 C35    -19.2663 -10.2239  -7.3629   C.3       1 RES1   0.0000
    36 C36    -19.1626 -11.3998  -8.3088   C.3       1 RES1   0.0000
    37 C37    -17.6263 -11.4046  -8.2819   C.3       1 RES1   0.0000
@<TRIPOS>BOND
     1     1     2    1
     2     2     3    1
     3     3     4    1
     4     4     5    2
     5     4     6    1
     6     6     7    1
     7     8     7    1
     8     8     9    1
     9    10     9    1
    10    10    11    1
    11    11    12    1
    12    12    13    1
    13    13    14   am
    14    14    15    2
    15     8    16    1
    16    16    17   am
    17    17    18    2
    18    17    19    1
    19    19    20    1
    20    20    21    1
    21    21    22    2
    22    22    23    1
    23    23    24    2
    24    24    25    1
    25    25    26    2
    26    19    27    1
    27    27    28   am
    28    28    29    2
    29    28    30    1
    30    30    31    2
    31    30    32   am
    32    32    33    1
    33    33    34    1
    34    34    35    1
    35    35    36    1
    36    36    37    1
    37    14    10    1
    38    26    21    1
    39    37    34    1
@<TRIPOS>SUBSTRUCTURE
     1 RES1        1 GROUP             0 ****  ****    0  
@<TRIPOS>MOLECULE
ligand_20
    37    39     1     0     0
SMALL
NO_CHARGES
****
Generated from the CSD

@<TRIPOS>ATOM
     1 C1      -7.3652  -1.9216  -5.5703   C.3       1 RES1   0.0000
     2 C2      -6.4948  -3.1578  -5.5716   C.3       1 RES1   0.0000
     3 O3      -7.3131  -4.3225  -5.4973   O.3       1 RES1   0.0000
     4 C4      -6.7237  -5.6442  -5.4829   C.2       1 RES1   0.0000
     5 O5      -5.5043  -5.7299  -5.5363   O.2       1 RES1   0.0000
     6 C6      -7.6596  -6.8283  -5.4138   C.3       1 RES1   0.0000
     7 C7      -7.0409  -8.2232  -5.4104   C.3       1 RES1   0.0000
     8 C8      -8.2059  -9.2279  -5.2248   C.3       1 RES1   0.0000
     9 C9      -9.2700  -9.0520  -6.3107   C.3       1 RES1   0.0000
    10 C10    -10.3853 -10.0968  -6.1981   C.3       1 RES1   0.0000
    11 C11     -9.9682 -11.5297  -6.5849   C.3       1 RES1   0.0000
    12 C12    -11.1461 -12.1003  -7.3639   C.3       1 RES1   0.0000
    13 N13    -11.8834 -10.9151  -7.7588   N.am      1 RES1   0.0000
    14 C14    -11.5479  -9.7981  -7.1085   C.2       1 RES1   0.0000
    15 O15    -12.0707  -8.7163  -7.2595   O.2       1 RES1   0.0000
    16 N16     -8.7206  -9.1004  -3.8681   N.am      1 RES1   0.0000
    17 C17     -8.3717  -9.8972  -2.8446   C.2       1 RES1   0.0000
    18 O18     -7.5846 -10.8252  -2.9137   O.2       1 RES1   0.0000
    19 C19     -9.0349  -9.5978  -1.5357   C.3       1 RES1   0.0000
    20 C20    -10.3984 -10.2846  -1.6346   C.3       1 RES1   0.0000
    21 C21    -11.2490 -10.3020  -0.3796   C.2       1 RES1   0.0000
    22 C22    -11.1773 -11.3318   0.5581   C.2       1 RES1   0.0000
    23 C23    -11.9935 -11.3057   1.6892   C.2       1 RES1   0.0000
    24 C24    -12.8811 -10.2555   1.8926   C.2       1 RES1   0.0000
    25 C25    -12.9617  -9.2298   0.9579   C.2       1 RES1   0.0000
    26 C26    -12.1571  -9.2582  -0.1740   C.2       1 RES1   0.0000
    27 N27     -9.1748  -8.1803  -1.2133   N.am      1 RES1   0.0000
    28 C28     -8.2248  -7.3593  -0.7676   C.2       1 RES1   0.0000
    29 O29     -7.0631  -7.7399  -0.5719   O.2       1 RES1   0.0000
    30 C30     -8.7346  -5.9619  -0.5908   C.2       1 RES1   0.0000
    31 O31     -9.9149  -5.7842  -0.8342   O.2       1 RES1   0.0000
    32 N32     -8.1222  -4.8480  -0.2078   N.am      1 RES1   0.0000
    33 C33     -8.6719  -3.5329  -0.0590   C.3       1 RES1   0.0000
    34 C34     -9.4024  -3.4623   1.2693   C.3       1 RES1   0.0000
    35 C35     -9.8035  -2.0192   1.8056   C.3       1 RES1   0.0000
    36 C36     -8.8974  -2.2249   2.9993   C.3       1 RES1   0.0000
    37 C37     -8.3769  -3.5772   2.4881   C.3       1 RES1   0.0000
@<TRIPOS>BOND
     1     1     2    1
     2     2     3    1
     3     3     4    1
     4     4     5    2
     5     4     6    1
     6     6     7    1
     7     8     7    1
     8     8     9    1
     9    10     9    1
    10    10    11    1
    11    11    12    1
    12    12    13    1
    13    13    14   am
    14    14    15    2
    15     8    16    1
    16    16    17   am
    17    17    18    2
    18    17    19    1
    19    19    20    1
    20    20    21    1
    21    21    22    2
    22    22    23    1
    23    23    24    2
    24    24    25    1
    25    25    26    2
    26    19    27    1
    27    27    28   am
    28    28    29    2
    29    28    30    1
    30    30    31    2
    31    30    32   am
    32    32    33    1
    33    33    34    1
    34    34    35    1
    35    35    36    1
    36    36    37    1
    37    14    10    1
    38    26    21    1
    39    37    34    1
@<TRIPOS>SUBSTRUCTURE
     1 RES1        1 GROUP             0 ****  ****    0  
@<TRIPOS>MOLECULE
ligand_21
    37    39     1     0     0
SMALL
NO_CHARGES
****
Generated from the CSD

@<TRIPOS>ATOM
     1 C1      -7.2092  -1.9493  -6.0821   C.3       1 RES1   0.0000
     2 C2      -6.3711  -3.2054  -6.0069   C.3       1 RES1   0.0000
     3 O3      -7.2165  -4.3371  -5.8167   O.3       1 RES1   0.0000
     4 C4      -6.6609  -5.6694  -5.7114   C.2       1 RES1   0.0000
     5 O5      -5.4461  -5.7930  -5.7906   O.2       1 RES1   0.0000
     6 C6      -7.6244  -6.8175  -5.5214   C.3       1 RES1   0.0000
     7 C7      -7.0409  -8.2232  -5.4104   C.3       1 RES1   0.0000
     8 C8      -6.2268  -8.2660  -4.0928   C.3       1 RES1   0.0000
     9 C9      -5.6050  -9.6463  -3.8679   C.3       1 RES1   0.0000
    10 C10     -4.7892  -9.7060  -2.5722   C.3       1 RES1   0.0000
    11 C11     -3.4660  -8.9156  -2.6062   C.3       1 RES1   0.0000
    12 C12     -2.4516  -9.7884  -1.8787   C.3       1 RES1   0.0000
    13 N13     -3.0688 -11.1009  -1.9059   N.am      1 RES1   0.0000
    14 C14     -4.3661 -11.1088  -2.2224   C.2       1 RES1   0.0000
    15 O15     -5.0718 -12.0924  -2.2588   O.2       1 RES1   0.0000
    16 N16     -7.0815  -7.8189  -3.0012   N.am      1 RES1   0.0000
    17 C17     -6.7228  -6.9128  -2.0768   C.2       1 RES1   0.0000
    18 O18     -5.6436  -6.3485  -2.0283   O.2       1 RES1   0.0000
    19 C19     -7.7528  -6.6103  -1.0327   C.3       1 RES1   0.0000
    20 C20     -7.6046  -7.7416  -0.0135   C.3       1 RES1   0.0000
    21 C21     -8.4106  -7.6214   1.2650   C.2       1 RES1   0.0000
    22 C22     -7.9158  -6.9870   2.4042   C.2       1 RES1   0.0000
    23 C23     -8.6944  -6.9171   3.5596   C.2       1 RES1   0.0000
    24 C24     -9.9673  -7.4750   3.5855   C.2       1 RES1   0.0000
    25 C25    -10.4630  -8.1145   2.4552   C.2       1 RES1   0.0000
    26 C26     -9.6861  -8.1940   1.3065   C.2       1 RES1   0.0000
    27 N27     -9.1264  -6.5075  -1.5181   N.am      1 RES1   0.0000
    28 C28     -9.6756  -5.4813  -2.1666   C.2       1 RES1   0.0000
    29 O29     -9.0381  -4.4549  -2.4367   O.2       1 RES1   0.0000
    30 C30    -11.0984  -5.7583  -2.5438   C.2       1 RES1   0.0000
    31 O31    -11.5519  -6.8305  -2.1852   O.2       1 RES1   0.0000
    32 N32    -11.9835  -5.0326  -3.2167   N.am      1 RES1   0.0000
    33 C33    -13.3393  -5.3590  -3.5470   C.3       1 RES1   0.0000
    34 C34    -14.2086  -5.0986  -2.3307   C.3       1 RES1   0.0000
    35 C35    -15.7836  -5.0657  -2.5531   C.3       1 RES1   0.0000
    36 C36    -15.8006  -3.6140  -2.1286   C.3       1 RES1   0.0000
    37 C37    -14.2712  -3.5371  -2.0013   C.3       1 RES1   0.0000
@<TRIPOS>BOND
     1     1     2    1
     2     2     3    1
     3     3     4    1
     4     4     5    2
     5     4     6    1
     6     6     7    1
     7     8     7    1
     8     8     9    1
     9    10     9    1
    10    10    11    1
    11    11    12    1
    12    12    13    1
    13    13    14   am
    14    14    15    2
    15     8    16    1
    16    16    17   am
    17    17    18    2
    18    17    19    1
    19    19    20    1
    20    20    21    1
    21    21    22    2
    22    22    23    1
    23    23    24    2
    24    24    25    1
    25    25    26    2
    26    19    27    1
    27    27    28   am
    28    28    29    2
    29    28    30    1
    30    30    31    2
    31    30    32   am
    32    32    33    1
    33    33    34    1
    34    34    35    1
    35    35    36    1
    36    36    37    1
    37    14    10    1
    38    26    21    1
    39    37    34    1
@<TRIPOS>SUBSTRUCTURE
     1 RES1        1 GROUP             0 ****  ****    0  
@<TRIPOS>MOLECULE
ligand_22
    37    39     1     0     0
SMALL
NO_CHARGES
****
Generated from the CSD

@<TRIPOS>ATOM
     1 C1      -7.1357  -1.9842  -5.9987   C.3       1 RES1   0.0000
     2 C2      -6.3050  -3.2458  -5.9357   C.3       1 RES1   0.0000
     3 O3      -7.1586  -4.3764  -5.7780   O.3       1 RES1   0.0000
     4 C4      -6.6112  -5.7133  -5.6901   C.2       1 RES1   0.0000
     5 O5      -5.3960  -5.8419  -5.7554   O.2       1 RES1   0.0000
     6 C6      -7.5828  -6.8597  -5.5346   C.3       1 RES1   0.0000
     7 C7      -7.0086  -8.2713  -5.4537   C.3       1 RES1   0.0000
     8 C8      -8.2059  -9.2279  -5.2248   C.3       1 RES1   0.0000
     9 C9      -7.7462 -10.6859  -5.1504   C.3       1 RES1   0.0000
    10 C10     -8.9165 -11.6471  -4.9169   C.3       1 RES1   0.0000
    11 C11     -9.5342 -11.5805  -3.5058   C.3       1 RES1   0.0000
    12 C12     -9.8283 -13.0247  -3.1217   C.3       1 RES1   0.0000
    13 N13     -8.9938 -13.7834  -4.0339   N.am      1 RES1   0.0000
    14 C14     -8.5151 -13.0909  -5.0705   C.2       1 RES1   0.0000
    15 O15     -7.8365 -13.5472  -5.9637   O.2       1 RES1   0.0000
    16 N16     -9.2073  -8.9766  -6.2524   N.am      1 RES1   0.0000
    17 C17    -10.3152  -8.2395  -6.0702   C.2       1 RES1   0.0000
    18 O18    -10.6280  -7.6872  -5.0298   O.2       1 RES1   0.0000
    19 C19    -11.2185  -8.1234  -7.2590   C.3       1 RES1   0.0000
    20 C20    -10.5789  -7.0301  -8.1171   C.3       1 RES1   0.0000
    21 C21    -11.1785  -6.7988  -9.4903   C.2       1 RES1   0.0000
    22 C22    -10.7332  -7.4771 -10.6246   C.2       1 RES1   0.0000
    23 C23    -11.3105  -7.2155 -11.8674   C.2       1 RES1   0.0000
    24 C24    -12.3330  -6.2814 -11.9860   C.2       1 RES1   0.0000
    25 C25    -12.7763  -5.5976 -10.8599   C.2       1 RES1   0.0000
    26 C26    -12.1967  -5.8490  -9.6229   C.2       1 RES1   0.0000
    27 N27    -12.6142  -7.8161  -6.9585   N.am      1 RES1   0.0000
    28 C28    -13.6686  -8.0082  -7.7500   C.2       1 RES1   0.0000
    29 O29    -13.5628  -8.5001  -8.8813   O.2       1 RES1   0.0000
    30 C30    -14.9470  -7.6032  -7.0827   C.2       1 RES1   0.0000
    31 O31    -14.8453  -7.1356  -5.9625   O.2       1 RES1   0.0000
    32 N32    -16.2074  -7.6611  -7.4958   N.am      1 RES1   0.0000
    33 C33    -17.3938  -7.2547  -6.8023   C.3       1 RES1   0.0000
    34 C34    -17.5335  -5.7487  -6.9261   C.3       1 RES1   0.0000
    35 C35    -18.9362  -5.1110  -6.5300   C.3       1 RES1   0.0000
    36 C36    -19.1112  -4.6409  -7.9570   C.3       1 RES1   0.0000
    37 C37    -17.8241  -5.3278  -8.4390   C.3       1 RES1   0.0000
@<TRIPOS>BOND
     1     1     2    1
     2     2     3    1
     3     3     4    1
     4     4     5    2
     5     4     6    1
     6     6     7    1
     7     8     7    1
     8     8     9    1
     9    10     9    1
    10    10    11    1
    11    11    12    1
    12    12    13    1
    13    13    14   am
    14    14    15    2
    15     8    16    1
    16    16    17   am
    17    17    18    2
    18    17    19    1
    19    19    20    1
    20    20    21    1
    21    21    22    2
    22    22    23    1
    23    23    24    2
    24    24    25    1
    25    25    26    2
    26    19    27    1
    27    27    28   am
    28    28    29    2
    29    28    30    1
    30    30    31    2
    31    30    32   am
    32    32    33    1
    33    33    34    1
    34    34    35    1
    35    35    36    1
    36    36    37    1
    37    14    10    1
    38    26    21    1
    39    37    34    1
@<TRIPOS>SUBSTRUCTURE
     1 RES1        1 GROUP             0 ****  ****    0  
@<TRIPOS>MOLECULE
ligand_23
    37    39     1     0     0
SMALL
NO_CHARGES
****
Generated from the CSD

@<TRIPOS>ATOM
     1 C1      -7.1649  -2.0270  -6.3547   C.3       1 RES1   0.0000
     2 C2      -6.3269  -3.2730  -6.1789   C.3       1 RES1   0.0000
     3 O3      -7.1769  -4.4035  -6.0026   O.3       1 RES1   0.0000
     4 C4      -6.6224  -5.7268  -5.8124   C.2       1 RES1   0.0000
     5 O5      -5.4044  -5.8439  -5.8078   O.2       1 RES1   0.0000
     6 C6      -7.5902  -6.8746  -5.6435   C.3       1 RES1   0.0000
     7 C7      -7.0079  -8.2724  -5.4547   C.3       1 RES1   0.0000
     8 C8      -8.2059  -9.2279  -5.2248   C.3       1 RES1   0.0000
     9 C9      -7.7474 -10.6862  -5.1493   C.3       1 RES1   0.0000
    10 C10     -6.7661 -10.9220  -3.9963   C.3       1 RES1   0.0000
    11 C11     -5.3149 -10.4893  -4.2858   C.3       1 RES1   0.0000
    12 C12     -4.4371 -11.5735  -3.6744   C.3       1 RES1   0.0000
    13 N13     -5.3513 -12.6897  -3.5239   N.am      1 RES1   0.0000
    14 C14     -6.6454 -12.3787  -3.6320   C.2       1 RES1   0.0000
    15 O15     -7.5654 -13.1546  -3.4969   O.2       1 RES1   0.0000
    16 N16     -9.2073  -8.9766  -6.2524   N.am      1 RES1   0.0000
    17 C17    -10.3152  -8.2395  -6.0702   C.2       1 RES1   0.0000
    18 O18    -10.6280  -7.6872  -5.0298   O.2       1 RES1   0.0000
    19 C19    -11.2185  -8.1234  -7.2590   C.3       1 RES1   0.0000
    20 C20    -12.0444  -9.4109  -7.2362   C.3       1 RES1   0.0000
    21 C21    -12.8728  -9.6712  -5.9933   C.2       1 RES1   0.0000
    22 C22    -12.3751 -10.3747  -4.8968   C.2       1 RES1   0.0000
    23 C23    -13.1852 -10.5988  -3.7834   C.2       1 RES1   0.0000
    24 C24    -14.4909 -10.1225  -3.7557   C.2       1 RES1   0.0000
    25 C25    -14.9944  -9.4265  -4.8484   C.2       1 RES1   0.0000
    26 C26    -14.1931  -9.2104  -5.9622   C.2       1 RES1   0.0000
    27 N27    -10.5455  -7.9451  -8.5429   N.am      1 RES1   0.0000
    28 C28     -9.9991  -6.8259  -9.0160   C.2       1 RES1   0.0000
    29 O29    -10.0091  -5.7658  -8.3764   O.2       1 RES1   0.0000
    30 C30     -9.3599  -7.0406 -10.3536   C.2       1 RES1   0.0000
    31 O31     -9.4576  -8.1600 -10.8239   O.2       1 RES1   0.0000
    32 N32     -8.6862  -6.2147 -11.1452   N.am      1 RES1   0.0000
    33 C33     -8.0952  -6.4857 -12.4224   C.3       1 RES1   0.0000
    34 C34     -9.1845  -6.4397 -13.4780   C.3       1 RES1   0.0000
    35 C35     -8.7237  -6.3760 -14.9994   C.3       1 RES1   0.0000
    36 C36     -9.3770  -5.0177 -15.1273   C.3       1 RES1   0.0000
    37 C37     -9.7563  -4.9573 -13.6395   C.3       1 RES1   0.0000
@<TRIPOS>BOND
     1     1     2    1
     2     2     3    1
     3     3     4    1
     4     4     5    2
     5     4     6    1
     6     6     7    1
     7     8     7    1
     8     8     9    1
     9    10     9    1
    10    10    11    1
    11    11    12    1
    12    12    13    1
    13    13    14   am
    14    14    15    2
    15     8    16    1
    16    16    17   am
    17    17    18    2
    18    17    19    1
    19    19    20    1
    20    20    21    1
    21    21    22    2
    22    22    23    1
    23    23    24    2
    24    24    25    1
    25    25    26    2
    26    19    27    1
    27    27    28   am
    28    28    29    2
    29    28    30    1
    30    30    31    2
    31    30    32   am
    32    32    33    1
    33    33    34    1
    34    34    35    1
    35    35    36    1
    36    36    37    1
    37    14    10    1
    38    26    21    1
    39    37    34    1
@<TRIPOS>SUBSTRUCTURE
     1 RES1        1 GROUP             0 ****  ****    0  
@<TRIPOS>MOLECULE
ligand_24
    37    39     1     0     0
SMALL
NO_CHARGES
****
Generated from the CSD

@<TRIPOS>ATOM
     1 C1      -7.3896  -1.9345  -5.8236   C.3       1 RES1   0.0000
     2 C2      -6.5153  -3.1676  -5.7939   C.3       1 RES1   0.0000
     3 O3      -7.3279  -4.3301  -5.6525   O.3       1 RES1   0.0000
     4 C4      -6.7340  -5.6487  -5.5971   C.2       1 RES1   0.0000
     5 O5      -5.5158  -5.7337  -5.6752   O.2       1 RES1   0.0000
     6 C6      -7.6641  -6.8310  -5.4572   C.3       1 RES1   0.0000
     7 C7      -7.0409  -8.2232  -5.4104   C.3       1 RES1   0.0000
     8 C8      -8.2059  -9.2279  -5.2248   C.3       1 RES1   0.0000
     9 C9      -7.6963 -10.6708  -5.1954   C.3       1 RES1   0.0000
    10 C10     -8.8341 -11.6793  -5.0051   C.3       1 RES1   0.0000
    11 C11     -9.4649 -11.6821  -3.5982   C.3       1 RES1   0.0000
    12 C12     -9.7115 -13.1479  -3.2657   C.3       1 RES1   0.0000
    13 N13     -8.8439 -13.8458  -4.1953   N.am      1 RES1   0.0000
    14 C14     -8.3814 -13.1023  -5.2036   C.2       1 RES1   0.0000
    15 O15     -7.6802 -13.5042  -6.1055   O.2       1 RES1   0.0000
    16 N16     -9.2073  -8.9766  -6.2524   N.am      1 RES1   0.0000
    17 C17    -10.5257  -8.8693  -6.0191   C.2       1 RES1   0.0000
    18 O18    -11.0556  -8.9668  -4.9260   O.2       1 RES1   0.0000
    19 C19    -11.3789  -8.6247  -7.2253   C.3       1 RES1   0.0000
    20 C20    -11.8868  -7.1925  -7.0477   C.3       1 RES1   0.0000
    21 C21    -12.6511  -6.5880  -8.2092   C.2       1 RES1   0.0000
    22 C22    -12.0208  -5.8771  -9.2301   C.2       1 RES1   0.0000
    23 C23    -12.7739  -5.3289 -10.2686   C.2       1 RES1   0.0000
    24 C24    -14.1546  -5.4876 -10.2967   C.2       1 RES1   0.0000
    25 C25    -14.7889  -6.1894  -9.2782   C.2       1 RES1   0.0000
    26 C26    -14.0425  -6.7280  -8.2379   C.2       1 RES1   0.0000
    27 N27    -12.4832  -9.5619  -7.4127   N.am      1 RES1   0.0000
    28 C28    -13.1515  -9.8023  -8.5400   C.2       1 RES1   0.0000
    29 O29    -12.8822  -9.2255  -9.6019   O.2       1 RES1   0.0000
    30 C30    -14.1975 -10.8580  -8.3527   C.2       1 RES1   0.0000
    31 O31    -14.3135 -11.3077  -7.2266   O.2       1 RES1   0.0000
    32 N32    -15.0461 -11.4122  -9.2102   N.am      1 RES1   0.0000
    33 C33    -16.0287 -12.4262  -8.9648   C.3       1 RES1   0.0000
    34 C34    -17.2492 -11.7750  -8.3410   C.3       1 RES1   0.0000
    35 C35    -18.5879 -12.6330  -8.2894   C.3       1 RES1   0.0000
    36 C36    -19.2560 -11.6220  -9.1946   C.3       1 RES1   0.0000
    37 C37    -17.9696 -10.8031  -9.3836   C.3       1 RES1   0.0000
@<TRIPOS>BOND
     1     1     2    1
     2     2     3    1
     3     3     4    1
     4     4     5    2
     5     4     6    1
     6     6     7    1
     7     8     7    1
     8     8     9    1
     9    10     9    1
    10    10    11    1
    11    11    12    1
    12    12    13    1
    13    13    14   am
    14    14    15    2
    15     8    16    1
    16    16    17   am
    17    17    18    2
    18    17    19    1
    19    19    20    1
    20    20    21    1
    21    21    22    2
    22    22    23    1
    23    23    24    2
    24    24    25    1
    25    25    26    2
    26    19    27    1
    27    27    28   am
    28    28    29    2
    29    28    30    1
    30    30    31    2
    31    30    32   am
    32    32    33    1
    33    33    34    1
    34    34    35    1
    35    35    36    1
    36    36    37    1
    37    14    10    1
    38    26    21    1
    39    37    34    1
@<TRIPOS>SUBSTRUCTURE
     1 RES1        1 GROUP             0 ****  ****    0  
@<TRIPOS>MOLECULE
ligand_25
    37    39     1     0     0
SMALL
NO_CHARGES
****
Generated from the CSD

@<TRIPOS>ATOM
     1 C1      -7.4127  -1.9613  -6.1106   C.3       1 RES1   0.0000
     2 C2      -6.5343  -3.1891  -6.0300   C.3       1 RES1   0.0000
     3 O3      -7.3422  -4.3462  -5.8297   O.3       1 RES1   0.0000
     4 C4      -6.7436  -5.6592  -5.7176   C.2       1 RES1   0.0000
     5 O5      -5.5257  -5.7441  -5.8000   O.2       1 RES1   0.0000
     6 C6      -7.6689  -6.8365  -5.5171   C.3       1 RES1   0.0000
     7 C7      -7.0409  -8.2232  -5.4104   C.3       1 RES1   0.0000
     8 C8      -8.2059  -9.2279  -5.2248   C.3       1 RES1   0.0000
     9 C9      -8.8288  -9.1058  -3.8321   C.3       1 RES1   0.0000
    10 C10     -9.9805 -10.0956  -3.6279   C.3       1 RES1   0.0000
    11 C11    -11.2589  -9.7713  -4.4263   C.3       1 RES1   0.0000
    12 C12    -12.4157 -10.0714  -3.4819   C.3       1 RES1   0.0000
    13 N13    -11.7818 -10.0747  -2.1772   N.am      1 RES1   0.0000
    14 C14    -10.4485 -10.1471  -2.1970   C.2       1 RES1   0.0000
    15 O15     -9.7360 -10.2045  -1.2194   O.2       1 RES1   0.0000
    16 N16     -7.7234 -10.5657  -5.5402   N.am      1 RES1   0.0000
    17 C17     -7.8892 -11.1737  -6.7263   C.2       1 RES1   0.0000
    18 O18     -8.4606 -10.6916  -7.6888   O.2       1 RES1   0.0000
    19 C19     -7.3259 -12.5575  -6.8289   C.3       1 RES1   0.0000
    20 C20     -8.3945 -13.4510  -6.1963   C.3       1 RES1   0.0000
    21 C21     -8.1852 -14.9488  -6.3021   C.2       1 RES1   0.0000
    22 C22     -8.6746 -15.6987  -7.3712   C.2       1 RES1   0.0000
    23 C23     -8.4660 -17.0775  -7.4120   C.2       1 RES1   0.0000
    24 C24     -7.7686 -17.7142  -6.3920   C.2       1 RES1   0.0000
    25 C25     -7.2843 -16.9729  -5.3205   C.2       1 RES1   0.0000
    26 C26     -7.4990 -15.6015  -5.2726   C.2       1 RES1   0.0000
    27 N27     -6.0247 -12.7534  -6.1953   N.am      1 RES1   0.0000
    28 C28     -4.8361 -12.3784  -6.6663   C.2       1 RES1   0.0000
    29 O29     -4.7112 -11.7931  -7.7502   O.2       1 RES1   0.0000
    30 C30     -3.7293 -12.7123  -5.7139   C.2       1 RES1   0.0000
    31 O31     -4.0534 -13.2938  -4.6938   O.2       1 RES1   0.0000
    32 N32     -2.4226 -12.4855  -5.7753   N.am      1 RES1   0.0000
    33 C33     -1.4104 -12.8328  -4.8220   C.3       1 RES1   0.0000
    34 C34     -1.0576 -14.2975  -5.0044   C.3       1 RES1   0.0000
    35 C35      0.2664 -14.8227  -4.2957   C.3       1 RES1   0.0000
    36 C36      0.8555 -15.1324  -5.6540   C.3       1 RES1   0.0000
    37 C37     -0.3420 -14.5382  -6.4116   C.3       1 RES1   0.0000
@<TRIPOS>BOND
     1     1     2    1
     2     2     3    1
     3     3     4    1
     4     4     5    2
     5     4     6    1
     6     6     7    1
     7     8     7    1
     8     8     9    1
     9    10     9    1
    10    10    11    1
    11    11    12    1
    12    12    13    1
    13    13    14   am
    14    14    15    2
    15     8    16    1
    16    16    17   am
    17    17    18    2
    18    17    19    1
    19    19    20    1
    20    20    21    1
    21    21    22    2
    22    22    23    1
    23    23    24    2
    24    24    25    1
    25    25    26    2
    26    19    27    1
    27    27    28   am
    28    28    29    2
    29    28    30    1
    30    30    31    2
    31    30    32   am
    32    32    33    1
    33    33    34    1
    34    34    35    1
    35    35    36    1
    36    36    37    1
    37    14    10    1
    38    26    21    1
    39    37    34    1
@<TRIPOS>SUBSTRUCTURE
     1 RES1        1 GROUP             0 ****  ****    0  
@<TRIPOS>MOLECULE
ligand_26
    37    39     1     0     0
SMALL
NO_CHARGES
****
Generated from the CSD

@<TRIPOS>ATOM
     1 C1      -7.1775  -2.0250  -6.4386   C.3       1 RES1   0.0000
     2 C2      -6.3362  -3.2679  -6.2559   C.3       1 RES1   0.0000
     3 O3      -7.1831  -4.3979  -6.0625   O.3       1 RES1   0.0000
     4 C4      -6.6251  -5.7183  -5.8627   C.2       1 RES1   0.0000
     5 O5      -5.4069  -5.8334  -5.8650   O.2       1 RES1   0.0000
     6 C6      -7.5897  -6.8659  -5.6757   C.3       1 RES1   0.0000
     7 C7      -7.0038  -8.2608  -5.4767   C.3       1 RES1   0.0000
     8 C8      -8.1986  -9.2159  -5.2291   C.3       1 RES1   0.0000
     9 C9      -7.7371 -10.6726  -5.1420   C.3       1 RES1   0.0000
    10 C10     -6.7477 -10.8952  -3.9933   C.3       1 RES1   0.0000
    11 C11     -5.2992 -10.4630  -4.2969   C.3       1 RES1   0.0000
    12 C12     -4.4155 -11.5395  -3.6805   C.3       1 RES1   0.0000
    13 N13     -5.3267 -12.6556  -3.5126   N.am      1 RES1   0.0000
    14 C14     -6.6221 -12.3479  -3.6151   C.2       1 RES1   0.0000
    15 O15     -7.5398 -13.1239  -3.4660   O.2       1 RES1   0.0000
    16 N16     -9.2073  -8.9766  -6.2524   N.am      1 RES1   0.0000
    17 C17    -10.3152  -8.2395  -6.0702   C.2       1 RES1   0.0000
    18 O18    -10.6280  -7.6872  -5.0298   O.2       1 RES1   0.0000
    19 C19    -11.2185  -8.1234  -7.2590   C.3       1 RES1   0.0000
    20 C20    -12.0160  -9.4289  -7.2596   C.3       1 RES1   0.0000
    21 C21    -13.1502  -9.5381  -8.2598   C.2       1 RES1   0.0000
    22 C22    -14.4523  -9.1385  -7.9604   C.2       1 RES1   0.0000
    23 C23    -15.4621  -9.2744  -8.9134   C.2       1 RES1   0.0000
    24 C24    -15.1802  -9.8053 -10.1668   C.2       1 RES1   0.0000
    25 C25    -13.8855 -10.2115 -10.4684   C.2       1 RES1   0.0000
    26 C26    -12.8803 -10.0863  -9.5180   C.2       1 RES1   0.0000
    27 N27    -10.5470  -7.9090  -8.5382   N.am      1 RES1   0.0000
    28 C28    -11.0848  -7.4277  -9.6581   C.2       1 RES1   0.0000
    29 O29    -12.2736  -7.0887  -9.7259   O.2       1 RES1   0.0000
    30 C30    -10.0745  -7.3187 -10.7587   C.2       1 RES1   0.0000
    31 O31     -8.9497  -7.7069 -10.4978   O.2       1 RES1   0.0000
    32 N32    -10.1789  -6.8639 -12.0016   N.am      1 RES1   0.0000
    33 C33     -9.1653  -6.7858 -13.0117   C.3       1 RES1   0.0000
    34 C34     -9.0028  -8.1576 -13.6399   C.3       1 RES1   0.0000
    35 C35     -8.1844  -8.2444 -15.0014   C.3       1 RES1   0.0000
    36 C36     -9.4311  -8.7323 -15.7052   C.3       1 RES1   0.0000
    37 C37    -10.3124  -8.5663 -14.4575   C.3       1 RES1   0.0000
@<TRIPOS>BOND
     1     1     2    1
     2     2     3    1
     3     3     4    1
     4     4     5    2
     5     4     6    1
     6     6     7    1
     7     8     7    1
     8     8     9    1
     9    10     9    1
    10    10    11    1
    11    11    12    1
    12    12    13    1
    13    13    14   am
    14    14    15    2
    15     8    16    1
    16    16    17   am
    17    17    18    2
    18    17    19    1
    19    19    20    1
    20    20    21    1
    21    21    22    2
    22    22    23    1
    23    23    24    2
    24    24    25    1
    25    25    26    2
    26    19    27    1
    27    27    28   am
    28    28    29    2
    29    28    30    1
    30    30    31    2
    31    30    32   am
    32    32    33    1
    33    33    34    1
    34    34    35    1
    35    35    36    1
    36    36    37    1
    37    14    10    1
    38    26    21    1
    39    37    34    1
@<TRIPOS>SUBSTRUCTURE
     1 RES1        1 GROUP             0 ****  ****    0  
@<TRIPOS>MOLECULE
ligand_27
    37    39     1     0     0
SMALL
NO_CHARGES
****
Generated from the CSD

@<TRIPOS>ATOM
     1 C1      -7.1240  -1.9923  -5.8927   C.3       1 RES1   0.0000
     2 C2      -6.2964  -3.2564  -5.8387   C.3       1 RES1   0.0000
     3 O3      -7.1534  -4.3871  -5.7025   O.3       1 RES1   0.0000
     4 C4      -6.6095  -5.7262  -5.6270   C.2       1 RES1   0.0000
     5 O5      -5.3941  -5.8564  -5.6837   O.2       1 RES1   0.0000
     6 C6      -7.5847  -6.8724  -5.4942   C.3       1 RES1   0.0000
     7 C7      -7.0140  -8.2861  -5.4263   C.3       1 RES1   0.0000
     8 C8      -8.2151  -9.2430  -5.2197   C.3       1 RES1   0.0000
     9 C9      -7.7590 -10.7028  -5.1599   C.3       1 RES1   0.0000
    10 C10     -8.9332 -11.6644  -4.9485   C.3       1 RES1   0.0000
    11 C11     -9.5625 -11.6144  -3.5419   C.3       1 RES1   0.0000
    12 C12     -9.8628 -13.0627  -3.1786   C.3       1 RES1   0.0000
    13 N13     -9.0222 -13.8116  -4.0934   N.am      1 RES1   0.0000
    14 C14     -8.5333 -13.1070  -5.1170   C.2       1 RES1   0.0000
    15 O15     -7.8481 -13.5533  -6.0102   O.2       1 RES1   0.0000
    16 N16     -9.2073  -8.9766  -6.2524   N.am      1 RES1   0.0000
    17 C17    -10.3152  -8.2395  -6.0702   C.2       1 RES1   0.0000
    18 O18    -10.6280  -7.6872  -5.0298   O.2       1 RES1   0.0000
    19 C19    -11.2185  -8.1234  -7.2590   C.3       1 RES1   0.0000
    20 C20    -12.6047  -7.8767  -6.6607   C.3       1 RES1   0.0000
    21 C21    -13.7352  -7.6155  -7.6366   C.2       1 RES1   0.0000
    22 C22    -14.0670  -6.3323  -8.0705   C.2       1 RES1   0.0000
    23 C23    -15.1265  -6.1465  -8.9587   C.2       1 RES1   0.0000
    24 C24    -15.8576  -7.2352  -9.4199   C.2       1 RES1   0.0000
    25 C25    -15.5357  -8.5158  -8.9855   C.2       1 RES1   0.0000
    26 C26    -14.4874  -8.7026  -8.0936   C.2       1 RES1   0.0000
    27 N27    -11.2235  -9.2747  -8.1576   N.am      1 RES1   0.0000
    28 C28    -10.3389  -9.5520  -9.1145   C.2       1 RES1   0.0000
    29 O29     -9.3697  -8.8181  -9.3492   O.2       1 RES1   0.0000
    30 C30    -10.6494 -10.8463  -9.8017   C.2       1 RES1   0.0000
    31 O31    -11.6535 -11.4267  -9.4291   O.2       1 RES1   0.0000
    32 N32    -10.0156 -11.4987 -10.7688   N.am      1 RES1   0.0000
    33 C33    -10.3680 -12.7432 -11.3858   C.3       1 RES1   0.0000
    34 C34    -11.4507 -12.4817 -12.4165   C.3       1 RES1   0.0000
    35 C35    -11.7625 -13.6432 -13.4580   C.3       1 RES1   0.0000
    36 C36    -11.3124 -12.7380 -14.5831   C.3       1 RES1   0.0000
    37 C37    -10.8817 -11.6127 -13.6296   C.3       1 RES1   0.0000
@<TRIPOS>BOND
     1     1     2    1
     2     2     3    1
     3     3     4    1
     4     4     5    2
     5     4     6    1
     6     6     7    1
     7     8     7    1
     8     8     9    1
     9    10     9    1
    10    10    11    1
    11    11    12    1
    12    12    13    1
    13    13    14   am
    14    14    15    2
    15     8    16    1
    16    16    17   am
    17    17    18    2
    18    17    19    1
    19    19    20    1
    20    20    21    1
    21    21    22    2
    22    22    23    1
    23    23    24    2
    24    24    25    1
    25    25    26    2
    26    19    27    1
    27    27    28   am
    28    28    29    2
    29    28    30    1
    30    30    31    2
    31    30    32   am
    32    32    33    1
    33    33    34    1
    34    34    35    1
    35    35    36    1
    36    36    37    1
    37    14    10    1
    38    26    21    1
    39    37    34    1
@<TRIPOS>SUBSTRUCTURE
     1 RES1        1 GROUP             0 ****  ****    0  
@<TRIPOS>MOLECULE
ligand_28
    37    39     1     0     0
SMALL
NO_CHARGES
****
Generated from the CSD

@<TRIPOS>ATOM
     1 C1      -7.6449  -2.1286  -6.3807   C.3       1 RES1   0.0000
     2 C2      -6.7376  -3.3332  -6.2734   C.3       1 RES1   0.0000
     3 O3      -7.5128  -4.4959  -5.9926   O.3       1 RES1   0.0000
     4 C4      -6.8821  -5.7897  -5.8404   C.2       1 RES1   0.0000
     5 O5      -5.6660  -5.8535  -5.9601   O.2       1 RES1   0.0000
     6 C6      -7.7743  -6.9750  -5.5545   C.3       1 RES1   0.0000
     7 C7      -7.1110  -8.3392  -5.3883   C.3       1 RES1   0.0000
     8 C8      -6.2427  -8.2604  -4.1073   C.3       1 RES1   0.0000
     9 C9      -5.5167  -9.5821  -3.8456   C.3       1 RES1   0.0000
    10 C10     -4.6465  -9.5212  -2.5859   C.3       1 RES1   0.0000
    11 C11     -3.3846  -8.6449  -2.7154   C.3       1 RES1   0.0000
    12 C12     -2.2825  -9.4090  -1.9934   C.3       1 RES1   0.0000
    13 N13     -2.8063 -10.7602  -1.9315   N.am      1 RES1   0.0000
    14 C14     -4.1117 -10.8726  -2.1897   C.2       1 RES1   0.0000
    15 O15     -4.7472 -11.9026  -2.1486   O.2       1 RES1   0.0000
    16 N16     -7.0815  -7.8189  -3.0012   N.am      1 RES1   0.0000
    17 C17     -7.0951  -6.5692  -2.5091   C.2       1 RES1   0.0000
    18 O18     -6.4001  -5.6503  -2.9066   O.2       1 RES1   0.0000
    19 C19     -8.0420  -6.3307  -1.3737   C.3       1 RES1   0.0000
    20 C20     -7.1347  -6.1100  -0.1618   C.3       1 RES1   0.0000
    21 C21     -7.8060  -5.6736   1.1257   C.2       1 RES1   0.0000
    22 C22     -7.9978  -4.3312   1.4513   C.2       1 RES1   0.0000
    23 C23     -8.6086  -3.9842   2.6566   C.2       1 RES1   0.0000
    24 C24     -9.0323  -4.9701   3.5403   C.2       1 RES1   0.0000
    25 C25     -8.8376  -6.3096   3.2241   C.2       1 RES1   0.0000
    26 C26     -8.2210  -6.6576   2.0291   C.2       1 RES1   0.0000
    27 N27     -9.0083  -7.3979  -1.1282   N.am      1 RES1   0.0000
    28 C28    -10.1158  -7.6556  -1.8225   C.2       1 RES1   0.0000
    29 O29    -10.4538  -6.9759  -2.8007   O.2       1 RES1   0.0000
    30 C30    -10.8339  -8.8610  -1.2981   C.2       1 RES1   0.0000
    31 O31    -10.3434  -9.3974  -0.3206   O.2       1 RES1   0.0000
    32 N32    -11.9371  -9.4725  -1.7124   N.am      1 RES1   0.0000
    33 C33    -12.5757 -10.6315  -1.1621   C.3       1 RES1   0.0000
    34 C34    -13.3915 -10.2061   0.0447   C.3       1 RES1   0.0000
    35 C35    -14.4483 -11.2493   0.6156   C.3       1 RES1   0.0000
    36 C36    -15.5640 -10.2863   0.2752   C.3       1 RES1   0.0000
    37 C37    -14.6159  -9.2800  -0.3954   C.3       1 RES1   0.0000
@<TRIPOS>BOND
     1     1     2    1
     2     2     3    1
     3     3     4    1
     4     4     5    2
     5     4     6    1
     6     6     7    1
     7     8     7    1
     8     8     9    1
     9    10     9    1
    10    10    11    1
    11    11    12    1
    12    12    13    1
    13    13    14   am
    14    14    15    2
    15     8    16    1
    16    16    17   am
    17    17    18    2
    18    17    19    1
    19    19    20    1
    20    20    21    1
    21    21    22    2
    22    22    23    1
    23    23    24    2
    24    24    25    1
    25    25    26    2
    26    19    27    1
    27    27    28   am
    28    28    29    2
    29    28    30    1
    30    30    31    2
    31    30    32   am
    32    32    33    1
    33    33    34    1
    34    34    35    1
    35    35    36    1
    36    36    37    1
    37    14    10    1
    38    26    21    1
    39    37    34    1
@<TRIPOS>SUBSTRUCTURE
     1 RES1        1 GROUP             0 ****  ****    0  
@<TRIPOS>MOLECULE
ligand_29
    37    39     1     0     0
SMALL
NO_CHARGES
****
Generated from the CSD

@<TRIPOS>ATOM
     1 C1      -8.2233  -1.9473  -4.6093   C.3       1 RES1   0.0000
     2 C2      -7.2118  -3.0601  -4.7644   C.3       1 RES1   0.0000
     3 O3      -7.8843  -4.3146  -4.8391   O.3       1 RES1   0.0000
     4 C4      -7.1413  -5.5475  -4.9900   C.2       1 RES1   0.0000
     5 O5      -5.9211  -5.4788  -5.0513   O.2       1 RES1   0.0000
     6 C6      -7.9283  -6.8345  -5.0724   C.3       1 RES1   0.0000
     7 C7      -7.1476  -8.1345  -5.2434   C.3       1 RES1   0.0000
     8 C8      -8.1887  -9.2820  -5.2569   C.3       1 RES1   0.0000
     9 C9      -7.5149 -10.6417  -5.4563   C.3       1 RES1   0.0000
    10 C10     -8.5151 -11.7988  -5.3639   C.3       1 RES1   0.0000
    11 C11     -9.0575 -12.0710  -3.9466   C.3       1 RES1   0.0000
    12 C12     -9.1127 -13.5875  -3.8162   C.3       1 RES1   0.0000
    13 N13     -8.2263 -14.0402  -4.8714   N.am      1 RES1   0.0000
    14 C14     -7.9131 -13.1149  -5.7820   C.2       1 RES1   0.0000
    15 O15     -7.2244 -13.3008  -6.7606   O.2       1 RES1   0.0000
    16 N16     -9.2073  -8.9766  -6.2524   N.am      1 RES1   0.0000
    17 C17    -10.4771  -9.4113  -6.1990   C.2       1 RES1   0.0000
    18 O18    -10.9569 -10.0683  -5.2915   O.2       1 RES1   0.0000
    19 C19    -11.3345  -9.0516  -7.3729   C.3       1 RES1   0.0000
    20 C20    -10.9948 -10.1052  -8.4289   C.3       1 RES1   0.0000
    21 C21    -11.8361 -10.1067  -9.6902   C.2       1 RES1   0.0000
    22 C22    -13.0061 -10.8565  -9.8078   C.2       1 RES1   0.0000
    23 C23    -13.7352 -10.8330 -10.9969   C.2       1 RES1   0.0000
    24 C24    -13.3051 -10.0627 -12.0712   C.2       1 RES1   0.0000
    25 C25    -12.1361  -9.3187 -11.9620   C.2       1 RES1   0.0000
    26 C26    -11.4030  -9.3479 -10.7825   C.2       1 RES1   0.0000
    27 N27    -11.1514  -7.6989  -7.8922   N.am      1 RES1   0.0000
    28 C28    -11.6221  -6.5667  -7.3710   C.2       1 RES1   0.0000
    29 O29    -12.3003  -6.5496  -6.3353   O.2       1 RES1   0.0000
    30 C30    -11.1910  -5.3689  -8.1604   C.2       1 RES1   0.0000
    31 O31    -10.5248  -5.5910  -9.1557   O.2       1 RES1   0.0000
    32 N32    -11.4050  -4.0723  -7.9719   N.am      1 RES1   0.0000
    33 C33    -10.9601  -2.9686  -8.7706   C.3       1 RES1   0.0000
    34 C34    -11.8808  -2.8383  -9.9698   C.3       1 RES1   0.0000
    35 C35    -11.7936  -1.4925 -10.8137   C.3       1 RES1   0.0000
    36 C36    -13.2251  -1.1794 -10.4387   C.3       1 RES1   0.0000
    37 C37    -13.3477  -2.4008  -9.5146   C.3       1 RES1   0.0000
@<TRIPOS>BOND
     1     1     2    1
     2     2     3    1
     3     3     4    1
     4     4     5    2
     5     4     6    1
     6     6     7    1
     7     8     7    1
     8     8     9    1
     9    10     9    1
    10    10    11    1
    11    11    12    1
    12    12    13    1
    13    13    14   am
    14    14    15    2
    15     8    16    1
    16    16    17   am
    17    17    18    2
    18    17    19    1
    19    19    20    1
    20    20    21    1
    21    21    22    2
    22    22    23    1
    23    23    24    2
    24    24    25    1
    25    25    26    2
    26    19    27    1
    27    27    28   am
    28    28    29    2
    29    28    30    1
    30    30    31    2
    31    30    32   am
    32    32    33    1
    33    33    34    1
    34    34    35    1
    35    35    36    1
    36    36    37    1
    37    14    10    1
    38    26    21    1
    39    37    34    1
@<TRIPOS>SUBSTRUCTURE
     1 RES1        1 GROUP             0 ****  ****    0  
@<TRIPOS>MOLECULE
ligand_30
    37    39     1     0     0
SMALL
NO_CHARGES
****
Generated from the CSD

@<TRIPOS>ATOM
     1 C1      -7.6006  -2.1294  -6.3932   C.3       1 RES1   0.0000
     2 C2      -6.6979  -3.3367  -6.2776   C.3       1 RES1   0.0000
     3 O3      -7.4789  -4.4964  -6.0007   O.3       1 RES1   0.0000
     4 C4      -6.8536  -5.7920  -5.8421   C.2       1 RES1   0.0000
     5 O5      -5.6369  -5.8600  -5.9530   O.2       1 RES1   0.0000
     6 C6      -7.7516  -6.9740  -5.5608   C.3       1 RES1   0.0000
     7 C7      -7.0940  -8.3402  -5.3882   C.3       1 RES1   0.0000
     8 C8      -6.2354  -8.2629  -4.1007   C.3       1 RES1   0.0000
     9 C9      -5.5145  -9.5863  -3.8329   C.3       1 RES1   0.0000
    10 C10     -4.6538  -9.5269  -2.5665   C.3       1 RES1   0.0000
    11 C11     -3.3889  -8.6537  -2.6868   C.3       1 RES1   0.0000
    12 C12     -2.2942  -9.4202  -1.9560   C.3       1 RES1   0.0000
    13 N13     -2.8218 -10.7701  -1.8976   N.am      1 RES1   0.0000
    14 C14     -4.1254 -10.8794  -2.1657   C.2       1 RES1   0.0000
    15 O15     -4.7638 -11.9079  -2.1291   O.2       1 RES1   0.0000
    16 N16     -7.0815  -7.8189  -3.0012   N.am      1 RES1   0.0000
    17 C17     -7.0951  -6.5692  -2.5091   C.2       1 RES1   0.0000
    18 O18     -6.4001  -5.6503  -2.9066   O.2       1 RES1   0.0000
    19 C19     -8.0420  -6.3307  -1.3737   C.3       1 RES1   0.0000
    20 C20     -9.1197  -5.4184  -1.9627   C.3       1 RES1   0.0000
    21 C21    -10.3270  -5.1333  -1.0910   C.2       1 RES1   0.0000
    22 C22    -11.4703  -5.9316  -1.1128   C.2       1 RES1   0.0000
    23 C23    -12.5594  -5.6158  -0.3001   C.2       1 RES1   0.0000
    24 C24    -12.5144  -4.5075   0.5377   C.2       1 RES1   0.0000
    25 C25    -11.3800  -3.7044   0.5586   C.2       1 RES1   0.0000
    26 C26    -10.2980  -4.0111  -0.2566   C.2       1 RES1   0.0000
    27 N27     -7.4481  -5.7473  -0.1738   N.am      1 RES1   0.0000
    28 C28     -7.9478  -5.7650   1.0612   C.2       1 RES1   0.0000
    29 O29     -9.0243  -6.3150   1.3289   O.2       1 RES1   0.0000
    30 C30     -7.0353  -5.0931   2.0408   C.2       1 RES1   0.0000
    31 O31     -6.0165  -4.6076   1.5824   O.2       1 RES1   0.0000
    32 N32     -7.1319  -4.9238   3.3540   N.am      1 RES1   0.0000
    33 C33     -6.2160  -4.2671   4.2393   C.3       1 RES1   0.0000
    34 C34     -6.4350  -2.7690   4.1365   C.3       1 RES1   0.0000
    35 C35     -5.7761  -1.8564   5.2607   C.3       1 RES1   0.0000
    36 C36     -7.1568  -1.4214   5.6993   C.3       1 RES1   0.0000
    37 C37     -7.8673  -2.3637   4.7151   C.3       1 RES1   0.0000
@<TRIPOS>BOND
     1     1     2    1
     2     2     3    1
     3     3     4    1
     4     4     5    2
     5     4     6    1
     6     6     7    1
     7     8     7    1
     8     8     9    1
     9    10     9    1
    10    10    11    1
    11    11    12    1
    12    12    13    1
    13    13    14   am
    14    14    15    2
    15     8    16    1
    16    16    17   am
    17    17    18    2
    18    17    19    1
    19    19    20    1
    20    20    21    1
    21    21    22    2
    22    22    23    1
    23    23    24    2
    24    24    25    1
    25    25    26    2
    26    19    27    1
    27    27    28   am
    28    28    29    2
    29    28    30    1
    30    30    31    2
    31    30    32   am
    32    32    33    1
    33    33    34    1
    34    34    35    1
    35    35    36    1
    36    36    37    1
    37    14    10    1
    38    26    21    1
    39    37    34    1
@<TRIPOS>SUBSTRUCTURE
     1 RES1        1 GROUP             0 ****  ****    0  
@<TRIPOS>MOLECULE
ligand_31
    37    39     1     0     0
SMALL
NO_CHARGES
****
Generated from the CSD

@<TRIPOS>ATOM
     1 C1      -7.4154  -1.9669  -6.1580   C.3       1 RES1   0.0000
     2 C2      -6.5345  -3.1876  -6.0176   C.3       1 RES1   0.0000
     3 O3      -7.3446  -4.3502  -5.8635   O.3       1 RES1   0.0000
     4 C4      -6.7443  -5.6581  -5.7088   C.2       1 RES1   0.0000
     5 O5      -5.5230  -5.7338  -5.7146   O.2       1 RES1   0.0000
     6 C6      -7.6715  -6.8418  -5.5618   C.3       1 RES1   0.0000
     7 C7      -7.0409  -8.2232  -5.4104   C.3       1 RES1   0.0000
     8 C8      -8.2059  -9.2279  -5.2248   C.3       1 RES1   0.0000
     9 C9      -7.6963 -10.6708  -5.1954   C.3       1 RES1   0.0000
    10 C10     -6.7162 -10.9117  -4.0424   C.3       1 RES1   0.0000
    11 C11     -5.2796 -10.4163  -4.3028   C.3       1 RES1   0.0000
    12 C12     -4.3676 -11.4889  -3.7218   C.3       1 RES1   0.0000
    13 N13     -5.2413 -12.6423  -3.6194   N.am      1 RES1   0.0000
    14 C14     -6.5451 -12.3750  -3.7285   C.2       1 RES1   0.0000
    15 O15     -7.4370 -13.1882  -3.6295   O.2       1 RES1   0.0000
    16 N16     -9.2073  -8.9766  -6.2524   N.am      1 RES1   0.0000
    17 C17    -10.5257  -8.8693  -6.0191   C.2       1 RES1   0.0000
    18 O18    -11.0556  -8.9668  -4.9260   O.2       1 RES1   0.0000
    19 C19    -11.3789  -8.6247  -7.2253   C.3       1 RES1   0.0000
    20 C20    -11.5778 -10.0123  -7.8381   C.3       1 RES1   0.0000
    21 C21    -12.5508 -10.1165  -8.9961   C.2       1 RES1   0.0000
    22 C22    -13.9085 -10.3760  -8.8109   C.2       1 RES1   0.0000
    23 C23    -14.7580 -10.4761  -9.9129   C.2       1 RES1   0.0000
    24 C24    -14.2613 -10.3163 -11.2013   C.2       1 RES1   0.0000
    25 C25    -12.9078 -10.0641 -11.3923   C.2       1 RES1   0.0000
    26 C26    -12.0580  -9.9736 -10.2973   C.2       1 RES1   0.0000
    27 N27    -10.8316  -7.6853  -8.2005   N.am      1 RES1   0.0000
    28 C28    -10.8089  -6.3561  -8.1120   C.2       1 RES1   0.0000
    29 O29    -11.2768  -5.7522  -7.1377   O.2       1 RES1   0.0000
    30 C30    -10.1242  -5.7314  -9.2887   C.2       1 RES1   0.0000
    31 O31     -9.7303  -6.4961 -10.1513   O.2       1 RES1   0.0000
    32 N32     -9.8578  -4.4627  -9.5752   N.am      1 RES1   0.0000
    33 C33     -9.1933  -3.9280 -10.7269   C.3       1 RES1   0.0000
    34 C34    -10.1864  -3.8679 -11.8728   C.3       1 RES1   0.0000
    35 C35     -9.7797  -3.0055 -13.1463   C.3       1 RES1   0.0000
    36 C36    -10.9479  -2.0826 -12.8788   C.3       1 RES1   0.0000
    37 C37    -11.3335  -2.7976 -11.5745   C.3       1 RES1   0.0000
@<TRIPOS>BOND
     1     1     2    1
     2     2     3    1
     3     3     4    1
     4     4     5    2
     5     4     6    1
     6     6     7    1
     7     8     7    1
     8     8     9    1
     9    10     9    1
    10    10    11    1
    11    11    12    1
    12    12    13    1
    13    13    14   am
    14    14    15    2
    15     8    16    1
    16    16    17   am
    17    17    18    2
    18    17    19    1
    19    19    20    1
    20    20    21    1
    21    21    22    2
    22    22    23    1
    23    23    24    2
    24    24    25    1
    25    25    26    2
    26    19    27    1
    27    27    28   am
    28    28    29    2
    29    28    30    1
    30    30    31    2
    31    30    32   am
    32    32    33    1
    33    33    34    1
    34    34    35    1
    35    35    36    1
    36    36    37    1
    37    14    10    1
    38    26    21    1
    39    37    34    1
@<TRIPOS>SUBSTRUCTURE
     1 RES1        1 GROUP             0 ****  ****    0  
@<TRIPOS>MOLECULE
ligand_32
    37    39     1     0     0
SMALL
NO_CHARGES
****
Generated from the CSD

@<TRIPOS>ATOM
     1 C1      -7.2175  -1.9635  -6.5790   C.3       1 RES1   0.0000
     2 C2      -6.3684  -3.2095  -6.4677   C.3       1 RES1   0.0000
     3 O3      -7.1990  -4.3347  -6.1927   O.3       1 RES1   0.0000
     4 C4      -6.6309  -5.6568  -6.0383   C.2       1 RES1   0.0000
     5 O5      -5.4184  -5.7777  -6.1510   O.2       1 RES1   0.0000
     6 C6      -7.5794  -6.7991  -5.7589   C.3       1 RES1   0.0000
     7 C7      -6.9837  -8.1959  -5.6074   C.3       1 RES1   0.0000
     8 C8      -8.1567  -9.1459  -5.2576   C.3       1 RES1   0.0000
     9 C9      -7.6753 -10.5907  -5.1042   C.3       1 RES1   0.0000
    10 C10     -8.8211 -11.5447  -4.7507   C.3       1 RES1   0.0000
    11 C11     -9.3743 -11.3862  -3.3204   C.3       1 RES1   0.0000
    12 C12     -9.6318 -12.8030  -2.8241   C.3       1 RES1   0.0000
    13 N13     -8.8301 -13.6151  -3.7196   N.am      1 RES1   0.0000
    14 C14     -8.4083 -12.9917  -4.8227   C.2       1 RES1   0.0000
    15 O15     -7.7654 -13.5023  -5.7129   O.2       1 RES1   0.0000
    16 N16     -9.2073  -8.9766  -6.2524   N.am      1 RES1   0.0000
    17 C17    -10.3152  -8.2395  -6.0702   C.2       1 RES1   0.0000
    18 O18    -10.6280  -7.6872  -5.0298   O.2       1 RES1   0.0000
    19 C19    -11.2185  -8.1234  -7.2590   C.3       1 RES1   0.0000
    20 C20    -12.3111  -9.1647  -7.0095   C.3       1 RES1   0.0000
    21 C21    -13.1383  -9.0009  -5.7495   C.2       1 RES1   0.0000
    22 C22    -12.7924  -9.6098  -4.5435   C.2       1 RES1   0.0000
    23 C23    -13.5972  -9.4377  -3.4171   C.2       1 RES1   0.0000
    24 C24    -14.7463  -8.6585  -3.4854   C.2       1 RES1   0.0000
    25 C25    -15.0996  -8.0547  -4.6865   C.2       1 RES1   0.0000
    26 C26    -14.3053  -8.2323  -5.8121   C.2       1 RES1   0.0000
    27 N27    -10.5773  -8.3245  -8.5557   N.am      1 RES1   0.0000
    28 C28    -11.0449  -7.9610  -9.7492   C.2       1 RES1   0.0000
    29 O29    -12.1319  -7.3836  -9.8835   O.2       1 RES1   0.0000
    30 C30    -10.0850  -8.2967 -10.8490   C.2       1 RES1   0.0000
    31 O31     -9.0628  -8.8692 -10.5158   O.2       1 RES1   0.0000
    32 N32    -10.1415  -8.0795 -12.1576   N.am      1 RES1   0.0000
    33 C33     -9.1812  -8.4279 -13.1627   C.3       1 RES1   0.0000
    34 C34     -9.3524  -9.8962 -13.5059   C.3       1 RES1   0.0000
    35 C35     -8.6340 -10.4263 -14.8226   C.3       1 RES1   0.0000
    36 C36     -9.9874 -10.7489 -15.4161   C.3       1 RES1   0.0000
    37 C37    -10.7546 -10.1511 -14.2265   C.3       1 RES1   0.0000
@<TRIPOS>BOND
     1     1     2    1
     2     2     3    1
     3     3     4    1
     4     4     5    2
     5     4     6    1
     6     6     7    1
     7     8     7    1
     8     8     9    1
     9    10     9    1
    10    10    11    1
    11    11    12    1
    12    12    13    1
    13    13    14   am
    14    14    15    2
    15     8    16    1
    16    16    17   am
    17    17    18    2
    18    17    19    1
    19    19    20    1
    20    20    21    1
    21    21    22    2
    22    22    23    1
    23    23    24    2
    24    24    25    1
    25    25    26    2
    26    19    27    1
    27    27    28   am
    28    28    29    2
    29    28    30    1
    30    30    31    2
    31    30    32   am
    32    32    33    1
    33    33    34    1
    34    34    35    1
    35    35    36    1
    36    36    37    1
    37    14    10    1
    38    26    21    1
    39    37    34    1
@<TRIPOS>SUBSTRUCTURE
     1 RES1        1 GROUP             0 ****  ****    0  
@<TRIPOS>MOLECULE
ligand_33
    37    39     1     0     0
SMALL
NO_CHARGES
****
Generated from the CSD

@<TRIPOS>ATOM
     1 C1      -7.3895  -1.9345  -5.8235   C.3       1 RES1   0.0000
     2 C2      -6.5153  -3.1676  -5.7938   C.3       1 RES1   0.0000
     3 O3      -7.3279  -4.3301  -5.6524   O.3       1 RES1   0.0000
     4 C4      -6.7340  -5.6487  -5.5970   C.2       1 RES1   0.0000
     5 O5      -5.5158  -5.7337  -5.6752   O.2       1 RES1   0.0000
     6 C6      -7.6641  -6.8310  -5.4571   C.3       1 RES1   0.0000
     7 C7      -7.0409  -8.2232  -5.4104   C.3       1 RES1   0.0000
     8 C8      -8.2059  -9.2279  -5.2248   C.3       1 RES1   0.0000
     9 C9      -7.6963 -10.6708  -5.1954   C.3       1 RES1   0.0000
    10 C10     -8.8341 -11.6793  -5.0051   C.3       1 RES1   0.0000
    11 C11     -9.4649 -11.6821  -3.5982   C.3       1 RES1   0.0000
    12 C12     -9.7115 -13.1479  -3.2657   C.3       1 RES1   0.0000
    13 N13     -8.8439 -13.8458  -4.1953   N.am      1 RES1   0.0000
    14 C14     -8.3814 -13.1023  -5.2036   C.2       1 RES1   0.0000
    15 O15     -7.6802 -13.5042  -6.1055   O.2       1 RES1   0.0000
    16 N16     -9.2073  -8.9766  -6.2524   N.am      1 RES1   0.0000
    17 C17    -10.4685  -8.5862  -6.0056   C.2       1 RES1   0.0000
    18 O18    -10.9395  -8.3917  -4.8985   O.2       1 RES1   0.0000
    19 C19    -11.3365  -8.4001  -7.2116   C.3       1 RES1   0.0000
    20 C20    -11.4879  -6.8832  -7.3408   C.3       1 RES1   0.0000
    21 C21    -12.2335  -6.1722  -6.2285   C.2       1 RES1   0.0000
    22 C22    -11.5827  -5.6232  -5.1239   C.2       1 RES1   0.0000
    23 C23    -12.3188  -4.9919  -4.1210   C.2       1 RES1   0.0000
    24 C24    -13.7029  -4.9024  -4.2141   C.2       1 RES1   0.0000
    25 C25    -14.3574  -5.4537  -5.3095   C.2       1 RES1   0.0000
    26 C26    -13.6278  -6.0913  -6.3047   C.2       1 RES1   0.0000
    27 N27    -12.6371  -9.0622  -7.1565   N.am      1 RES1   0.0000
    28 C28    -13.0686 -10.0536  -7.9349   C.2       1 RES1   0.0000
    29 O29    -12.3685 -10.5388  -8.8335   O.2       1 RES1   0.0000
    30 C30    -14.4441 -10.5051  -7.5504   C.2       1 RES1   0.0000
    31 O31    -14.9739  -9.8995  -6.6359   O.2       1 RES1   0.0000
    32 N32    -15.2161 -11.4711  -8.0337   N.am      1 RES1   0.0000
    33 C33    -16.5324 -11.8548  -7.6168   C.3       1 RES1   0.0000
    34 C34    -17.5329 -10.8929  -8.2306   C.3       1 RES1   0.0000
    35 C35    -19.0674 -11.3106  -8.1877   C.3       1 RES1   0.0000
    36 C36    -19.0861 -11.3497  -9.6997   C.3       1 RES1   0.0000
    37 C37    -17.5816 -11.0607  -9.8180   C.3       1 RES1   0.0000
@<TRIPOS>BOND
     1     1     2    1
     2     2     3    1
     3     3     4    1
     4     4     5    2
     5     4     6    1
     6     6     7    1
     7     8     7    1
     8     8     9    1
     9    10     9    1
    10    10    11    1
    11    11    12    1
    12    12    13    1
    13    13    14   am
    14    14    15    2
    15     8    16    1
    16    16    17   am
    17    17    18    2
    18    17    19    1
    19    19    20    1
    20    20    21    1
    21    21    22    2
    22    22    23    1
    23    23    24    2
    24    24    25    1
    25    25    26    2
    26    19    27    1
    27    27    28   am
    28    28    29    2
    29    28    30    1
    30    30    31    2
    31    30    32   am
    32    32    33    1
    33    33    34    1
    34    34    35    1
    35    35    36    1
    36    36    37    1
    37    14    10    1
    38    26    21    1
    39    37    34    1
@<TRIPOS>SUBSTRUCTURE
     1 RES1        1 GROUP             0 ****  ****    0  
@<TRIPOS>MOLECULE
ligand_34
    37    39     1     0     0
SMALL
NO_CHARGES
****
Generated from the CSD

@<TRIPOS>ATOM
     1 C1      -7.3657  -1.9218  -5.5743   C.3       1 RES1   0.0000
     2 C2      -6.4952  -3.1579  -5.5744   C.3       1 RES1   0.0000
     3 O3      -7.3134  -4.3225  -5.4998   O.3       1 RES1   0.0000
     4 C4      -6.7239  -5.6443  -5.4844   C.2       1 RES1   0.0000
     5 O5      -5.5044  -5.7299  -5.5373   O.2       1 RES1   0.0000
     6 C6      -7.6597  -6.8283  -5.4149   C.3       1 RES1   0.0000
     7 C7      -7.0409  -8.2232  -5.4104   C.3       1 RES1   0.0000
     8 C8      -8.2059  -9.2279  -5.2248   C.3       1 RES1   0.0000
     9 C9      -9.2700  -9.0520  -6.3107   C.3       1 RES1   0.0000
    10 C10    -10.3853 -10.0968  -6.1982   C.3       1 RES1   0.0000
    11 C11     -9.9680 -11.5298  -6.5851   C.3       1 RES1   0.0000
    12 C12    -11.1459 -12.1004  -7.3641   C.3       1 RES1   0.0000
    13 N13    -11.8832 -10.9152  -7.7589   N.am      1 RES1   0.0000
    14 C14    -11.5478  -9.7982  -7.1085   C.2       1 RES1   0.0000
    15 O15    -12.0707  -8.7164  -7.2596   O.2       1 RES1   0.0000
    16 N16     -8.7206  -9.1004  -3.8681   N.am      1 RES1   0.0000
    17 C17     -8.3717  -9.8972  -2.8446   C.2       1 RES1   0.0000
    18 O18     -7.5846 -10.8252  -2.9137   O.2       1 RES1   0.0000
    19 C19     -9.0349  -9.5978  -1.5357   C.3       1 RES1   0.0000
    20 C20     -7.9083  -9.0566  -0.6536   C.3       1 RES1   0.0000
    21 C21     -8.3052  -8.5017   0.7004   C.2       1 RES1   0.0000
    22 C22     -8.6393  -7.1611   0.8904   C.2       1 RES1   0.0000
    23 C23     -8.9834  -6.6994   2.1611   C.2       1 RES1   0.0000
    24 C24     -8.9987  -7.5688   3.2456   C.2       1 RES1   0.0000
    25 C25     -8.6600  -8.9046   3.0634   C.2       1 RES1   0.0000
    26 C26     -8.3076  -9.3648   1.8011   C.2       1 RES1   0.0000
    27 N27     -9.7112 -10.7270  -0.9027   N.am      1 RES1   0.0000
    28 C28    -10.8944 -11.2433  -1.2322   C.2       1 RES1   0.0000
    29 O29    -11.5759 -10.7901  -2.1612   O.2       1 RES1   0.0000
    30 C30    -11.2413 -12.4271  -0.3825   C.2       1 RES1   0.0000
    31 O31    -10.4393 -12.7203   0.4862   O.2       1 RES1   0.0000
    32 N32    -12.2901 -13.2411  -0.4004   N.am      1 RES1   0.0000
    33 C33    -12.5628 -14.3646   0.4464   C.3       1 RES1   0.0000
    34 C34    -13.1155 -13.8533   1.7640   C.3       1 RES1   0.0000
    35 C35    -13.8019 -14.9158   2.7288   C.3       1 RES1   0.0000
    36 C36    -15.1160 -14.1813   2.5824   C.3       1 RES1   0.0000
    37 C37    -14.5517 -13.1862   1.5565   C.3       1 RES1   0.0000
@<TRIPOS>BOND
     1     1     2    1
     2     2     3    1
     3     3     4    1
     4     4     5    2
     5     4     6    1
     6     6     7    1
     7     8     7    1
     8     8     9    1
     9    10     9    1
    10    10    11    1
    11    11    12    1
    12    12    13    1
    13    13    14   am
    14    14    15    2
    15     8    16    1
    16    16    17   am
    17    17    18    2
    18    17    19    1
    19    19    20    1
    20    20    21    1
    21    21    22    2
    22    22    23    1
    23    23    24    2
    24    24    25    1
    25    25    26    2
    26    19    27    1
    27    27    28   am
    28    28    29    2
    29    28    30    1
    30    30    31    2
    31    30    32   am
    32    32    33    1
    33    33    34    1
    34    34    35    1
    35    35    36    1
    36    36    37    1
    37    14    10    1
    38    26    21    1
    39    37    34    1
@<TRIPOS>SUBSTRUCTURE
     1 RES1        1 GROUP             0 ****  ****    0  
@<TRIPOS>MOLECULE
ligand_35
    37    39     1     0     0
SMALL
NO_CHARGES
****
Generated from the CSD

@<TRIPOS>ATOM
     1 C1      -7.7564  -2.0958  -6.3026   C.3       1 RES1   0.0000
     2 C2      -6.8460  -3.3011  -6.2369   C.3       1 RES1   0.0000
     3 O3      -7.6118  -4.4669  -5.9433   O.3       1 RES1   0.0000
     4 C4      -6.9766  -5.7619  -5.8248   C.2       1 RES1   0.0000
     5 O5      -5.7649  -5.8241  -5.9842   O.2       1 RES1   0.0000
     6 C6      -7.8590  -6.9504  -5.5227   C.3       1 RES1   0.0000
     7 C7      -7.1907  -8.3159  -5.3909   C.3       1 RES1   0.0000
     8 C8      -6.2799  -8.2483  -4.1391   C.3       1 RES1   0.0000
     9 C9      -5.5438  -9.5713  -3.9150   C.3       1 RES1   0.0000
    10 C10     -4.6036  -9.5094  -2.7066   C.3       1 RES1   0.0000
    11 C11     -3.3394  -8.6523  -2.9163   C.3       1 RES1   0.0000
    12 C12     -2.2089  -9.4242  -2.2484   C.3       1 RES1   0.0000
    13 N13     -2.7466 -10.7672  -2.1422   N.am      1 RES1   0.0000
    14 C14     -4.0657 -10.8640  -2.3257   C.2       1 RES1   0.0000
    15 O15     -4.7118 -11.8845  -2.2376   O.2       1 RES1   0.0000
    16 N16     -7.0815  -7.8189  -3.0012   N.am      1 RES1   0.0000
    17 C17     -7.0951  -6.5692  -2.5091   C.2       1 RES1   0.0000
    18 O18     -6.4001  -5.6503  -2.9066   O.2       1 RES1   0.0000
    19 C19     -8.0420  -6.3307  -1.3737   C.3       1 RES1   0.0000
    20 C20     -7.2872  -6.8258  -0.1386   C.3       1 RES1   0.0000
    21 C21     -5.9838  -6.1261   0.1936   C.2       1 RES1   0.0000
    22 C22     -4.7545  -6.5608  -0.3013   C.2       1 RES1   0.0000
    23 C23     -3.5830  -5.8886   0.0476   C.2       1 RES1   0.0000
    24 C24     -3.6300  -4.7816   0.8870   C.2       1 RES1   0.0000
    25 C25     -4.8517  -4.3479   1.3887   C.2       1 RES1   0.0000
    26 C26     -6.0186  -5.0213   1.0507   C.2       1 RES1   0.0000
    27 N27     -9.3449  -6.9790  -1.4970   N.am      1 RES1   0.0000
    28 C28    -10.4601  -6.6758  -0.8341   C.2       1 RES1   0.0000
    29 O29    -10.5036  -5.7616  -0.0003   O.2       1 RES1   0.0000
    30 C30    -11.6117  -7.5336  -1.2602   C.2       1 RES1   0.0000
    31 O31    -11.3688  -8.3848  -2.0970   O.2       1 RES1   0.0000
    32 N32    -12.8855  -7.5391  -0.8859   N.am      1 RES1   0.0000
    33 C33    -13.9449  -8.3925  -1.3368   C.3       1 RES1   0.0000
    34 C34    -13.8361  -9.7214  -0.6122   C.3       1 RES1   0.0000
    35 C35    -15.0864 -10.7017  -0.6942   C.3       1 RES1   0.0000
    36 C36    -15.2614 -10.5834   0.8036   C.3       1 RES1   0.0000
    37 C37    -14.1379  -9.5449   0.9461   C.3       1 RES1   0.0000
@<TRIPOS>BOND
     1     1     2    1
     2     2     3    1
     3     3     4    1
     4     4     5    2
     5     4     6    1
     6     6     7    1
     7     8     7    1
     8     8     9    1
     9    10     9    1
    10    10    11    1
    11    11    12    1
    12    12    13    1
    13    13    14   am
    14    14    15    2
    15     8    16    1
    16    16    17   am
    17    17    18    2
    18    17    19    1
    19    19    20    1
    20    20    21    1
    21    21    22    2
    22    22    23    1
    23    23    24    2
    24    24    25    1
    25    25    26    2
    26    19    27    1
    27    27    28   am
    28    28    29    2
    29    28    30    1
    30    30    31    2
    31    30    32   am
    32    32    33    1
    33    33    34    1
    34    34    35    1
    35    35    36    1
    36    36    37    1
    37    14    10    1
    38    26    21    1
    39    37    34    1
@<TRIPOS>SUBSTRUCTURE
     1 RES1        1 GROUP             0 ****  ****    0  
@<TRIPOS>MOLECULE
ligand_36
    37    39     1     0     0
SMALL
NO_CHARGES
****
Generated from the CSD

@<TRIPOS>ATOM
     1 C1      -7.1426  -1.9908  -6.0669   C.3       1 RES1   0.0000
     2 C2      -6.3101  -3.2500  -5.9821   C.3       1 RES1   0.0000
     3 O3      -7.1629  -4.3806  -5.8211   O.3       1 RES1   0.0000
     4 C4      -6.6137  -5.7154  -5.7134   C.2       1 RES1   0.0000
     5 O5      -5.3977  -5.8420  -5.7650   O.2       1 RES1   0.0000
     6 C6      -7.5846  -6.8621  -5.5556   C.3       1 RES1   0.0000
     7 C7      -7.0085  -8.2715  -5.4539   C.3       1 RES1   0.0000
     8 C8      -8.2059  -9.2279  -5.2248   C.3       1 RES1   0.0000
     9 C9      -7.7465 -10.6859  -5.1502   C.3       1 RES1   0.0000
    10 C10     -6.6917 -10.9020  -4.0599   C.3       1 RES1   0.0000
    11 C11     -6.0941 -12.3224  -4.0129   C.3       1 RES1   0.0000
    12 C12     -5.9653 -12.6611  -2.5336   C.3       1 RES1   0.0000
    13 N13     -6.8620 -11.7129  -1.9005   N.am      1 RES1   0.0000
    14 C14     -7.2452 -10.6942  -2.6743   C.2       1 RES1   0.0000
    15 O15     -7.9544  -9.7772  -2.3240   O.2       1 RES1   0.0000
    16 N16     -9.2073  -8.9766  -6.2524   N.am      1 RES1   0.0000
    17 C17    -10.3152  -8.2395  -6.0702   C.2       1 RES1   0.0000
    18 O18    -10.6280  -7.6872  -5.0298   O.2       1 RES1   0.0000
    19 C19    -11.2185  -8.1234  -7.2590   C.3       1 RES1   0.0000
    20 C20    -12.0444  -9.4109  -7.2362   C.3       1 RES1   0.0000
    21 C21    -13.1807  -9.5134  -8.2347   C.2       1 RES1   0.0000
    22 C22    -14.4738  -9.0800  -7.9431   C.2       1 RES1   0.0000
    23 C23    -15.4864  -9.2109  -8.8938   C.2       1 RES1   0.0000
    24 C24    -15.2163  -9.7704 -10.1372   C.2       1 RES1   0.0000
    25 C25    -13.9308 -10.2102 -10.4310   C.2       1 RES1   0.0000
    26 C26    -12.9230 -10.0900  -9.4827   C.2       1 RES1   0.0000
    27 N27    -10.5455  -7.9451  -8.5429   N.am      1 RES1   0.0000
    28 C28     -9.9991  -6.8259  -9.0160   C.2       1 RES1   0.0000
    29 O29    -10.0091  -5.7658  -8.3764   O.2       1 RES1   0.0000
    30 C30     -9.3599  -7.0406 -10.3536   C.2       1 RES1   0.0000
    31 O31     -9.4576  -8.1600 -10.8239   O.2       1 RES1   0.0000
    32 N32     -8.6862  -6.2147 -11.1452   N.am      1 RES1   0.0000
    33 C33     -8.0952  -6.4857 -12.4224   C.3       1 RES1   0.0000
    34 C34     -9.1845  -6.4397 -13.4780   C.3       1 RES1   0.0000
    35 C35     -8.7237  -6.3760 -14.9994   C.3       1 RES1   0.0000
    36 C36     -9.3770  -5.0177 -15.1273   C.3       1 RES1   0.0000
    37 C37     -9.7563  -4.9573 -13.6395   C.3       1 RES1   0.0000
@<TRIPOS>BOND
     1     1     2    1
     2     2     3    1
     3     3     4    1
     4     4     5    2
     5     4     6    1
     6     6     7    1
     7     8     7    1
     8     8     9    1
     9    10     9    1
    10    10    11    1
    11    11    12    1
    12    12    13    1
    13    13    14   am
    14    14    15    2
    15     8    16    1
    16    16    17   am
    17    17    18    2
    18    17    19    1
    19    19    20    1
    20    20    21    1
    21    21    22    2
    22    22    23    1
    23    23    24    2
    24    24    25    1
    25    25    26    2
    26    19    27    1
    27    27    28   am
    28    28    29    2
    29    28    30    1
    30    30    31    2
    31    30    32   am
    32    32    33    1
    33    33    34    1
    34    34    35    1
    35    35    36    1
    36    36    37    1
    37    14    10    1
    38    26    21    1
    39    37    34    1
@<TRIPOS>SUBSTRUCTURE
     1 RES1        1 GROUP             0 ****  ****    0  
@<TRIPOS>MOLECULE
ligand_37
    37    39     1     0     0
SMALL
NO_CHARGES
****
Generated from the CSD

@<TRIPOS>ATOM
     1 C1      -7.1734  -2.0256  -6.4126   C.3       1 RES1   0.0000
     2 C2      -6.3332  -3.2694  -6.2320   C.3       1 RES1   0.0000
     3 O3      -7.1811  -4.3996  -6.0439   O.3       1 RES1   0.0000
     4 C4      -6.6242  -5.7209  -5.8470   C.2       1 RES1   0.0000
     5 O5      -5.4060  -5.8366  -5.8472   O.2       1 RES1   0.0000
     6 C6      -7.5898  -6.8686  -5.6657   C.3       1 RES1   0.0000
     7 C7      -7.0050  -8.2644  -5.4698   C.3       1 RES1   0.0000
     8 C8      -8.2008  -9.2196  -5.2278   C.3       1 RES1   0.0000
     9 C9      -7.7404 -10.6769  -5.1442   C.3       1 RES1   0.0000
    10 C10     -6.7535 -10.9036  -3.9941   C.3       1 RES1   0.0000
    11 C11     -5.3042 -10.4712  -4.2932   C.3       1 RES1   0.0000
    12 C12     -4.4224 -11.5501  -3.6783   C.3       1 RES1   0.0000
    13 N13     -5.3345 -12.6663  -3.5159   N.am      1 RES1   0.0000
    14 C14     -6.6295 -12.3576  -3.6202   C.2       1 RES1   0.0000
    15 O15     -7.5480 -13.1336  -3.4756   O.2       1 RES1   0.0000
    16 N16     -9.2073  -8.9766  -6.2524   N.am      1 RES1   0.0000
    17 C17    -10.3152  -8.2395  -6.0702   C.2       1 RES1   0.0000
    18 O18    -10.6280  -7.6872  -5.0298   O.2       1 RES1   0.0000
    19 C19    -11.2185  -8.1234  -7.2590   C.3       1 RES1   0.0000
    20 C20    -12.4631  -8.9237  -6.8705   C.3       1 RES1   0.0000
    21 C21    -13.6450  -8.8543  -7.8176   C.2       1 RES1   0.0000
    22 C22    -14.6438  -7.8884  -7.6975   C.2       1 RES1   0.0000
    23 C23    -15.7179  -7.8786  -8.5877   C.2       1 RES1   0.0000
    24 C24    -15.8011  -8.8269  -9.6007   C.2       1 RES1   0.0000
    25 C25    -14.8120  -9.7961  -9.7210   C.2       1 RES1   0.0000
    26 C26    -13.7466  -9.8141  -8.8301   C.2       1 RES1   0.0000
    27 N27    -10.6560  -8.5934  -8.5222   N.am      1 RES1   0.0000
    28 C28     -9.7761  -7.9595  -9.2962   C.2       1 RES1   0.0000
    29 O29     -9.3229  -6.8452  -9.0033   O.2       1 RES1   0.0000
    30 C30     -9.3984  -8.7760 -10.4939   C.2       1 RES1   0.0000
    31 O31     -9.9568  -9.8524 -10.6100   O.2       1 RES1   0.0000
    32 N32     -8.5429  -8.5391 -11.4812   N.am      1 RES1   0.0000
    33 C33     -8.2250  -9.3690 -12.6054   C.3       1 RES1   0.0000
    34 C34     -9.3130  -9.2041 -13.6504   C.3       1 RES1   0.0000
    35 C35     -9.0124  -9.7593 -15.1106   C.3       1 RES1   0.0000
    36 C36     -9.1134  -8.3510 -15.6532   C.3       1 RES1   0.0000
    37 C37     -9.2955  -7.7283 -14.2603   C.3       1 RES1   0.0000
@<TRIPOS>BOND
     1     1     2    1
     2     2     3    1
     3     3     4    1
     4     4     5    2
     5     4     6    1
     6     6     7    1
     7     8     7    1
     8     8     9    1
     9    10     9    1
    10    10    11    1
    11    11    12    1
    12    12    13    1
    13    13    14   am
    14    14    15    2
    15     8    16    1
    16    16    17   am
    17    17    18    2
    18    17    19    1
    19    19    20    1
    20    20    21    1
    21    21    22    2
    22    22    23    1
    23    23    24    2
    24    24    25    1
    25    25    26    2
    26    19    27    1
    27    27    28   am
    28    28    29    2
    29    28    30    1
    30    30    31    2
    31    30    32   am
    32    32    33    1
    33    33    34    1
    34    34    35    1
    35    35    36    1
    36    36    37    1
    37    14    10    1
    38    26    21    1
    39    37    34    1
@<TRIPOS>SUBSTRUCTURE
     1 RES1        1 GROUP             0 ****  ****    0  
@<TRIPOS>MOLECULE
ligand_38
    37    39     1     0     0
SMALL
NO_CHARGES
****
Generated from the CSD

@<TRIPOS>ATOM
     1 C1      -7.6005  -2.1293  -6.3932   C.3       1 RES1   0.0000
     2 C2      -6.6979  -3.3367  -6.2776   C.3       1 RES1   0.0000
     3 O3      -7.4788  -4.4964  -6.0006   O.3       1 RES1   0.0000
     4 C4      -6.8536  -5.7920  -5.8421   C.2       1 RES1   0.0000
     5 O5      -5.6368  -5.8600  -5.9530   O.2       1 RES1   0.0000
     6 C6      -7.7516  -6.9740  -5.5608   C.3       1 RES1   0.0000
     7 C7      -7.0940  -8.3402  -5.3882   C.3       1 RES1   0.0000
     8 C8      -6.2354  -8.2629  -4.1007   C.3       1 RES1   0.0000
     9 C9      -5.5146  -9.5863  -3.8329   C.3       1 RES1   0.0000
    10 C10     -4.6539  -9.5269  -2.5665   C.3       1 RES1   0.0000
    11 C11     -3.3889  -8.6537  -2.6868   C.3       1 RES1   0.0000
    12 C12     -2.2942  -9.4202  -1.9560   C.3       1 RES1   0.0000
    13 N13     -2.8218 -10.7701  -1.8976   N.am      1 RES1   0.0000
    14 C14     -4.1254 -10.8795  -2.1657   C.2       1 RES1   0.0000
    15 O15     -4.7638 -11.9079  -2.1291   O.2       1 RES1   0.0000
    16 N16     -7.0815  -7.8189  -3.0012   N.am      1 RES1   0.0000
    17 C17     -7.0951  -6.5692  -2.5091   C.2       1 RES1   0.0000
    18 O18     -6.4001  -5.6503  -2.9066   O.2       1 RES1   0.0000
    19 C19     -8.0420  -6.3307  -1.3737   C.3       1 RES1   0.0000
    20 C20     -9.4003  -6.1273  -2.0478   C.3       1 RES1   0.0000
    21 C21    -10.6086  -6.0280  -1.1374   C.2       1 RES1   0.0000
    22 C22    -11.3479  -7.1458  -0.7515   C.2       1 RES1   0.0000
    23 C23    -12.4605  -6.9965   0.0768   C.2       1 RES1   0.0000
    24 C24    -12.8398  -5.7368   0.5256   C.2       1 RES1   0.0000
    25 C25    -12.1107  -4.6184   0.1388   C.2       1 RES1   0.0000
    26 C26    -11.0082  -4.7632  -0.6937   C.2       1 RES1   0.0000
    27 N27     -7.7064  -5.2075  -0.5026   N.am      1 RES1   0.0000
    28 C28     -6.7714  -5.1768   0.4461   C.2       1 RES1   0.0000
    29 O29     -6.0539  -6.1543   0.6965   O.2       1 RES1   0.0000
    30 C30     -6.6886  -3.8332   1.1029   C.2       1 RES1   0.0000
    31 O31     -7.4849  -2.9955   0.7183   O.2       1 RES1   0.0000
    32 N32     -5.8851  -3.3708   2.0534   N.am      1 RES1   0.0000
    33 C33     -5.8573  -2.0642   2.6413   C.3       1 RES1   0.0000
    34 C34     -6.9607  -1.9783   3.6796   C.3       1 RES1   0.0000
    35 C35     -6.9146  -0.7535   4.6938   C.3       1 RES1   0.0000
    36 C36     -6.7361  -1.7250   5.8394   C.3       1 RES1   0.0000
    37 C37     -6.6573  -2.9476   4.9120   C.3       1 RES1   0.0000
@<TRIPOS>BOND
     1     1     2    1
     2     2     3    1
     3     3     4    1
     4     4     5    2
     5     4     6    1
     6     6     7    1
     7     8     7    1
     8     8     9    1
     9    10     9    1
    10    10    11    1
    11    11    12    1
    12    12    13    1
    13    13    14   am
    14    14    15    2
    15     8    16    1
    16    16    17   am
    17    17    18    2
    18    17    19    1
    19    19    20    1
    20    20    21    1
    21    21    22    2
    22    22    23    1
    23    23    24    2
    24    24    25    1
    25    25    26    2
    26    19    27    1
    27    27    28   am
    28    28    29    2
    29    28    30    1
    30    30    31    2
    31    30    32   am
    32    32    33    1
    33    33    34    1
    34    34    35    1
    35    35    36    1
    36    36    37    1
    37    14    10    1
    38    26    21    1
    39    37    34    1
@<TRIPOS>SUBSTRUCTURE
     1 RES1        1 GROUP             0 ****  ****    0  
@<TRIPOS>MOLECULE
ligand_39
    37    39     1     0     0
SMALL
NO_CHARGES
****
Generated from the CSD

@<TRIPOS>ATOM
     1 C1      -7.2092  -1.9493  -6.0821   C.3       1 RES1   0.0000
     2 C2      -6.3711  -3.2054  -6.0069   C.3       1 RES1   0.0000
     3 O3      -7.2165  -4.3371  -5.8167   O.3       1 RES1   0.0000
     4 C4      -6.6609  -5.6694  -5.7114   C.2       1 RES1   0.0000
     5 O5      -5.4461  -5.7930  -5.7906   O.2       1 RES1   0.0000
     6 C6      -7.6244  -6.8175  -5.5214   C.3       1 RES1   0.0000
     7 C7      -7.0409  -8.2232  -5.4104   C.3       1 RES1   0.0000
     8 C8      -6.2268  -8.2660  -4.0928   C.3       1 RES1   0.0000
     9 C9      -5.6050  -9.6463  -3.8679   C.3       1 RES1   0.0000
    10 C10     -4.7892  -9.7060  -2.5722   C.3       1 RES1   0.0000
    11 C11     -3.4660  -8.9156  -2.6062   C.3       1 RES1   0.0000
    12 C12     -2.4516  -9.7884  -1.8787   C.3       1 RES1   0.0000
    13 N13     -3.0688 -11.1009  -1.9059   N.am      1 RES1   0.0000
    14 C14     -4.3661 -11.1088  -2.2224   C.2       1 RES1   0.0000
    15 O15     -5.0718 -12.0924  -2.2588   O.2       1 RES1   0.0000
    16 N16     -7.0815  -7.8189  -3.0012   N.am      1 RES1   0.0000
    17 C17     -6.7228  -6.9128  -2.0768   C.2       1 RES1   0.0000
    18 O18     -5.6436  -6.3485  -2.0283   O.2       1 RES1   0.0000
    19 C19     -7.7528  -6.6103  -1.0327   C.3       1 RES1   0.0000
    20 C20     -8.1898  -5.1755  -1.3341   C.3       1 RES1   0.0000
    21 C21     -9.3615  -4.6350  -0.5381   C.2       1 RES1   0.0000
    22 C22    -10.6818  -4.7671  -0.9675   C.2       1 RES1   0.0000
    23 C23    -11.7220  -4.2382  -0.2031   C.2       1 RES1   0.0000
    24 C24    -11.4534  -3.5788   0.9907   C.2       1 RES1   0.0000
    25 C25    -10.1389  -3.4382   1.4203   C.2       1 RES1   0.0000
    26 C26     -9.1006  -3.9554   0.6563   C.2       1 RES1   0.0000
    27 N27     -7.3042  -6.7510   0.3500   N.am      1 RES1   0.0000
    28 C28     -7.1399  -7.8844   1.0309   C.2       1 RES1   0.0000
    29 O29     -7.3646  -8.9936   0.5289   O.2       1 RES1   0.0000
    30 C30     -6.6230  -7.6330   2.4141   C.2       1 RES1   0.0000
    31 O31     -6.4658  -6.4661   2.7267   O.2       1 RES1   0.0000
    32 N32     -6.2936  -8.4689   3.3916   N.am      1 RES1   0.0000
    33 C33     -5.8006  -8.1609   4.7015   C.3       1 RES1   0.0000
    34 C34     -6.9741  -7.7651   5.5785   C.3       1 RES1   0.0000
    35 C35     -6.7243  -7.7058   7.1486   C.3       1 RES1   0.0000
    36 C36     -7.7321  -8.8177   7.3383   C.3       1 RES1   0.0000
    37 C37     -7.9417  -9.0109   5.8284   C.3       1 RES1   0.0000
@<TRIPOS>BOND
     1     1     2    1
     2     2     3    1
     3     3     4    1
     4     4     5    2
     5     4     6    1
     6     6     7    1
     7     8     7    1
     8     8     9    1
     9    10     9    1
    10    10    11    1
    11    11    12    1
    12    12    13    1
    13    13    14   am
    14    14    15    2
    15     8    16    1
    16    16    17   am
    17    17    18    2
    18    17    19    1
    19    19    20    1
    20    20    21    1
    21    21    22    2
    22    22    23    1
    23    23    24    2
    24    24    25    1
    25    25    26    2
    26    19    27    1
    27    27    28   am
    28    28    29    2
    29    28    30    1
    30    30    31    2
    31    30    32   am
    32    32    33    1
    33    33    34    1
    34    34    35    1
    35    35    36    1
    36    36    37    1
    37    14    10    1
    38    26    21    1
    39    37    34    1
@<TRIPOS>SUBSTRUCTURE
     1 RES1        1 GROUP             0 ****  ****    0  
@<TRIPOS>MOLECULE
ligand_40
    37    39     1     0     0
SMALL
NO_CHARGES
****
Generated from the CSD

@<TRIPOS>ATOM
     1 C1      -7.3441  -1.9240  -6.5342   C.3       1 RES1   0.0000
     2 C2      -6.4721  -3.1551  -6.4342   C.3       1 RES1   0.0000
     3 O3      -7.2816  -4.2976  -6.1679   O.3       1 RES1   0.0000
     4 C4      -6.6891  -5.6103  -6.0251   C.2       1 RES1   0.0000
     5 O5      -5.4747  -5.7079  -6.1399   O.2       1 RES1   0.0000
     6 C6      -7.6161  -6.7721  -5.7544   C.3       1 RES1   0.0000
     7 C7      -6.9948  -8.1589  -5.6153   C.3       1 RES1   0.0000
     8 C8      -8.1485  -9.1319  -5.2641   C.3       1 RES1   0.0000
     9 C9      -7.6401 -10.5684  -5.1207   C.3       1 RES1   0.0000
    10 C10     -8.7503 -11.5313  -4.6869   C.3       1 RES1   0.0000
    11 C11     -9.2114 -11.3672  -3.2249   C.3       1 RES1   0.0000
    12 C12     -9.4211 -12.7827  -2.7029   C.3       1 RES1   0.0000
    13 N13     -8.6705 -13.5935  -3.6428   N.am      1 RES1   0.0000
    14 C14     -8.3277 -12.9745  -4.7753   C.2       1 RES1   0.0000
    15 O15     -7.7384 -13.4855  -5.7016   O.2       1 RES1   0.0000
    16 N16     -9.2073  -8.9766  -6.2524   N.am      1 RES1   0.0000
    17 C17    -10.3152  -8.2395  -6.0702   C.2       1 RES1   0.0000
    18 O18    -10.6280  -7.6872  -5.0298   O.2       1 RES1   0.0000
    19 C19    -11.2185  -8.1234  -7.2590   C.3       1 RES1   0.0000
    20 C20    -12.5020  -8.8384  -6.8326   C.3       1 RES1   0.0000
    21 C21    -12.3953 -10.3228  -6.5435   C.2       1 RES1   0.0000
    22 C22    -12.1207 -10.8186  -5.2692   C.2       1 RES1   0.0000
    23 C23    -12.0189 -12.1943  -5.0609   C.2       1 RES1   0.0000
    24 C24    -12.1921 -13.0808  -6.1175   C.2       1 RES1   0.0000
    25 C25    -12.4593 -12.5921  -7.3910   C.2       1 RES1   0.0000
    26 C26    -12.5516 -11.2224  -7.6031   C.2       1 RES1   0.0000
    27 N27    -10.6903  -8.6746  -8.5041   N.am      1 RES1   0.0000
    28 C28     -9.7804  -8.1230  -9.3058   C.2       1 RES1   0.0000
    29 O29     -9.2635  -7.0252  -9.0594   O.2       1 RES1   0.0000
    30 C30     -9.4559  -9.0068 -10.4708   C.2       1 RES1   0.0000
    31 O31    -10.0746 -10.0536 -10.5417   O.2       1 RES1   0.0000
    32 N32     -8.5938  -8.8583 -11.4696   N.am      1 RES1   0.0000
    33 C33     -8.3293  -9.7492 -12.5606   C.3       1 RES1   0.0000
    34 C34     -9.4121  -9.5650 -13.6078   C.3       1 RES1   0.0000
    35 C35     -9.1512 -10.1943 -15.0455   C.3       1 RES1   0.0000
    36 C36     -9.1757  -8.8054 -15.6440   C.3       1 RES1   0.0000
    37 C37     -9.3147  -8.1181 -14.2767   C.3       1 RES1   0.0000
@<TRIPOS>BOND
     1     1     2    1
     2     2     3    1
     3     3     4    1
     4     4     5    2
     5     4     6    1
     6     6     7    1
     7     8     7    1
     8     8     9    1
     9    10     9    1
    10    10    11    1
    11    11    12    1
    12    12    13    1
    13    13    14   am
    14    14    15    2
    15     8    16    1
    16    16    17   am
    17    17    18    2
    18    17    19    1
    19    19    20    1
    20    20    21    1
    21    21    22    2
    22    22    23    1
    23    23    24    2
    24    24    25    1
    25    25    26    2
    26    19    27    1
    27    27    28   am
    28    28    29    2
    29    28    30    1
    30    30    31    2
    31    30    32   am
    32    32    33    1
    33    33    34    1
    34    34    35    1
    35    35    36    1
    36    36    37    1
    37    14    10    1
    38    26    21    1
    39    37    34    1
@<TRIPOS>SUBSTRUCTURE
     1 RES1        1 GROUP             0 ****  ****    0  
@<TRIPOS>MOLECULE
ligand_41
    37    39     1     0     0
SMALL
NO_CHARGES
****
Generated from the CSD

@<TRIPOS>ATOM
     1 C1      -8.1178  -2.1855  -6.1904   C.3       1 RES1   0.0000
     2 C2      -7.1228  -3.3216  -6.1204   C.3       1 RES1   0.0000
     3 O3      -7.8078  -4.5462  -5.8699   O.3       1 RES1   0.0000
     4 C4      -7.0818  -5.7931  -5.7566   C.2       1 RES1   0.0000
     5 O5      -5.8650  -5.7628  -5.8822   O.2       1 RES1   0.0000
     6 C6      -7.8816  -7.0492  -5.5013   C.3       1 RES1   0.0000
     7 C7      -7.1184  -8.3652  -5.3823   C.3       1 RES1   0.0000
     8 C8      -6.2434  -8.2602  -4.1079   C.3       1 RES1   0.0000
     9 C9      -5.4967  -9.5685  -3.8368   C.3       1 RES1   0.0000
    10 C10     -4.5540  -9.9418  -4.9857   C.3       1 RES1   0.0000
    11 C11     -5.2424 -10.6061  -6.1948   C.3       1 RES1   0.0000
    12 C12     -4.2962 -11.7115  -6.6452   C.3       1 RES1   0.0000
    13 N13     -3.4494 -11.9117  -5.4846   N.am      1 RES1   0.0000
    14 C14     -3.5065 -10.9411  -4.5692   C.2       1 RES1   0.0000
    15 O15     -2.8492 -10.8977  -3.5530   O.2       1 RES1   0.0000
    16 N16     -7.0815  -7.8189  -3.0012   N.am      1 RES1   0.0000
    17 C17     -7.0951  -6.5692  -2.5091   C.2       1 RES1   0.0000
    18 O18     -6.4001  -5.6503  -2.9066   O.2       1 RES1   0.0000
    19 C19     -8.0420  -6.3307  -1.3737   C.3       1 RES1   0.0000
    20 C20     -7.2900  -6.8323  -0.1395   C.3       1 RES1   0.0000
    21 C21     -7.9326  -6.5686   1.2081   C.2       1 RES1   0.0000
    22 C22     -7.6798  -5.4108   1.9434   C.2       1 RES1   0.0000
    23 C23     -8.2869  -5.2247   3.1856   C.2       1 RES1   0.0000
    24 C24     -9.1484  -6.1871   3.6992   C.2       1 RES1   0.0000
    25 C25     -9.3987  -7.3461   2.9738   C.2       1 RES1   0.0000
    26 C26     -8.7881  -7.5384   1.7412   C.2       1 RES1   0.0000
    27 N27     -9.3471  -6.9738  -1.5000   N.am      1 RES1   0.0000
    28 C28    -10.3683  -6.5791  -2.2593   C.2       1 RES1   0.0000
    29 O29    -10.3070  -5.5698  -2.9737   O.2       1 RES1   0.0000
    30 C30    -11.5307  -7.5187  -2.1614   C.2       1 RES1   0.0000
    31 O31    -11.4001  -8.4597  -1.3990   O.2       1 RES1   0.0000
    32 N32    -12.7113  -7.5179  -2.7688   N.am      1 RES1   0.0000
    33 C33    -13.7873  -8.4542  -2.6301   C.3       1 RES1   0.0000
    34 C34    -14.5566  -8.1219  -1.3649   C.3       1 RES1   0.0000
    35 C35    -15.9814  -8.8042  -1.1769   C.3       1 RES1   0.0000
    36 C36    -16.6267  -7.4365  -1.2099   C.3       1 RES1   0.0000
    37 C37    -15.3019  -6.7166  -1.5062   C.3       1 RES1   0.0000
@<TRIPOS>BOND
     1     1     2    1
     2     2     3    1
     3     3     4    1
     4     4     5    2
     5     4     6    1
     6     6     7    1
     7     8     7    1
     8     8     9    1
     9    10     9    1
    10    10    11    1
    11    11    12    1
    12    12    13    1
    13    13    14   am
    14    14    15    2
    15     8    16    1
    16    16    17   am
    17    17    18    2
    18    17    19    1
    19    19    20    1
    20    20    21    1
    21    21    22    2
    22    22    23    1
    23    23    24    2
    24    24    25    1
    25    25    26    2
    26    19    27    1
    27    27    28   am
    28    28    29    2
    29    28    30    1
    30    30    31    2
    31    30    32   am
    32    32    33    1
    33    33    34    1
    34    34    35    1
    35    35    36    1
    36    36    37    1
    37    14    10    1
    38    26    21    1
    39    37    34    1
@<TRIPOS>SUBSTRUCTURE
     1 RES1        1 GROUP             0 ****  ****    0  
@<TRIPOS>MOLECULE
ligand_42
    37    39     1     0     0
SMALL
NO_CHARGES
****
Generated from the CSD

@<TRIPOS>ATOM
     1 C1      -7.4127  -1.9613  -6.1106   C.3       1 RES1   0.0000
     2 C2      -6.5343  -3.1891  -6.0300   C.3       1 RES1   0.0000
     3 O3      -7.3422  -4.3462  -5.8297   O.3       1 RES1   0.0000
     4 C4      -6.7436  -5.6592  -5.7176   C.2       1 RES1   0.0000
     5 O5      -5.5257  -5.7441  -5.8000   O.2       1 RES1   0.0000
     6 C6      -7.6689  -6.8365  -5.5171   C.3       1 RES1   0.0000
     7 C7      -7.0409  -8.2232  -5.4104   C.3       1 RES1   0.0000
     8 C8      -8.2059  -9.2279  -5.2248   C.3       1 RES1   0.0000
     9 C9      -8.8288  -9.1058  -3.8321   C.3       1 RES1   0.0000
    10 C10     -9.9805 -10.0956  -3.6279   C.3       1 RES1   0.0000
    11 C11    -11.2589  -9.7713  -4.4263   C.3       1 RES1   0.0000
    12 C12    -12.4157 -10.0714  -3.4819   C.3       1 RES1   0.0000
    13 N13    -11.7818 -10.0747  -2.1772   N.am      1 RES1   0.0000
    14 C14    -10.4485 -10.1471  -2.1970   C.2       1 RES1   0.0000
    15 O15     -9.7360 -10.2045  -1.2194   O.2       1 RES1   0.0000
    16 N16     -7.7234 -10.5657  -5.5402   N.am      1 RES1   0.0000
    17 C17     -7.8892 -11.1737  -6.7263   C.2       1 RES1   0.0000
    18 O18     -8.4606 -10.6916  -7.6888   O.2       1 RES1   0.0000
    19 C19     -7.3259 -12.5575  -6.8289   C.3       1 RES1   0.0000
    20 C20     -6.1475 -12.4176  -7.7945   C.3       1 RES1   0.0000
    21 C21     -5.2608 -13.6343  -7.9736   C.2       1 RES1   0.0000
    22 C22     -4.1409 -13.8674  -7.1758   C.2       1 RES1   0.0000
    23 C23     -3.3504 -14.9962  -7.3928   C.2       1 RES1   0.0000
    24 C24     -3.6718 -15.8973  -8.4013   C.2       1 RES1   0.0000
    25 C25     -4.7830 -15.6666  -9.2039   C.2       1 RES1   0.0000
    26 C26     -5.5662 -14.5384  -8.9963   C.2       1 RES1   0.0000
    27 N27     -8.2627 -13.5843  -7.2772   N.am      1 RES1   0.0000
    28 C28     -9.2184 -14.1706  -6.5575   C.2       1 RES1   0.0000
    29 O29     -9.4174 -13.8857  -5.3692   O.2       1 RES1   0.0000
    30 C30    -10.0101 -15.1463  -7.3730   C.2       1 RES1   0.0000
    31 O31     -9.6587 -15.2912  -8.5303   O.2       1 RES1   0.0000
    32 N32    -11.0545 -15.9043  -7.0611   N.am      1 RES1   0.0000
    33 C33    -11.7716 -16.8231  -7.8950   C.3       1 RES1   0.0000
    34 C34    -10.9870 -18.1199  -7.9708   C.3       1 RES1   0.0000
    35 C35    -11.7381 -19.3939  -8.5570   C.3       1 RES1   0.0000
    36 C36    -11.5884 -20.0825  -7.2186   C.3       1 RES1   0.0000
    37 C37    -10.9588 -18.8501  -6.5508   C.3       1 RES1   0.0000
@<TRIPOS>BOND
     1     1     2    1
     2     2     3    1
     3     3     4    1
     4     4     5    2
     5     4     6    1
     6     6     7    1
     7     8     7    1
     8     8     9    1
     9    10     9    1
    10    10    11    1
    11    11    12    1
    12    12    13    1
    13    13    14   am
    14    14    15    2
    15     8    16    1
    16    16    17   am
    17    17    18    2
    18    17    19    1
    19    19    20    1
    20    20    21    1
    21    21    22    2
    22    22    23    1
    23    23    24    2
    24    24    25    1
    25    25    26    2
    26    19    27    1
    27    27    28   am
    28    28    29    2
    29    28    30    1
    30    30    31    2
    31    30    32   am
    32    32    33    1
    33    33    34    1
    34    34    35    1
    35    35    36    1
    36    36    37    1
    37    14    10    1
    38    26    21    1
    39    37    34    1
@<TRIPOS>SUBSTRUCTURE
     1 RES1        1 GROUP             0 ****  ****    0  
@<TRIPOS>MOLECULE
ligand_43
    37    39     1     0     0
SMALL
NO_CHARGES
****
Generated from the CSD

@<TRIPOS>ATOM
     1 C1      -7.1649  -2.0270  -6.3547   C.3       1 RES1   0.0000
     2 C2      -6.3269  -3.2730  -6.1789   C.3       1 RES1   0.0000
     3 O3      -7.1769  -4.4035  -6.0026   O.3       1 RES1   0.0000
     4 C4      -6.6225  -5.7268  -5.8124   C.2       1 RES1   0.0000
     5 O5      -5.4044  -5.8439  -5.8078   O.2       1 RES1   0.0000
     6 C6      -7.5902  -6.8746  -5.6435   C.3       1 RES1   0.0000
     7 C7      -7.0079  -8.2724  -5.4547   C.3       1 RES1   0.0000
     8 C8      -8.2059  -9.2279  -5.2248   C.3       1 RES1   0.0000
     9 C9      -7.7474 -10.6862  -5.1493   C.3       1 RES1   0.0000
    10 C10     -6.7661 -10.9220  -3.9964   C.3       1 RES1   0.0000
    11 C11     -5.3149 -10.4893  -4.2858   C.3       1 RES1   0.0000
    12 C12     -4.4371 -11.5735  -3.6744   C.3       1 RES1   0.0000
    13 N13     -5.3512 -12.6897  -3.5239   N.am      1 RES1   0.0000
    14 C14     -6.6454 -12.3787  -3.6320   C.2       1 RES1   0.0000
    15 O15     -7.5654 -13.1546  -3.4969   O.2       1 RES1   0.0000
    16 N16     -9.2073  -8.9766  -6.2524   N.am      1 RES1   0.0000
    17 C17    -10.3152  -8.2395  -6.0702   C.2       1 RES1   0.0000
    18 O18    -10.6280  -7.6872  -5.0298   O.2       1 RES1   0.0000
    19 C19    -11.2185  -8.1234  -7.2590   C.3       1 RES1   0.0000
    20 C20    -11.0960  -6.6600  -7.6881   C.3       1 RES1   0.0000
    21 C21    -11.7726  -6.2683  -8.9871   C.2       1 RES1   0.0000
    22 C22    -11.1206  -6.3308 -10.2184   C.2       1 RES1   0.0000
    23 C23    -11.7856  -5.9446 -11.3823   C.2       1 RES1   0.0000
    24 C24    -13.1006  -5.4976 -11.3262   C.2       1 RES1   0.0000
    25 C25    -13.7533  -5.4269 -10.1010   C.2       1 RES1   0.0000
    26 C26    -13.0903  -5.8016  -8.9394   C.2       1 RES1   0.0000
    27 N27    -12.6115  -8.4954  -7.0269   N.am      1 RES1   0.0000
    28 C28    -13.5186  -8.8286  -7.9441   C.2       1 RES1   0.0000
    29 O29    -13.2522  -8.8632  -9.1527   O.2       1 RES1   0.0000
    30 C30    -14.8344  -9.1837  -7.3226   C.2       1 RES1   0.0000
    31 O31    -14.9015  -9.0857  -6.1103   O.2       1 RES1   0.0000
    32 N32    -15.9745  -9.5983  -7.8620   N.am      1 RES1   0.0000
    33 C33    -17.2061  -9.9243  -7.2057   C.3       1 RES1   0.0000
    34 C34    -17.9443  -8.6351  -6.8960   C.3       1 RES1   0.0000
    35 C35    -19.4744  -8.7530  -6.4769   C.3       1 RES1   0.0000
    36 C36    -19.8603  -7.9718  -7.7133   C.3       1 RES1   0.0000
    37 C37    -18.4181  -7.9151  -8.2405   C.3       1 RES1   0.0000
@<TRIPOS>BOND
     1     1     2    1
     2     2     3    1
     3     3     4    1
     4     4     5    2
     5     4     6    1
     6     6     7    1
     7     8     7    1
     8     8     9    1
     9    10     9    1
    10    10    11    1
    11    11    12    1
    12    12    13    1
    13    13    14   am
    14    14    15    2
    15     8    16    1
    16    16    17   am
    17    17    18    2
    18    17    19    1
    19    19    20    1
    20    20    21    1
    21    21    22    2
    22    22    23    1
    23    23    24    2
    24    24    25    1
    25    25    26    2
    26    19    27    1
    27    27    28   am
    28    28    29    2
    29    28    30    1
    30    30    31    2
    31    30    32   am
    32    32    33    1
    33    33    34    1
    34    34    35    1
    35    35    36    1
    36    36    37    1
    37    14    10    1
    38    26    21    1
    39    37    34    1
@<TRIPOS>SUBSTRUCTURE
     1 RES1        1 GROUP             0 ****  ****    0  
@<TRIPOS>MOLECULE
ligand_44
    37    39     1     0     0
SMALL
NO_CHARGES
****
Generated from the CSD

@<TRIPOS>ATOM
     1 C1      -7.1268  -1.9867  -5.9972   C.3       1 RES1   0.0000
     2 C2      -6.2978  -3.2494  -5.9344   C.3       1 RES1   0.0000
     3 O3      -7.1528  -4.3789  -5.7768   O.3       1 RES1   0.0000
     4 C4      -6.6072  -5.7166  -5.6891   C.2       1 RES1   0.0000
     5 O5      -5.3922  -5.8467  -5.7543   O.2       1 RES1   0.0000
     6 C6      -7.5804  -6.8617  -5.5337   C.3       1 RES1   0.0000
     7 C7      -7.0080  -8.2740  -5.4529   C.3       1 RES1   0.0000
     8 C8      -8.2066  -9.2291  -5.2244   C.3       1 RES1   0.0000
     9 C9      -7.7488 -10.6877  -5.1497   C.3       1 RES1   0.0000
    10 C10     -8.9204 -11.6473  -4.9166   C.3       1 RES1   0.0000
    11 C11     -9.5385 -11.5799  -3.5058   C.3       1 RES1   0.0000
    12 C12     -9.8346 -13.0237  -3.1217   C.3       1 RES1   0.0000
    13 N13     -9.0008 -13.7835  -4.0335   N.am      1 RES1   0.0000
    14 C14     -8.5207 -13.0917  -5.0699   C.2       1 RES1   0.0000
    15 O15     -7.8424 -13.5489  -5.9629   O.2       1 RES1   0.0000
    16 N16     -9.2073  -8.9766  -6.2524   N.am      1 RES1   0.0000
    17 C17    -10.3152  -8.2395  -6.0702   C.2       1 RES1   0.0000
    18 O18    -10.6280  -7.6872  -5.0298   O.2       1 RES1   0.0000
    19 C19    -11.2185  -8.1234  -7.2590   C.3       1 RES1   0.0000
    20 C20    -11.0258  -6.6852  -7.7439   C.3       1 RES1   0.0000
    21 C21    -11.4930  -5.5812  -6.8157   C.2       1 RES1   0.0000
    22 C22    -10.6441  -4.9710  -5.8927   C.2       1 RES1   0.0000
    23 C23    -11.1295  -3.9692  -5.0519   C.2       1 RES1   0.0000
    24 C24    -12.4587  -3.5697  -5.1275   C.2       1 RES1   0.0000
    25 C25    -13.3111  -4.1791  -6.0408   C.2       1 RES1   0.0000
    26 C26    -12.8328  -5.1835  -6.8725   C.2       1 RES1   0.0000
    27 N27    -12.6270  -8.4163  -7.0075   N.am      1 RES1   0.0000
    28 C28    -13.5578  -8.7250  -7.9093   C.2       1 RES1   0.0000
    29 O29    -13.3052  -8.7978  -9.1192   O.2       1 RES1   0.0000
    30 C30    -14.8830  -9.0033  -7.2688   C.2       1 RES1   0.0000
    31 O31    -14.9334  -8.8766  -6.0583   O.2       1 RES1   0.0000
    32 N32    -16.0468  -9.3741  -7.7891   N.am      1 RES1   0.0000
    33 C33    -17.2860  -9.6268  -7.1152   C.3       1 RES1   0.0000
    34 C34    -17.9587  -8.2974  -6.8269   C.3       1 RES1   0.0000
    35 C35    -19.4886  -8.3329  -6.3919   C.3       1 RES1   0.0000
    36 C36    -19.8488  -7.5604  -7.6415   C.3       1 RES1   0.0000
    37 C37    -18.4108  -7.5841  -8.1824   C.3       1 RES1   0.0000
@<TRIPOS>BOND
     1     1     2    1
     2     2     3    1
     3     3     4    1
     4     4     5    2
     5     4     6    1
     6     6     7    1
     7     8     7    1
     8     8     9    1
     9    10     9    1
    10    10    11    1
    11    11    12    1
    12    12    13    1
    13    13    14   am
    14    14    15    2
    15     8    16    1
    16    16    17   am
    17    17    18    2
    18    17    19    1
    19    19    20    1
    20    20    21    1
    21    21    22    2
    22    22    23    1
    23    23    24    2
    24    24    25    1
    25    25    26    2
    26    19    27    1
    27    27    28   am
    28    28    29    2
    29    28    30    1
    30    30    31    2
    31    30    32   am
    32    32    33    1
    33    33    34    1
    34    34    35    1
    35    35    36    1
    36    36    37    1
    37    14    10    1
    38    26    21    1
    39    37    34    1
@<TRIPOS>SUBSTRUCTURE
     1 RES1        1 GROUP             0 ****  ****    0  
@<TRIPOS>MOLECULE
ligand_45
    37    39     1     0     0
SMALL
NO_CHARGES
****
Generated from the CSD

@<TRIPOS>ATOM
     1 C1      -7.4495  -1.8938  -5.5377   C.3       1 RES1   0.0000
     2 C2      -6.5612  -3.1172  -5.5315   C.3       1 RES1   0.0000
     3 O3      -7.3632  -4.2938  -5.4681   O.3       1 RES1   0.0000
     4 C4      -6.7547  -5.6068  -5.4494   C.2       1 RES1   0.0000
     5 O5      -5.5336  -5.6746  -5.4898   O.2       1 RES1   0.0000
     6 C6      -7.6738  -6.8045  -5.3923   C.3       1 RES1   0.0000
     7 C7      -7.0349  -8.1903  -5.3846   C.3       1 RES1   0.0000
     8 C8      -8.1875  -9.2125  -5.2191   C.3       1 RES1   0.0000
     9 C9      -9.2408  -9.0453  -6.3170   C.3       1 RES1   0.0000
    10 C10    -10.3292 -10.1211  -6.2390   C.3       1 RES1   0.0000
    11 C11     -9.8737 -11.5315  -6.6635   C.3       1 RES1   0.0000
    12 C12    -11.0333 -12.1101  -7.4638   C.3       1 RES1   0.0000
    13 N13    -11.7993 -10.9336  -7.8290   N.am      1 RES1   0.0000
    14 C14    -11.4953  -9.8270  -7.1462   C.2       1 RES1   0.0000
    15 O15    -12.0452  -8.7551  -7.2696   O.2       1 RES1   0.0000
    16 N16     -8.7206  -9.1004  -3.8681   N.am      1 RES1   0.0000
    17 C17     -8.3717  -9.8972  -2.8446   C.2       1 RES1   0.0000
    18 O18     -7.5846 -10.8252  -2.9137   O.2       1 RES1   0.0000
    19 C19     -9.0349  -9.5978  -1.5357   C.3       1 RES1   0.0000
    20 C20    -10.3955 -10.2908  -1.6317   C.3       1 RES1   0.0000
    21 C21    -10.3860 -11.7901  -1.8569   C.2       1 RES1   0.0000
    22 C22    -10.3962 -12.3549  -3.1320   C.2       1 RES1   0.0000
    23 C23    -10.4014 -13.7417  -3.2826   C.2       1 RES1   0.0000
    24 C24    -10.3941 -14.5709  -2.1669   C.2       1 RES1   0.0000
    25 C25    -10.3908 -14.0136  -0.8936   C.2       1 RES1   0.0000
    26 C26    -10.3953 -12.6331  -0.7407   C.2       1 RES1   0.0000
    27 N27     -9.1807  -8.1802  -1.2163   N.am      1 RES1   0.0000
    28 C28     -8.2340  -7.3540  -0.7735   C.2       1 RES1   0.0000
    29 O29     -7.0703  -7.7290  -0.5780   O.2       1 RES1   0.0000
    30 C30     -8.7498  -5.9585  -0.5992   C.2       1 RES1   0.0000
    31 O31     -9.9310  -5.7866  -0.8419   O.2       1 RES1   0.0000
    32 N32     -8.1419  -4.8410  -0.2194   N.am      1 RES1   0.0000
    33 C33     -8.6973  -3.5280  -0.0729   C.3       1 RES1   0.0000
    34 C34     -9.4268  -3.4577   1.2559   C.3       1 RES1   0.0000
    35 C35     -9.8336  -2.0152   1.7894   C.3       1 RES1   0.0000
    36 C36     -8.9255  -2.2142   2.9826   C.3       1 RES1   0.0000
    37 C37     -8.3995  -3.5653   2.4739   C.3       1 RES1   0.0000
@<TRIPOS>BOND
     1     1     2    1
     2     2     3    1
     3     3     4    1
     4     4     5    2
     5     4     6    1
     6     6     7    1
     7     8     7    1
     8     8     9    1
     9    10     9    1
    10    10    11    1
    11    11    12    1
    12    12    13    1
    13    13    14   am
    14    14    15    2
    15     8    16    1
    16    16    17   am
    17    17    18    2
    18    17    19    1
    19    19    20    1
    20    20    21    1
    21    21    22    2
    22    22    23    1
    23    23    24    2
    24    24    25    1
    25    25    26    2
    26    19    27    1
    27    27    28   am
    28    28    29    2
    29    28    30    1
    30    30    31    2
    31    30    32   am
    32    32    33    1
    33    33    34    1
    34    34    35    1
    35    35    36    1
    36    36    37    1
    37    14    10    1
    38    26    21    1
    39    37    34    1
@<TRIPOS>SUBSTRUCTURE
     1 RES1        1 GROUP             0 ****  ****    0  
@<TRIPOS>MOLECULE
ligand_46
    37    39     1     0     0
SMALL
NO_CHARGES
****
Generated from the CSD

@<TRIPOS>ATOM
     1 C1      -7.4040  -1.9526  -6.0343   C.3       1 RES1   0.0000
     2 C2      -6.5288  -3.1845  -5.9866   C.3       1 RES1   0.0000
     3 O3      -7.3368  -4.3412  -5.7843   O.3       1 RES1   0.0000
     4 C4      -6.7410  -5.6575  -5.7005   C.2       1 RES1   0.0000
     5 O5      -5.5254  -5.7457  -5.8086   O.2       1 RES1   0.0000
     6 C6      -7.6665  -6.8340  -5.4959   C.3       1 RES1   0.0000
     7 C7      -7.0409  -8.2232  -5.4104   C.3       1 RES1   0.0000
     8 C8      -6.2268  -8.2660  -4.0928   C.3       1 RES1   0.0000
     9 C9      -5.3140  -9.4935  -4.0427   C.3       1 RES1   0.0000
    10 C10     -4.4947  -9.5493  -2.7490   C.3       1 RES1   0.0000
    11 C11     -3.3787  -8.4905  -2.6463   C.3       1 RES1   0.0000
    12 C12     -2.1910  -9.2104  -2.0210   C.3       1 RES1   0.0000
    13 N13     -2.5037 -10.6100  -2.2391   N.am      1 RES1   0.0000
    14 C14     -3.7698 -10.8593  -2.5828   C.2       1 RES1   0.0000
    15 O15     -4.2414 -11.9593  -2.7676   O.2       1 RES1   0.0000
    16 N16     -7.1502  -8.1711  -2.9701   N.am      1 RES1   0.0000
    17 C17     -7.1620  -7.1670  -2.0781   C.2       1 RES1   0.0000
    18 O18     -6.4082  -6.2094  -2.0887   O.2       1 RES1   0.0000
    19 C19     -8.1875  -7.2773  -0.9925   C.3       1 RES1   0.0000
    20 C20     -9.1849  -6.1578  -1.2964   C.3       1 RES1   0.0000
    21 C21    -10.4461  -6.1174  -0.4559   C.2       1 RES1   0.0000
    22 C22    -11.6104  -6.7924  -0.8216   C.2       1 RES1   0.0000
    23 C23    -12.7482  -6.7098  -0.0185   C.2       1 RES1   0.0000
    24 C24    -12.7313  -5.9585   1.1509   C.2       1 RES1   0.0000
    25 C25    -11.5757  -5.2781   1.5168   C.2       1 RES1   0.0000
    26 C26    -10.4445  -5.3508   0.7141   C.2       1 RES1   0.0000
    27 N27     -7.6718  -7.1756   0.3701   N.am      1 RES1   0.0000
    28 C28     -7.6798  -8.1238   1.3060   C.2       1 RES1   0.0000
    29 O29     -8.1527  -9.2494   1.1002   O.2       1 RES1   0.0000
    30 C30     -7.0210  -7.6638   2.5702   C.2       1 RES1   0.0000
    31 O31     -6.6172  -6.5147   2.5800   O.2       1 RES1   0.0000
    32 N32     -6.7874  -8.2935   3.7155   N.am      1 RES1   0.0000
    33 C33     -6.1466  -7.7923   4.8953   C.3       1 RES1   0.0000
    34 C34     -7.1514  -6.9661   5.6767   C.3       1 RES1   0.0000
    35 C35     -6.7771  -6.5890   7.1762   C.3       1 RES1   0.0000
    36 C36     -7.9643  -7.3911   7.6610   C.3       1 RES1   0.0000
    37 C37     -8.3207  -7.8893   6.2519   C.3       1 RES1   0.0000
@<TRIPOS>BOND
     1     1     2    1
     2     2     3    1
     3     3     4    1
     4     4     5    2
     5     4     6    1
     6     6     7    1
     7     8     7    1
     8     8     9    1
     9    10     9    1
    10    10    11    1
    11    11    12    1
    12    12    13    1
    13    13    14   am
    14    14    15    2
    15     8    16    1
    16    16    17   am
    17    17    18    2
    18    17    19    1
    19    19    20    1
    20    20    21    1
    21    21    22    2
    22    22    23    1
    23    23    24    2
    24    24    25    1
    25    25    26    2
    26    19    27    1
    27    27    28   am
    28    28    29    2
    29    28    30    1
    30    30    31    2
    31    30    32   am
    32    32    33    1
    33    33    34    1
    34    34    35    1
    35    35    36    1
    36    36    37    1
    37    14    10    1
    38    26    21    1
    39    37    34    1
@<TRIPOS>SUBSTRUCTURE
     1 RES1        1 GROUP             0 ****  ****    0  
@<TRIPOS>MOLECULE
ligand_47
    37    39     1     0     0
SMALL
NO_CHARGES
****
Generated from the CSD

@<TRIPOS>ATOM
     1 C1      -7.4199  -1.9038  -5.5369   C.3       1 RES1   0.0000
     2 C2      -6.5380  -3.1319  -5.5359   C.3       1 RES1   0.0000
     3 O3      -7.3460  -4.3043  -5.4714   O.3       1 RES1   0.0000
     4 C4      -6.7444  -5.6206  -5.4571   C.2       1 RES1   0.0000
     5 O5      -5.5239  -5.6948  -5.5019   O.2       1 RES1   0.0000
     6 C6      -7.6697  -6.8135  -5.3987   C.3       1 RES1   0.0000
     7 C7      -7.0380  -8.2026  -5.3954   C.3       1 RES1   0.0000
     8 C8      -8.1949  -9.2187  -5.2214   C.3       1 RES1   0.0000
     9 C9      -9.2527  -9.0493  -6.3145   C.3       1 RES1   0.0000
    10 C10    -10.3590 -10.1047  -6.2133   C.3       1 RES1   0.0000
    11 C11     -9.9257 -11.5325  -6.6015   C.3       1 RES1   0.0000
    12 C12    -11.0925 -12.1115  -7.3909   C.3       1 RES1   0.0000
    13 N13    -11.8380 -10.9320  -7.7874   N.am      1 RES1   0.0000
    14 C14    -11.5176  -9.8140  -7.1311   C.2       1 RES1   0.0000
    15 O15    -12.0495  -8.7366  -7.2826   O.2       1 RES1   0.0000
    16 N16     -8.7206  -9.1004  -3.8681   N.am      1 RES1   0.0000
    17 C17     -8.3717  -9.8972  -2.8446   C.2       1 RES1   0.0000
    18 O18     -7.5846 -10.8252  -2.9137   O.2       1 RES1   0.0000
    19 C19     -9.0349  -9.5978  -1.5357   C.3       1 RES1   0.0000
    20 C20    -10.4140 -10.2502  -1.6503   C.3       1 RES1   0.0000
    21 C21    -11.2705 -10.2654  -0.3994   C.2       1 RES1   0.0000
    22 C22    -11.2277 -11.3102   0.5235   C.2       1 RES1   0.0000
    23 C23    -12.0481 -11.2811   1.6514   C.2       1 RES1   0.0000
    24 C24    -12.9113 -10.2129   1.8665   C.2       1 RES1   0.0000
    25 C25    -12.9630  -9.1721   0.9466   C.2       1 RES1   0.0000
    26 C26    -12.1543  -9.2033  -0.1822   C.2       1 RES1   0.0000
    27 N27     -9.1424  -8.1814  -1.1966   N.am      1 RES1   0.0000
    28 C28     -9.3469  -7.6566   0.0108   C.2       1 RES1   0.0000
    29 O29     -9.4657  -8.3591   1.0234   O.2       1 RES1   0.0000
    30 C30     -9.3647  -6.1594  -0.0285   C.2       1 RES1   0.0000
    31 O31     -9.2321  -5.6477  -1.1260   O.2       1 RES1   0.0000
    32 N32     -9.5011  -5.2593   0.9379   N.am      1 RES1   0.0000
    33 C33     -9.5084  -3.8301   0.8322   C.3       1 RES1   0.0000
    34 C34    -10.8843  -3.3871   0.3702   C.3       1 RES1   0.0000
    35 C35    -11.2357  -1.8411   0.5025   C.3       1 RES1   0.0000
    36 C36    -12.3364  -2.1879   1.4804   C.3       1 RES1   0.0000
    37 C37    -11.9823  -3.6831   1.4914   C.3       1 RES1   0.0000
@<TRIPOS>BOND
     1     1     2    1
     2     2     3    1
     3     3     4    1
     4     4     5    2
     5     4     6    1
     6     6     7    1
     7     8     7    1
     8     8     9    1
     9    10     9    1
    10    10    11    1
    11    11    12    1
    12    12    13    1
    13    13    14   am
    14    14    15    2
    15     8    16    1
    16    16    17   am
    17    17    18    2
    18    17    19    1
    19    19    20    1
    20    20    21    1
    21    21    22    2
    22    22    23    1
    23    23    24    2
    24    24    25    1
    25    25    26    2
    26    19    27    1
    27    27    28   am
    28    28    29    2
    29    28    30    1
    30    30    31    2
    31    30    32   am
    32    32    33    1
    33    33    34    1
    34    34    35    1
    35    35    36    1
    36    36    37    1
    37    14    10    1
    38    26    21    1
    39    37    34    1
@<TRIPOS>SUBSTRUCTURE
     1 RES1        1 GROUP             0 ****  ****    0  
@<TRIPOS>MOLECULE
ligand_48
    37    39     1     0     0
SMALL
NO_CHARGES
****
Generated from the CSD

@<TRIPOS>ATOM
     1 C1      -8.2233  -1.9473  -4.6093   C.3       1 RES1   0.0000
     2 C2      -7.2118  -3.0601  -4.7644   C.3       1 RES1   0.0000
     3 O3      -7.8843  -4.3146  -4.8391   O.3       1 RES1   0.0000
     4 C4      -7.1413  -5.5475  -4.9900   C.2       1 RES1   0.0000
     5 O5      -5.9211  -5.4788  -5.0513   O.2       1 RES1   0.0000
     6 C6      -7.9283  -6.8345  -5.0724   C.3       1 RES1   0.0000
     7 C7      -7.1476  -8.1345  -5.2434   C.3       1 RES1   0.0000
     8 C8      -8.1887  -9.2820  -5.2569   C.3       1 RES1   0.0000
     9 C9      -7.5149 -10.6417  -5.4563   C.3       1 RES1   0.0000
    10 C10     -8.5151 -11.7988  -5.3639   C.3       1 RES1   0.0000
    11 C11     -9.0575 -12.0710  -3.9466   C.3       1 RES1   0.0000
    12 C12     -9.1127 -13.5875  -3.8162   C.3       1 RES1   0.0000
    13 N13     -8.2263 -14.0402  -4.8714   N.am      1 RES1   0.0000
    14 C14     -7.9131 -13.1149  -5.7820   C.2       1 RES1   0.0000
    15 O15     -7.2244 -13.3008  -6.7606   O.2       1 RES1   0.0000
    16 N16     -9.2073  -8.9766  -6.2524   N.am      1 RES1   0.0000
    17 C17    -10.4771  -9.4113  -6.1990   C.2       1 RES1   0.0000
    18 O18    -10.9569 -10.0683  -5.2915   O.2       1 RES1   0.0000
    19 C19    -11.3345  -9.0516  -7.3729   C.3       1 RES1   0.0000
    20 C20    -12.3381  -8.0406  -6.8152   C.3       1 RES1   0.0000
    21 C21    -13.2487  -7.3562  -7.8158   C.2       1 RES1   0.0000
    22 C22    -12.9051  -6.1585  -8.4422   C.2       1 RES1   0.0000
    23 C23    -13.7868  -5.5634  -9.3448   C.2       1 RES1   0.0000
    24 C24    -15.0108  -6.1578  -9.6290   C.2       1 RES1   0.0000
    25 C25    -15.3613  -7.3481  -9.0026   C.2       1 RES1   0.0000
    26 C26    -14.4895  -7.9378  -8.0962   C.2       1 RES1   0.0000
    27 N27    -12.0113 -10.1715  -8.0216   N.am      1 RES1   0.0000
    28 C28    -11.4750 -11.0615  -8.8555   C.2       1 RES1   0.0000
    29 O29    -10.2810 -11.0241  -9.1810   O.2       1 RES1   0.0000
    30 C30    -12.4722 -12.0935  -9.2849   C.2       1 RES1   0.0000
    31 O31    -13.6048 -11.9590  -8.8571   O.2       1 RES1   0.0000
    32 N32    -12.3484 -13.1592 -10.0669   N.am      1 RES1   0.0000
    33 C33    -13.3498 -14.1142 -10.4398   C.3       1 RES1   0.0000
    34 C34    -14.1886 -13.5227 -11.5577   C.3       1 RES1   0.0000
    35 C35    -15.1385 -14.5148 -12.3603   C.3       1 RES1   0.0000
    36 C36    -14.3475 -14.2342 -13.6186   C.3       1 RES1   0.0000
    37 C37    -13.3223 -13.3528 -12.8885   C.3       1 RES1   0.0000
@<TRIPOS>BOND
     1     1     2    1
     2     2     3    1
     3     3     4    1
     4     4     5    2
     5     4     6    1
     6     6     7    1
     7     8     7    1
     8     8     9    1
     9    10     9    1
    10    10    11    1
    11    11    12    1
    12    12    13    1
    13    13    14   am
    14    14    15    2
    15     8    16    1
    16    16    17   am
    17    17    18    2
    18    17    19    1
    19    19    20    1
    20    20    21    1
    21    21    22    2
    22    22    23    1
    23    23    24    2
    24    24    25    1
    25    25    26    2
    26    19    27    1
    27    27    28   am
    28    28    29    2
    29    28    30    1
    30    30    31    2
    31    30    32   am
    32    32    33    1
    33    33    34    1
    34    34    35    1
    35    35    36    1
    36    36    37    1
    37    14    10    1
    38    26    21    1
    39    37    34    1
@<TRIPOS>SUBSTRUCTURE
     1 RES1        1 GROUP             0 ****  ****    0  
@<TRIPOS>MOLECULE
ligand_49
    37    39     1     0     0
SMALL
NO_CHARGES
****
Generated from the CSD

@<TRIPOS>ATOM
     1 C1      -7.0626  -1.9893  -6.1891   C.3       1 RES1   0.0000
     2 C2      -6.2349  -3.2490  -6.0720   C.3       1 RES1   0.0000
     3 O3      -7.0918  -4.3713  -5.8777   O.3       1 RES1   0.0000
     4 C4      -6.5477  -5.7049  -5.7350   C.2       1 RES1   0.0000
     5 O5      -5.3324  -5.8379  -5.7863   O.2       1 RES1   0.0000
     6 C6      -7.5228  -6.8429  -5.5433   C.3       1 RES1   0.0000
     7 C7      -6.9520  -8.2513  -5.4044   C.3       1 RES1   0.0000
     8 C8      -8.1596  -9.2084  -5.2413   C.3       1 RES1   0.0000
     9 C9      -8.8085  -9.0549  -3.8636   C.3       1 RES1   0.0000
    10 C10    -10.0423  -9.9497  -3.7056   C.3       1 RES1   0.0000
    11 C11    -11.2811  -9.4859  -4.4976   C.3       1 RES1   0.0000
    12 C12    -12.4678  -9.7226  -3.5725   C.3       1 RES1   0.0000
    13 N13    -11.8483  -9.8316  -2.2654   N.am      1 RES1   0.0000
    14 C14    -10.5259 -10.0171  -2.2805   C.2       1 RES1   0.0000
    15 O15     -9.8298 -10.1738  -1.3020   O.2       1 RES1   0.0000
    16 N16     -7.7234 -10.5657  -5.5402   N.am      1 RES1   0.0000
    17 C17     -7.8892 -11.1737  -6.7263   C.2       1 RES1   0.0000
    18 O18     -8.4606 -10.6916  -7.6888   O.2       1 RES1   0.0000
    19 C19     -7.3259 -12.5575  -6.8289   C.3       1 RES1   0.0000
    20 C20     -8.3967 -13.4515  -6.2007   C.3       1 RES1   0.0000
    21 C21     -9.7725 -13.4226  -6.8369   C.2       1 RES1   0.0000
    22 C22    -10.7697 -12.5400  -6.4225   C.2       1 RES1   0.0000
    23 C23    -12.0239 -12.5653  -7.0328   C.2       1 RES1   0.0000
    24 C24    -12.2897 -13.4657  -8.0579   C.2       1 RES1   0.0000
    25 C25    -11.3019 -14.3522  -8.4706   C.2       1 RES1   0.0000
    26 C26    -10.0553 -14.3358  -7.8580   C.2       1 RES1   0.0000
    27 N27     -6.0267 -12.7545  -6.1916   N.am      1 RES1   0.0000
    28 C28     -4.8366 -12.3792  -6.6585   C.2       1 RES1   0.0000
    29 O29     -4.7083 -11.7926  -7.7412   O.2       1 RES1   0.0000
    30 C30     -3.7327 -12.7145  -5.7031   C.2       1 RES1   0.0000
    31 O31     -4.0601 -13.2972  -4.6847   O.2       1 RES1   0.0000
    32 N32     -2.4258 -12.4879  -5.7602   N.am      1 RES1   0.0000
    33 C33     -1.4166 -12.8366  -4.8043   C.3       1 RES1   0.0000
    34 C34     -1.0636 -14.3012  -4.9874   C.3       1 RES1   0.0000
    35 C35      0.2581 -14.8276  -4.2754   C.3       1 RES1   0.0000
    36 C36      0.8513 -15.1357  -5.6322   C.3       1 RES1   0.0000
    37 C37     -0.3437 -14.5403  -6.3928   C.3       1 RES1   0.0000
@<TRIPOS>BOND
     1     1     2    1
     2     2     3    1
     3     3     4    1
     4     4     5    2
     5     4     6    1
     6     6     7    1
     7     8     7    1
     8     8     9    1
     9    10     9    1
    10    10    11    1
    11    11    12    1
    12    12    13    1
    13    13    14   am
    14    14    15    2
    15     8    16    1
    16    16    17   am
    17    17    18    2
    18    17    19    1
    19    19    20    1
    20    20    21    1
    21    21    22    2
    22    22    23    1
    23    23    24    2
    24    24    25    1
    25    25    26    2
    26    19    27    1
    27    27    28   am
    28    28    29    2
    29    28    30    1
    30    30    31    2
    31    30    32   am
    32    32    33    1
    33    33    34    1
    34    34    35    1
    35    35    36    1
    36    36    37    1
    37    14    10    1
    38    26    21    1
    39    37    34    1
@<TRIPOS>SUBSTRUCTURE
     1 RES1        1 GROUP             0 ****  ****    0  
@<TRIPOS>MOLECULE
ligand_50
    37    39     1     0     0
SMALL
NO_CHARGES
****
Generated from the CSD

@<TRIPOS>ATOM
     1 C1      -7.2840  -1.9407  -6.0614   C.3       1 RES1   0.0000
     2 C2      -6.4348  -3.1898  -5.9971   C.3       1 RES1   0.0000
     3 O3      -7.2691  -4.3292  -5.8038   O.3       1 RES1   0.0000
     4 C4      -6.7015  -5.6571  -5.7074   C.2       1 RES1   0.0000
     5 O5      -5.4863  -5.7702  -5.7968   O.2       1 RES1   0.0000
     6 C6      -7.6536  -6.8140  -5.5135   C.3       1 RES1   0.0000
     7 C7      -7.0575  -8.2150  -5.4120   C.3       1 RES1   0.0000
     8 C8      -6.2321  -8.2552  -4.1012   C.3       1 RES1   0.0000
     9 C9      -5.5969  -9.6310  -3.8861   C.3       1 RES1   0.0000
    10 C10     -4.7699  -9.6879  -2.5974   C.3       1 RES1   0.0000
    11 C11     -3.4537  -8.8863  -2.6397   C.3       1 RES1   0.0000
    12 C12     -2.4261  -9.7529  -1.9235   C.3       1 RES1   0.0000
    13 N13     -3.0324 -11.0704  -1.9499   N.am      1 RES1   0.0000
    14 C14     -4.3322 -11.0883  -2.2557   C.2       1 RES1   0.0000
    15 O15     -5.0298 -12.0776  -2.2896   O.2       1 RES1   0.0000
    16 N16     -7.0815  -7.8189  -3.0012   N.am      1 RES1   0.0000
    17 C17     -6.7228  -6.9128  -2.0768   C.2       1 RES1   0.0000
    18 O18     -5.6436  -6.3485  -2.0283   O.2       1 RES1   0.0000
    19 C19     -7.7528  -6.6103  -1.0327   C.3       1 RES1   0.0000
    20 C20     -7.6323  -7.7634  -0.0345   C.3       1 RES1   0.0000
    21 C21     -8.4404  -7.6502   1.2433   C.2       1 RES1   0.0000
    22 C22     -7.9367  -7.0479   2.3959   C.2       1 RES1   0.0000
    23 C23     -8.7180  -6.9832   3.5498   C.2       1 RES1   0.0000
    24 C24    -10.0024  -7.5146   3.5608   C.2       1 RES1   0.0000
    25 C25    -10.5072  -8.1221   2.4170   C.2       1 RES1   0.0000
    26 C26     -9.7278  -8.1965   1.2697   C.2       1 RES1   0.0000
    27 N27     -9.1213  -6.4717  -1.5235   N.am      1 RES1   0.0000
    28 C28    -10.1398  -5.8728  -0.9078   C.2       1 RES1   0.0000
    29 O29    -10.0168  -5.3379   0.2020   O.2       1 RES1   0.0000
    30 C30    -11.3862  -5.9001  -1.7382   C.2       1 RES1   0.0000
    31 O31    -11.3086  -6.4787  -2.8073   O.2       1 RES1   0.0000
    32 N32    -12.5949  -5.3959  -1.5206   N.am      1 RES1   0.0000
    33 C33    -13.7527  -5.4570  -2.3631   C.3       1 RES1   0.0000
    34 C34    -14.4044  -6.8166  -2.1903   C.3       1 RES1   0.0000
    35 C35    -15.8788  -6.9966  -2.7602   C.3       1 RES1   0.0000
    36 C36    -16.3780  -7.2473  -1.3545   C.3       1 RES1   0.0000
    37 C37    -15.0057  -6.9751  -0.7193   C.3       1 RES1   0.0000
@<TRIPOS>BOND
     1     1     2    1
     2     2     3    1
     3     3     4    1
     4     4     5    2
     5     4     6    1
     6     6     7    1
     7     8     7    1
     8     8     9    1
     9    10     9    1
    10    10    11    1
    11    11    12    1
    12    12    13    1
    13    13    14   am
    14    14    15    2
    15     8    16    1
    16    16    17   am
    17    17    18    2
    18    17    19    1
    19    19    20    1
    20    20    21    1
    21    21    22    2
    22    22    23    1
    23    23    24    2
    24    24    25    1
    25    25    26    2
    26    19    27    1
    27    27    28   am
    28    28    29    2
    29    28    30    1
    30    30    31    2
    31    30    32   am
    32    32    33    1
    33    33    34    1
    34    34    35    1
    35    35    36    1
    36    36    37    1
    37    14    10    1
    38    26    21    1
    39    37    34    1
@<TRIPOS>SUBSTRUCTURE
     1 RES1        1 GROUP             0 ****  ****    0  
@<TRIPOS>MOLECULE
ligand_51
    37    39     1     0     0
SMALL
NO_CHARGES
****
Generated from the CSD

@<TRIPOS>ATOM
     1 C1      -7.1767  -2.0251  -6.4337   C.3       1 RES1   0.0000
     2 C2      -6.3356  -3.2682  -6.2514   C.3       1 RES1   0.0000
     3 O3      -7.1827  -4.3982  -6.0590   O.3       1 RES1   0.0000
     4 C4      -6.6249  -5.7188  -5.8597   C.2       1 RES1   0.0000
     5 O5      -5.4067  -5.8340  -5.8617   O.2       1 RES1   0.0000
     6 C6      -7.5897  -6.8664  -5.6738   C.3       1 RES1   0.0000
     7 C7      -7.0040  -8.2615  -5.4754   C.3       1 RES1   0.0000
     8 C8      -8.1990  -9.2166  -5.2288   C.3       1 RES1   0.0000
     9 C9      -7.7378 -10.6734  -5.1424   C.3       1 RES1   0.0000
    10 C10     -6.7488 -10.8967  -3.9935   C.3       1 RES1   0.0000
    11 C11     -5.3001 -10.4645  -4.2963   C.3       1 RES1   0.0000
    12 C12     -4.4168 -11.5416  -3.6801   C.3       1 RES1   0.0000
    13 N13     -5.3282 -12.6577  -3.5132   N.am      1 RES1   0.0000
    14 C14     -6.6235 -12.3497  -3.6160   C.2       1 RES1   0.0000
    15 O15     -7.5414 -13.1257  -3.4678   O.2       1 RES1   0.0000
    16 N16     -9.2073  -8.9766  -6.2524   N.am      1 RES1   0.0000
    17 C17    -10.3152  -8.2395  -6.0702   C.2       1 RES1   0.0000
    18 O18    -10.6280  -7.6872  -5.0298   O.2       1 RES1   0.0000
    19 C19    -11.2185  -8.1234  -7.2590   C.3       1 RES1   0.0000
    20 C20    -12.0177  -9.4279  -7.2582   C.3       1 RES1   0.0000
    21 C21    -12.8428  -9.7247  -6.0213   C.2       1 RES1   0.0000
    22 C22    -12.3327 -10.4350  -4.9349   C.2       1 RES1   0.0000
    23 C23    -13.1401 -10.6931  -3.8269   C.2       1 RES1   0.0000
    24 C24    -14.4553 -10.2444  -3.7945   C.2       1 RES1   0.0000
    25 C25    -14.9711  -9.5419  -4.8774   C.2       1 RES1   0.0000
    26 C26    -14.1724  -9.2918  -5.9859   C.2       1 RES1   0.0000
    27 N27    -10.5469  -7.9111  -8.5384   N.am      1 RES1   0.0000
    28 C28    -11.0880  -7.4453  -9.6633   C.2       1 RES1   0.0000
    29 O29    -12.2825  -7.1283  -9.7383   O.2       1 RES1   0.0000
    30 C30    -10.0747  -7.3234 -10.7597   C.2       1 RES1   0.0000
    31 O31     -8.9443  -7.6897 -10.4917   O.2       1 RES1   0.0000
    32 N32    -10.1814  -6.8767 -12.0054   N.am      1 RES1   0.0000
    33 C33     -9.1646  -6.7852 -13.0112   C.3       1 RES1   0.0000
    34 C34     -8.9744  -8.1570 -13.6317   C.3       1 RES1   0.0000
    35 C35     -8.1480  -8.2356 -14.9889   C.3       1 RES1   0.0000
    36 C36     -9.3824  -8.7497 -15.6960   C.3       1 RES1   0.0000
    37 C37    -10.2724  -8.5935 -14.4532   C.3       1 RES1   0.0000
@<TRIPOS>BOND
     1     1     2    1
     2     2     3    1
     3     3     4    1
     4     4     5    2
     5     4     6    1
     6     6     7    1
     7     8     7    1
     8     8     9    1
     9    10     9    1
    10    10    11    1
    11    11    12    1
    12    12    13    1
    13    13    14   am
    14    14    15    2
    15     8    16    1
    16    16    17   am
    17    17    18    2
    18    17    19    1
    19    19    20    1
    20    20    21    1
    21    21    22    2
    22    22    23    1
    23    23    24    2
    24    24    25    1
    25    25    26    2
    26    19    27    1
    27    27    28   am
    28    28    29    2
    29    28    30    1
    30    30    31    2
    31    30    32   am
    32    32    33    1
    33    33    34    1
    34    34    35    1
    35    35    36    1
    36    36    37    1
    37    14    10    1
    38    26    21    1
    39    37    34    1
@<TRIPOS>SUBSTRUCTURE
     1 RES1        1 GROUP             0 ****  ****    0  
@<TRIPOS>MOLECULE
ligand_52
    37    39     1     0     0
SMALL
NO_CHARGES
****
Generated from the CSD

@<TRIPOS>ATOM
     1 C1      -7.3180  -1.9661  -6.1226   C.3       1 RES1   0.0000
     2 C2      -6.4532  -3.2031  -6.0352   C.3       1 RES1   0.0000
     3 O3      -7.2744  -4.3512  -5.8373   O.3       1 RES1   0.0000
     4 C4      -6.6905  -5.6702  -5.7198   C.2       1 RES1   0.0000
     5 O5      -5.4731  -5.7682  -5.7954   O.2       1 RES1   0.0000
     6 C6      -7.6293  -6.8373  -5.5225   C.3       1 RES1   0.0000
     7 C7      -7.0167  -8.2304  -5.4101   C.3       1 RES1   0.0000
     8 C8      -8.1933  -9.2223  -5.2294   C.3       1 RES1   0.0000
     9 C9      -8.8225  -9.0915  -3.8403   C.3       1 RES1   0.0000
    10 C10     -9.9857 -10.0688  -3.6409   C.3       1 RES1   0.0000
    11 C11    -11.2562  -9.7322  -4.4468   C.3       1 RES1   0.0000
    12 C12    -12.4212 -10.0186  -3.5083   C.3       1 RES1   0.0000
    13 N13    -11.7945 -10.0266  -2.2001   N.am      1 RES1   0.0000
    14 C14    -10.4619 -10.1131  -2.2125   C.2       1 RES1   0.0000
    15 O15     -9.7555 -10.1765  -1.2309   O.2       1 RES1   0.0000
    16 N16     -7.7234 -10.5657  -5.5402   N.am      1 RES1   0.0000
    17 C17     -7.8892 -11.1737  -6.7263   C.2       1 RES1   0.0000
    18 O18     -8.4606 -10.6916  -7.6888   O.2       1 RES1   0.0000
    19 C19     -7.3259 -12.5575  -6.8289   C.3       1 RES1   0.0000
    20 C20     -8.3763 -13.4462  -6.1602   C.3       1 RES1   0.0000
    21 C21     -8.1686 -14.9448  -6.2589   C.2       1 RES1   0.0000
    22 C22     -8.6861 -15.7040  -7.3081   C.2       1 RES1   0.0000
    23 C23     -8.4775 -17.0829  -7.3428   C.2       1 RES1   0.0000
    24 C24     -7.7523 -17.7106  -6.3366   C.2       1 RES1   0.0000
    25 C25     -7.2399 -16.9600  -5.2849   C.2       1 RES1   0.0000
    26 C26     -7.4544 -15.5883  -5.2428   C.2       1 RES1   0.0000
    27 N27     -6.0086 -12.7445  -6.2266   N.am      1 RES1   0.0000
    28 C28     -5.1440 -13.7279  -6.4726   C.2       1 RES1   0.0000
    29 O29     -5.3837 -14.6277  -7.2886   O.2       1 RES1   0.0000
    30 C30     -3.8788 -13.5662  -5.6873   C.2       1 RES1   0.0000
    31 O31     -3.8323 -12.6125  -4.9310   O.2       1 RES1   0.0000
    32 N32     -2.7654 -14.2890  -5.6615   N.am      1 RES1   0.0000
    33 C33     -1.5816 -14.0776  -4.8819   C.3       1 RES1   0.0000
    34 C34     -1.8278 -14.6004  -3.4787   C.3       1 RES1   0.0000
    35 C35     -0.5600 -14.7824  -2.5350   C.3       1 RES1   0.0000
    36 C36     -0.8243 -16.2710  -2.4881   C.3       1 RES1   0.0000
    37 C37     -1.9906 -16.1891  -3.4851   C.3       1 RES1   0.0000
@<TRIPOS>BOND
     1     1     2    1
     2     2     3    1
     3     3     4    1
     4     4     5    2
     5     4     6    1
     6     6     7    1
     7     8     7    1
     8     8     9    1
     9    10     9    1
    10    10    11    1
    11    11    12    1
    12    12    13    1
    13    13    14   am
    14    14    15    2
    15     8    16    1
    16    16    17   am
    17    17    18    2
    18    17    19    1
    19    19    20    1
    20    20    21    1
    21    21    22    2
    22    22    23    1
    23    23    24    2
    24    24    25    1
    25    25    26    2
    26    19    27    1
    27    27    28   am
    28    28    29    2
    29    28    30    1
    30    30    31    2
    31    30    32   am
    32    32    33    1
    33    33    34    1
    34    34    35    1
    35    35    36    1
    36    36    37    1
    37    14    10    1
    38    26    21    1
    39    37    34    1
@<TRIPOS>SUBSTRUCTURE
     1 RES1        1 GROUP             0 ****  ****    0  
@<TRIPOS>MOLECULE
ligand_53
    37    39     1     0     0
SMALL
NO_CHARGES
****
Generated from the CSD

@<TRIPOS>ATOM
     1 C1      -7.1649  -2.0270  -6.3547   C.3       1 RES1   0.0000
     2 C2      -6.3269  -3.2730  -6.1789   C.3       1 RES1   0.0000
     3 O3      -7.1769  -4.4035  -6.0026   O.3       1 RES1   0.0000
     4 C4      -6.6224  -5.7268  -5.8124   C.2       1 RES1   0.0000
     5 O5      -5.4044  -5.8439  -5.8078   O.2       1 RES1   0.0000
     6 C6      -7.5902  -6.8746  -5.6435   C.3       1 RES1   0.0000
     7 C7      -7.0079  -8.2724  -5.4547   C.3       1 RES1   0.0000
     8 C8      -8.2059  -9.2279  -5.2248   C.3       1 RES1   0.0000
     9 C9      -7.7474 -10.6862  -5.1493   C.3       1 RES1   0.0000
    10 C10     -6.7661 -10.9220  -3.9963   C.3       1 RES1   0.0000
    11 C11     -5.3149 -10.4893  -4.2858   C.3       1 RES1   0.0000
    12 C12     -4.4371 -11.5735  -3.6744   C.3       1 RES1   0.0000
    13 N13     -5.3512 -12.6897  -3.5239   N.am      1 RES1   0.0000
    14 C14     -6.6454 -12.3787  -3.6320   C.2       1 RES1   0.0000
    15 O15     -7.5654 -13.1546  -3.4969   O.2       1 RES1   0.0000
    16 N16     -9.2073  -8.9766  -6.2524   N.am      1 RES1   0.0000
    17 C17    -10.3152  -8.2395  -6.0702   C.2       1 RES1   0.0000
    18 O18    -10.6280  -7.6872  -5.0298   O.2       1 RES1   0.0000
    19 C19    -11.2185  -8.1234  -7.2590   C.3       1 RES1   0.0000
    20 C20    -10.5789  -7.0301  -8.1171   C.3       1 RES1   0.0000
    21 C21    -11.1804  -6.7968  -9.4891   C.2       1 RES1   0.0000
    22 C22    -10.7378  -7.4745 -10.6248   C.2       1 RES1   0.0000
    23 C23    -11.3167  -7.2111 -11.8664   C.2       1 RES1   0.0000
    24 C24    -12.3383  -6.2756 -11.9825   C.2       1 RES1   0.0000
    25 C25    -12.7789  -5.5923 -10.8551   C.2       1 RES1   0.0000
    26 C26    -12.1976  -5.8456  -9.6193   C.2       1 RES1   0.0000
    27 N27    -12.6142  -7.8161  -6.9585   N.am      1 RES1   0.0000
    28 C28    -13.5426  -8.6560  -6.5026   C.2       1 RES1   0.0000
    29 O29    -13.2986  -9.8485  -6.2760   O.2       1 RES1   0.0000
    30 C30    -14.8520  -7.9664  -6.2713   C.2       1 RES1   0.0000
    31 O31    -14.8957  -6.7832  -6.5577   O.2       1 RES1   0.0000
    32 N32    -16.0077  -8.4169  -5.7977   N.am      1 RES1   0.0000
    33 C33    -17.2319  -7.6988  -5.5991   C.3       1 RES1   0.0000
    34 C34    -17.9452  -7.5821  -6.9334   C.3       1 RES1   0.0000
    35 C35    -19.4691  -7.1260  -6.9087   C.3       1 RES1   0.0000
    36 C36    -19.8658  -8.4628  -7.4948   C.3       1 RES1   0.0000
    37 C37    -18.4326  -9.0147  -7.4439   C.3       1 RES1   0.0000
@<TRIPOS>BOND
     1     1     2    1
     2     2     3    1
     3     3     4    1
     4     4     5    2
     5     4     6    1
     6     6     7    1
     7     8     7    1
     8     8     9    1
     9    10     9    1
    10    10    11    1
    11    11    12    1
    12    12    13    1
    13    13    14   am
    14    14    15    2
    15     8    16    1
    16    16    17   am
    17    17    18    2
    18    17    19    1
    19    19    20    1
    20    20    21    1
    21    21    22    2
    22    22    23    1
    23    23    24    2
    24    24    25    1
    25    25    26    2
    26    19    27    1
    27    27    28   am
    28    28    29    2
    29    28    30    1
    30    30    31    2
    31    30    32   am
    32    32    33    1
    33    33    34    1
    34    34    35    1
    35    35    36    1
    36    36    37    1
    37    14    10    1
    38    26    21    1
    39    37    34    1
@<TRIPOS>SUBSTRUCTURE
     1 RES1        1 GROUP             0 ****  ****    0  
@<TRIPOS>MOLECULE
ligand_54
    37    39     1     0     0
SMALL
NO_CHARGES
****
Generated from the CSD

@<TRIPOS>ATOM
     1 C1      -7.4154  -1.9669  -6.1580   C.3       1 RES1   0.0000
     2 C2      -6.5345  -3.1876  -6.0176   C.3       1 RES1   0.0000
     3 O3      -7.3446  -4.3502  -5.8635   O.3       1 RES1   0.0000
     4 C4      -6.7443  -5.6581  -5.7088   C.2       1 RES1   0.0000
     5 O5      -5.5230  -5.7338  -5.7146   O.2       1 RES1   0.0000
     6 C6      -7.6715  -6.8418  -5.5618   C.3       1 RES1   0.0000
     7 C7      -7.0409  -8.2232  -5.4104   C.3       1 RES1   0.0000
     8 C8      -8.2059  -9.2279  -5.2248   C.3       1 RES1   0.0000
     9 C9      -7.6963 -10.6708  -5.1954   C.3       1 RES1   0.0000
    10 C10     -6.7162 -10.9117  -4.0424   C.3       1 RES1   0.0000
    11 C11     -5.2796 -10.4163  -4.3028   C.3       1 RES1   0.0000
    12 C12     -4.3676 -11.4889  -3.7218   C.3       1 RES1   0.0000
    13 N13     -5.2413 -12.6423  -3.6194   N.am      1 RES1   0.0000
    14 C14     -6.5451 -12.3750  -3.7285   C.2       1 RES1   0.0000
    15 O15     -7.4370 -13.1882  -3.6295   O.2       1 RES1   0.0000
    16 N16     -9.2073  -8.9766  -6.2524   N.am      1 RES1   0.0000
    17 C17    -10.5257  -8.8693  -6.0191   C.2       1 RES1   0.0000
    18 O18    -11.0556  -8.9668  -4.9260   O.2       1 RES1   0.0000
    19 C19    -11.3789  -8.6247  -7.2253   C.3       1 RES1   0.0000
    20 C20    -11.8868  -7.1925  -7.0477   C.3       1 RES1   0.0000
    21 C21    -12.6537  -6.5891  -8.2080   C.2       1 RES1   0.0000
    22 C22    -12.0257  -5.8788  -9.2308   C.2       1 RES1   0.0000
    23 C23    -12.7811  -5.3315 -10.2681   C.2       1 RES1   0.0000
    24 C24    -14.1618  -5.4906 -10.2932   C.2       1 RES1   0.0000
    25 C25    -14.7938  -6.1918  -9.2729   C.2       1 RES1   0.0000
    26 C26    -14.0452  -6.7295  -8.2338   C.2       1 RES1   0.0000
    27 N27    -12.4832  -9.5619  -7.4127   N.am      1 RES1   0.0000
    28 C28    -12.4107 -10.8069  -7.8815   C.2       1 RES1   0.0000
    29 O29    -11.3377 -11.3210  -8.2239   O.2       1 RES1   0.0000
    30 C30    -13.7499 -11.4778  -7.8892   C.2       1 RES1   0.0000
    31 O31    -14.6925 -10.8033  -7.5145   O.2       1 RES1   0.0000
    32 N32    -14.1121 -12.7067  -8.2375   N.am      1 RES1   0.0000
    33 C33    -15.4208 -13.2905  -8.2202   C.3       1 RES1   0.0000
    34 C34    -16.1701 -12.8327  -9.4579   C.3       1 RES1   0.0000
    35 C35    -17.5085 -13.6085  -9.8291   C.3       1 RES1   0.0000
    36 C36    -16.8691 -14.0680 -11.1206   C.3       1 RES1   0.0000
    37 C37    -15.5090 -13.4400 -10.7788   C.3       1 RES1   0.0000
@<TRIPOS>BOND
     1     1     2    1
     2     2     3    1
     3     3     4    1
     4     4     5    2
     5     4     6    1
     6     6     7    1
     7     8     7    1
     8     8     9    1
     9    10     9    1
    10    10    11    1
    11    11    12    1
    12    12    13    1
    13    13    14   am
    14    14    15    2
    15     8    16    1
    16    16    17   am
    17    17    18    2
    18    17    19    1
    19    19    20    1
    20    20    21    1
    21    21    22    2
    22    22    23    1
    23    23    24    2
    24    24    25    1
    25    25    26    2
    26    19    27    1
    27    27    28   am
    28    28    29    2
    29    28    30    1
    30    30    31    2
    31    30    32   am
    32    32    33    1
    33    33    34    1
    34    34    35    1
    35    35    36    1
    36    36    37    1
    37    14    10    1
    38    26    21    1
    39    37    34    1
@<TRIPOS>SUBSTRUCTURE
     1 RES1        1 GROUP             0 ****  ****    0  
@<TRIPOS>MOLECULE
ligand_55
    37    39     1     0     0
SMALL
NO_CHARGES
****
Generated from the CSD

@<TRIPOS>ATOM
     1 C1      -7.1310  -1.9879  -5.9488   C.3       1 RES1   0.0000
     2 C2      -6.3016  -3.2505  -5.8897   C.3       1 RES1   0.0000
     3 O3      -7.1567  -4.3813  -5.7424   O.3       1 RES1   0.0000
     4 C4      -6.6107  -5.7192  -5.6601   C.2       1 RES1   0.0000
     5 O5      -5.3954  -5.8483  -5.7209   O.2       1 RES1   0.0000
     6 C6      -7.5840  -6.8657  -5.5155   C.3       1 RES1   0.0000
     7 C7      -7.0113  -8.2782  -5.4405   C.3       1 RES1   0.0000
     8 C8      -8.2103  -9.2351  -5.2223   C.3       1 RES1   0.0000
     9 C9      -7.7522 -10.6939  -5.1550   C.3       1 RES1   0.0000
    10 C10     -8.9243 -11.6555  -4.9322   C.3       1 RES1   0.0000
    11 C11     -9.5475 -11.5971  -3.5233   C.3       1 RES1   0.0000
    12 C12     -9.8445 -13.0434  -3.1493   C.3       1 RES1   0.0000
    13 N13     -9.0070 -13.7972  -4.0628   N.am      1 RES1   0.0000
    14 C14     -8.5234 -13.0987  -5.0931   C.2       1 RES1   0.0000
    15 O15     -7.8416 -13.5501  -5.9864   O.2       1 RES1   0.0000
    16 N16     -9.2073  -8.9766  -6.2524   N.am      1 RES1   0.0000
    17 C17    -10.3152  -8.2395  -6.0702   C.2       1 RES1   0.0000
    18 O18    -10.6280  -7.6872  -5.0298   O.2       1 RES1   0.0000
    19 C19    -11.2185  -8.1234  -7.2590   C.3       1 RES1   0.0000
    20 C20    -12.6083  -7.8990  -6.6602   C.3       1 RES1   0.0000
    21 C21    -13.7401  -7.6391  -7.6348   C.2       1 RES1   0.0000
    22 C22    -14.0854  -6.3547  -8.0546   C.2       1 RES1   0.0000
    23 C23    -15.1457  -6.1705  -8.9423   C.2       1 RES1   0.0000
    24 C24    -15.8639  -7.2618  -9.4171   C.2       1 RES1   0.0000
    25 C25    -15.5285  -8.5437  -8.9969   C.2       1 RES1   0.0000
    26 C26    -14.4795  -8.7291  -8.1055   C.2       1 RES1   0.0000
    27 N27    -11.2086  -9.2663  -8.1681   N.am      1 RES1   0.0000
    28 C28    -11.6087  -9.2869  -9.4388   C.2       1 RES1   0.0000
    29 O29    -12.0465  -8.2786 -10.0085   O.2       1 RES1   0.0000
    30 C30    -11.4161 -10.6356 -10.0614   C.2       1 RES1   0.0000
    31 O31    -10.9714 -11.5060  -9.3345   O.2       1 RES1   0.0000
    32 N32    -11.6456 -11.0722 -11.2940   N.am      1 RES1   0.0000
    33 C33    -11.4372 -12.3851 -11.8294   C.3       1 RES1   0.0000
    34 C34    -12.6008 -13.2663 -11.4142   C.3       1 RES1   0.0000
    35 C35    -12.7624 -14.6615 -12.1614   C.3       1 RES1   0.0000
    36 C36    -14.0921 -14.1975 -12.7134   C.3       1 RES1   0.0000
    37 C37    -13.9534 -12.7886 -12.1159   C.3       1 RES1   0.0000
@<TRIPOS>BOND
     1     1     2    1
     2     2     3    1
     3     3     4    1
     4     4     5    2
     5     4     6    1
     6     6     7    1
     7     8     7    1
     8     8     9    1
     9    10     9    1
    10    10    11    1
    11    11    12    1
    12    12    13    1
    13    13    14   am
    14    14    15    2
    15     8    16    1
    16    16    17   am
    17    17    18    2
    18    17    19    1
    19    19    20    1
    20    20    21    1
    21    21    22    2
    22    22    23    1
    23    23    24    2
    24    24    25    1
    25    25    26    2
    26    19    27    1
    27    27    28   am
    28    28    29    2
    29    28    30    1
    30    30    31    2
    31    30    32   am
    32    32    33    1
    33    33    34    1
    34    34    35    1
    35    35    36    1
    36    36    37    1
    37    14    10    1
    38    26    21    1
    39    37    34    1
@<TRIPOS>SUBSTRUCTURE
     1 RES1        1 GROUP             0 ****  ****    0  
@<TRIPOS>MOLECULE
ligand_56
    37    39     1     0     0
SMALL
NO_CHARGES
****
Generated from the CSD

@<TRIPOS>ATOM
     1 C1      -7.1765  -2.0266  -6.4643   C.3       1 RES1   0.0000
     2 C2      -6.3351  -3.2689  -6.2787   C.3       1 RES1   0.0000
     3 O3      -7.1819  -4.3982  -6.0804   O.3       1 RES1   0.0000
     4 C4      -6.6239  -5.7180  -5.8770   C.2       1 RES1   0.0000
     5 O5      -5.4056  -5.8333  -5.8807   O.2       1 RES1   0.0000
     6 C6      -7.5884  -6.8649  -5.6849   C.3       1 RES1   0.0000
     7 C7      -7.0024  -8.2592  -5.4821   C.3       1 RES1   0.0000
     8 C8      -8.1970  -9.2133  -5.2300   C.3       1 RES1   0.0000
     9 C9      -7.7358 -10.6699  -5.1396   C.3       1 RES1   0.0000
    10 C10     -6.7370 -10.8875  -3.9981   C.3       1 RES1   0.0000
    11 C11     -5.2904 -10.4596  -4.3164   C.3       1 RES1   0.0000
    12 C12     -4.4034 -11.5341  -3.7012   C.3       1 RES1   0.0000
    13 N13     -5.3150 -12.6477  -3.5191   N.am      1 RES1   0.0000
    14 C14     -6.6107 -12.3383  -3.6125   C.2       1 RES1   0.0000
    15 O15     -7.5285 -13.1117  -3.4512   O.2       1 RES1   0.0000
    16 N16     -9.2073  -8.9766  -6.2524   N.am      1 RES1   0.0000
    17 C17    -10.3152  -8.2395  -6.0702   C.2       1 RES1   0.0000
    18 O18    -10.6280  -7.6872  -5.0298   O.2       1 RES1   0.0000
    19 C19    -11.2185  -8.1234  -7.2590   C.3       1 RES1   0.0000
    20 C20    -12.0911  -9.3785  -7.1976   C.3       1 RES1   0.0000
    21 C21    -11.3844 -10.7117  -7.3457   C.2       1 RES1   0.0000
    22 C22    -10.8928 -11.4230  -6.2514   C.2       1 RES1   0.0000
    23 C23    -10.2373 -12.6391  -6.4452   C.2       1 RES1   0.0000
    24 C24    -10.0706 -13.1527  -7.7261   C.2       1 RES1   0.0000
    25 C25    -10.5526 -12.4448  -8.8209   C.2       1 RES1   0.0000
    26 C26    -11.1971 -11.2290  -8.6317   C.2       1 RES1   0.0000
    27 N27    -10.5447  -8.0059  -8.5494   N.am      1 RES1   0.0000
    28 C28     -9.9574  -6.9218  -9.0544   C.2       1 RES1   0.0000
    29 O29     -9.9236  -5.8453  -8.4436   O.2       1 RES1   0.0000
    30 C30     -9.3329  -7.1969 -10.3878   C.2       1 RES1   0.0000
    31 O31     -9.4759  -8.3239 -10.8274   O.2       1 RES1   0.0000
    32 N32     -8.6312  -6.4193 -11.2036   N.am      1 RES1   0.0000
    33 C33     -8.0566  -6.7472 -12.4749   C.3       1 RES1   0.0000
    34 C34     -9.1478  -6.6872 -13.5278   C.3       1 RES1   0.0000
    35 C35     -8.6916  -6.6823 -15.0519   C.3       1 RES1   0.0000
    36 C36     -9.2923  -5.3036 -15.2142   C.3       1 RES1   0.0000
    37 C37     -9.6626  -5.1887 -13.7273   C.3       1 RES1   0.0000
@<TRIPOS>BOND
     1     1     2    1
     2     2     3    1
     3     3     4    1
     4     4     5    2
     5     4     6    1
     6     6     7    1
     7     8     7    1
     8     8     9    1
     9    10     9    1
    10    10    11    1
    11    11    12    1
    12    12    13    1
    13    13    14   am
    14    14    15    2
    15     8    16    1
    16    16    17   am
    17    17    18    2
    18    17    19    1
    19    19    20    1
    20    20    21    1
    21    21    22    2
    22    22    23    1
    23    23    24    2
    24    24    25    1
    25    25    26    2
    26    19    27    1
    27    27    28   am
    28    28    29    2
    29    28    30    1
    30    30    31    2
    31    30    32   am
    32    32    33    1
    33    33    34    1
    34    34    35    1
    35    35    36    1
    36    36    37    1
    37    14    10    1
    38    26    21    1
    39    37    34    1
@<TRIPOS>SUBSTRUCTURE
     1 RES1        1 GROUP             0 ****  ****    0  
@<TRIPOS>MOLECULE
ligand_57
    37    39     1     0     0
SMALL
NO_CHARGES
****
Generated from the CSD

@<TRIPOS>ATOM
     1 C1      -7.9686  -2.1277  -6.2770   C.3       1 RES1   0.0000
     2 C2      -7.0285  -3.3109  -6.2312   C.3       1 RES1   0.0000
     3 O3      -7.7602  -4.4950  -5.9240   O.3       1 RES1   0.0000
     4 C4      -7.0919  -5.7746  -5.8200   C.2       1 RES1   0.0000
     5 O5      -5.8826  -5.8076  -6.0036   O.2       1 RES1   0.0000
     6 C6      -7.9395  -6.9841  -5.5020   C.3       1 RES1   0.0000
     7 C7      -7.2361  -8.3332  -5.3847   C.3       1 RES1   0.0000
     8 C8      -6.2987  -8.2425  -4.1543   C.3       1 RES1   0.0000
     9 C9      -5.5360  -9.5519  -3.9387   C.3       1 RES1   0.0000
    10 C10     -4.5975  -9.4789  -2.7295   C.3       1 RES1   0.0000
    11 C11     -3.3605  -8.5800  -2.9265   C.3       1 RES1   0.0000
    12 C12     -2.2063  -9.3264  -2.2703   C.3       1 RES1   0.0000
    13 N13     -2.7020 -10.6869  -2.1842   N.am      1 RES1   0.0000
    14 C14     -4.0177 -10.8217  -2.3690   C.2       1 RES1   0.0000
    15 O15     -4.6318 -11.8629  -2.2961   O.2       1 RES1   0.0000
    16 N16     -7.0815  -7.8189  -3.0012   N.am      1 RES1   0.0000
    17 C17     -7.0951  -6.5692  -2.5091   C.2       1 RES1   0.0000
    18 O18     -6.4001  -5.6503  -2.9066   O.2       1 RES1   0.0000
    19 C19     -8.0420  -6.3307  -1.3737   C.3       1 RES1   0.0000
    20 C20     -7.1484  -6.3051  -0.1322   C.3       1 RES1   0.0000
    21 C21     -7.8047  -5.9093   1.1759   C.2       1 RES1   0.0000
    22 C22     -7.8679  -4.5856   1.6104   C.2       1 RES1   0.0000
    23 C23     -8.4711  -4.2779   2.8301   C.2       1 RES1   0.0000
    24 C24     -9.0150  -5.2841   3.6200   C.2       1 RES1   0.0000
    25 C25     -8.9489  -6.6060   3.1952   C.2       1 RES1   0.0000
    26 C26     -8.3403  -6.9162   1.9858   C.2       1 RES1   0.0000
    27 N27     -9.1162  -7.3106  -1.2366   N.am      1 RES1   0.0000
    28 C28    -10.2681  -7.1556  -0.5852   C.2       1 RES1   0.0000
    29 O29    -10.5592  -6.1029  -0.0020   O.2       1 RES1   0.0000
    30 C30    -11.1384  -8.3696  -0.6966   C.2       1 RES1   0.0000
    31 O31    -10.6732  -9.3112  -1.3137   O.2       1 RES1   0.0000
    32 N32    -12.3584  -8.6180  -0.2356   N.am      1 RES1   0.0000
    33 C33    -13.1416  -9.8096  -0.3791   C.3       1 RES1   0.0000
    34 C34    -12.6639 -10.8271   0.6403   C.3       1 RES1   0.0000
    35 C35    -13.5931 -12.0922   0.8992   C.3       1 RES1   0.0000
    36 C36    -13.7857 -11.6421   2.3304   C.3       1 RES1   0.0000
    37 C37    -12.9942 -10.3412   2.1253   C.3       1 RES1   0.0000
@<TRIPOS>BOND
     1     1     2    1
     2     2     3    1
     3     3     4    1
     4     4     5    2
     5     4     6    1
     6     6     7    1
     7     8     7    1
     8     8     9    1
     9    10     9    1
    10    10    11    1
    11    11    12    1
    12    12    13    1
    13    13    14   am
    14    14    15    2
    15     8    16    1
    16    16    17   am
    17    17    18    2
    18    17    19    1
    19    19    20    1
    20    20    21    1
    21    21    22    2
    22    22    23    1
    23    23    24    2
    24    24    25    1
    25    25    26    2
    26    19    27    1
    27    27    28   am
    28    28    29    2
    29    28    30    1
    30    30    31    2
    31    30    32   am
    32    32    33    1
    33    33    34    1
    34    34    35    1
    35    35    36    1
    36    36    37    1
    37    14    10    1
    38    26    21    1
    39    37    34    1
@<TRIPOS>SUBSTRUCTURE
     1 RES1        1 GROUP             0 ****  ****    0  
@<TRIPOS>MOLECULE
ligand_58
    37    39     1     0     0
SMALL
NO_CHARGES
****
Generated from the CSD

@<TRIPOS>ATOM
     1 C1      -7.3492  -1.9372  -5.7906   C.3       1 RES1   0.0000
     2 C2      -6.4801  -3.1726  -5.7250   C.3       1 RES1   0.0000
     3 O3      -7.3013  -4.3341  -5.6347   O.3       1 RES1   0.0000
     4 C4      -6.7137  -5.6546  -5.5586   C.2       1 RES1   0.0000
     5 O5      -5.4932  -5.7419  -5.5742   O.2       1 RES1   0.0000
     6 C6      -7.6521  -6.8357  -5.4760   C.3       1 RES1   0.0000
     7 C7      -7.0349  -8.2296  -5.4076   C.3       1 RES1   0.0000
     8 C8      -8.2059  -9.2279  -5.2248   C.3       1 RES1   0.0000
     9 C9      -9.2684  -9.0434  -6.3109   C.3       1 RES1   0.0000
    10 C10    -10.3833 -10.0896  -6.2090   C.3       1 RES1   0.0000
    11 C11     -9.9648 -11.5190  -6.6072   C.3       1 RES1   0.0000
    12 C12    -11.1411 -12.0836  -7.3929   C.3       1 RES1   0.0000
    13 N13    -11.8784 -10.8955  -7.7789   N.am      1 RES1   0.0000
    14 C14    -11.5445  -9.7839  -7.1186   C.2       1 RES1   0.0000
    15 O15    -12.0677  -8.7010  -7.2614   O.2       1 RES1   0.0000
    16 N16     -8.7206  -9.1004  -3.8681   N.am      1 RES1   0.0000
    17 C17     -8.9604 -10.1349  -3.0456   C.2       1 RES1   0.0000
    18 O18     -8.7809 -11.3082  -3.3221   O.2       1 RES1   0.0000
    19 C19     -9.5040  -9.7772  -1.6968   C.3       1 RES1   0.0000
    20 C20    -11.0039  -9.5861  -1.9299   C.3       1 RES1   0.0000
    21 C21    -11.8667  -9.3771  -0.7009   C.2       1 RES1   0.0000
    22 C22    -12.4536 -10.4370  -0.0102   C.2       1 RES1   0.0000
    23 C23    -13.2509 -10.1876   1.1071   C.2       1 RES1   0.0000
    24 C24    -13.4652  -8.8850   1.5423   C.2       1 RES1   0.0000
    25 C25    -12.8883  -7.8242   0.8537   C.2       1 RES1   0.0000
    26 C26    -12.1019  -8.0691  -0.2647   C.2       1 RES1   0.0000
    27 N27     -8.9077  -8.5992  -1.0726   N.am      1 RES1   0.0000
    28 C28     -7.7230  -8.5221  -0.4680   C.2       1 RES1   0.0000
    29 O29     -6.9678  -9.4983  -0.3705   O.2       1 RES1   0.0000
    30 C30     -7.4328  -7.1336   0.0132   C.2       1 RES1   0.0000
    31 O31     -8.3056  -6.3049  -0.1748   O.2       1 RES1   0.0000
    32 N32     -6.3705  -6.6221   0.6235   N.am      1 RES1   0.0000
    33 C33     -6.1543  -5.2742   1.0597   C.3       1 RES1   0.0000
    34 C34     -6.8776  -5.0716   2.3783   C.3       1 RES1   0.0000
    35 C35     -6.5112  -3.7718   3.2193   C.3       1 RES1   0.0000
    36 C36     -5.9882  -4.6540   4.3312   C.3       1 RES1   0.0000
    37 C37     -6.2088  -5.9485   3.5334   C.3       1 RES1   0.0000
@<TRIPOS>BOND
     1     1     2    1
     2     2     3    1
     3     3     4    1
     4     4     5    2
     5     4     6    1
     6     6     7    1
     7     8     7    1
     8     8     9    1
     9    10     9    1
    10    10    11    1
    11    11    12    1
    12    12    13    1
    13    13    14   am
    14    14    15    2
    15     8    16    1
    16    16    17   am
    17    17    18    2
    18    17    19    1
    19    19    20    1
    20    20    21    1
    21    21    22    2
    22    22    23    1
    23    23    24    2
    24    24    25    1
    25    25    26    2
    26    19    27    1
    27    27    28   am
    28    28    29    2
    29    28    30    1
    30    30    31    2
    31    30    32   am
    32    32    33    1
    33    33    34    1
    34    34    35    1
    35    35    36    1
    36    36    37    1
    37    14    10    1
    38    26    21    1
    39    37    34    1
@<TRIPOS>SUBSTRUCTURE
     1 RES1        1 GROUP             0 ****  ****    0  
@<TRIPOS>MOLECULE
ligand_59
    37    39     1     0     0
SMALL
NO_CHARGES
****
Generated from the CSD

@<TRIPOS>ATOM
     1 C1      -8.2581  -1.9269  -4.6776   C.3       1 RES1   0.0000
     2 C2      -7.2416  -3.0376  -4.8154   C.3       1 RES1   0.0000
     3 O3      -7.9092  -4.2952  -4.8806   O.3       1 RES1   0.0000
     4 C4      -7.1609  -5.5268  -5.0145   C.2       1 RES1   0.0000
     5 O5      -5.9406  -5.4544  -5.0697   O.2       1 RES1   0.0000
     6 C6      -7.9427  -6.8176  -5.0878   C.3       1 RES1   0.0000
     7 C7      -7.1563  -8.1164  -5.2408   C.3       1 RES1   0.0000
     8 C8      -8.1932  -9.2678  -5.2481   C.3       1 RES1   0.0000
     9 C9      -7.5133 -10.6270  -5.4295   C.3       1 RES1   0.0000
    10 C10     -8.5099 -11.7868  -5.3307   C.3       1 RES1   0.0000
    11 C11     -9.0588 -12.0465  -3.9135   C.3       1 RES1   0.0000
    12 C12     -9.1093 -13.5618  -3.7680   C.3       1 RES1   0.0000
    13 N13     -8.2156 -14.0219  -4.8138   N.am      1 RES1   0.0000
    14 C14     -7.9009 -13.1049  -5.7320   C.2       1 RES1   0.0000
    15 O15     -7.2063 -13.2982  -6.7050   O.2       1 RES1   0.0000
    16 N16     -9.2073  -8.9766  -6.2524   N.am      1 RES1   0.0000
    17 C17    -10.4771  -9.4113  -6.1990   C.2       1 RES1   0.0000
    18 O18    -10.9569 -10.0683  -5.2915   O.2       1 RES1   0.0000
    19 C19    -11.3345  -9.0516  -7.3729   C.3       1 RES1   0.0000
    20 C20    -10.9535 -10.0707  -8.4485   C.3       1 RES1   0.0000
    21 C21    -11.7854 -10.0721  -9.7160   C.2       1 RES1   0.0000
    22 C22    -12.9298 -10.8564  -9.8586   C.2       1 RES1   0.0000
    23 C23    -13.6509 -10.8307 -11.0525   C.2       1 RES1   0.0000
    24 C24    -13.2384 -10.0241 -12.1067   C.2       1 RES1   0.0000
    25 C25    -12.0949  -9.2453 -11.9727   C.2       1 RES1   0.0000
    26 C26    -11.3695  -9.2764 -10.7885   C.2       1 RES1   0.0000
    27 N27    -11.1879  -7.6828  -7.8606   N.am      1 RES1   0.0000
    28 C28    -12.0441  -7.0049  -8.6238   C.2       1 RES1   0.0000
    29 O29    -13.1133  -7.4949  -9.0106   O.2       1 RES1   0.0000
    30 C30    -11.5661  -5.6112  -8.8939   C.2       1 RES1   0.0000
    31 O31    -10.4815  -5.3135  -8.4262   O.2       1 RES1   0.0000
    32 N32    -12.1206  -4.6100  -9.5668   N.am      1 RES1   0.0000
    33 C33    -11.6068  -3.2906  -9.7886   C.3       1 RES1   0.0000
    34 C34    -10.5953  -3.3499 -10.9182   C.3       1 RES1   0.0000
    35 C35    -10.1427  -1.9689 -11.5656   C.3       1 RES1   0.0000
    36 C36    -10.7421  -2.4050 -12.8841   C.3       1 RES1   0.0000
    37 C37    -11.3089  -3.7088 -12.3011   C.3       1 RES1   0.0000
@<TRIPOS>BOND
     1     1     2    1
     2     2     3    1
     3     3     4    1
     4     4     5    2
     5     4     6    1
     6     6     7    1
     7     8     7    1
     8     8     9    1
     9    10     9    1
    10    10    11    1
    11    11    12    1
    12    12    13    1
    13    13    14   am
    14    14    15    2
    15     8    16    1
    16    16    17   am
    17    17    18    2
    18    17    19    1
    19    19    20    1
    20    20    21    1
    21    21    22    2
    22    22    23    1
    23    23    24    2
    24    24    25    1
    25    25    26    2
    26    19    27    1
    27    27    28   am
    28    28    29    2
    29    28    30    1
    30    30    31    2
    31    30    32   am
    32    32    33    1
    33    33    34    1
    34    34    35    1
    35    35    36    1
    36    36    37    1
    37    14    10    1
    38    26    21    1
    39    37    34    1
@<TRIPOS>SUBSTRUCTURE
     1 RES1        1 GROUP             0 ****  ****    0  
@<TRIPOS>MOLECULE
ligand_60
    37    39     1     0     0
SMALL
NO_CHARGES
****
Generated from the CSD

@<TRIPOS>ATOM
     1 C1      -7.1426  -1.9908  -6.0669   C.3       1 RES1   0.0000
     2 C2      -6.3101  -3.2500  -5.9821   C.3       1 RES1   0.0000
     3 O3      -7.1629  -4.3806  -5.8211   O.3       1 RES1   0.0000
     4 C4      -6.6137  -5.7154  -5.7134   C.2       1 RES1   0.0000
     5 O5      -5.3977  -5.8420  -5.7650   O.2       1 RES1   0.0000
     6 C6      -7.5846  -6.8621  -5.5556   C.3       1 RES1   0.0000
     7 C7      -7.0085  -8.2715  -5.4539   C.3       1 RES1   0.0000
     8 C8      -8.2059  -9.2279  -5.2248   C.3       1 RES1   0.0000
     9 C9      -7.7465 -10.6859  -5.1502   C.3       1 RES1   0.0000
    10 C10     -6.6917 -10.9020  -4.0599   C.3       1 RES1   0.0000
    11 C11     -6.0941 -12.3224  -4.0129   C.3       1 RES1   0.0000
    12 C12     -5.9653 -12.6611  -2.5336   C.3       1 RES1   0.0000
    13 N13     -6.8620 -11.7129  -1.9005   N.am      1 RES1   0.0000
    14 C14     -7.2452 -10.6942  -2.6743   C.2       1 RES1   0.0000
    15 O15     -7.9544  -9.7772  -2.3240   O.2       1 RES1   0.0000
    16 N16     -9.2073  -8.9766  -6.2524   N.am      1 RES1   0.0000
    17 C17    -10.3152  -8.2395  -6.0702   C.2       1 RES1   0.0000
    18 O18    -10.6280  -7.6872  -5.0298   O.2       1 RES1   0.0000
    19 C19    -11.2185  -8.1234  -7.2590   C.3       1 RES1   0.0000
    20 C20    -11.0960  -6.6600  -7.6881   C.3       1 RES1   0.0000
    21 C21    -11.7751  -6.2677  -8.9856   C.2       1 RES1   0.0000
    22 C22    -11.1258  -6.3304 -10.2182   C.2       1 RES1   0.0000
    23 C23    -11.7930  -5.9435 -11.3807   C.2       1 RES1   0.0000
    24 C24    -13.1077  -5.4957 -11.3217   C.2       1 RES1   0.0000
    25 C25    -13.7577  -5.4248 -10.0951   C.2       1 RES1   0.0000
    26 C26    -13.0925  -5.8002  -8.9350   C.2       1 RES1   0.0000
    27 N27    -12.6115  -8.4954  -7.0269   N.am      1 RES1   0.0000
    28 C28    -13.1105  -9.7274  -6.9355   C.2       1 RES1   0.0000
    29 O29    -12.4008 -10.7360  -7.0448   O.2       1 RES1   0.0000
    30 C30    -14.5805  -9.7128  -6.6482   C.2       1 RES1   0.0000
    31 O31    -15.1048  -8.6156  -6.5778   O.2       1 RES1   0.0000
    32 N32    -15.4440 -10.7015  -6.4491   N.am      1 RES1   0.0000
    33 C33    -16.8484 -10.6188  -6.1757   C.3       1 RES1   0.0000
    34 C34    -17.5818 -10.3829  -7.4831   C.3       1 RES1   0.0000
    35 C35    -19.1591 -10.5905  -7.4826   C.3       1 RES1   0.0000
    36 C36    -18.9978 -11.7227  -8.4727   C.3       1 RES1   0.0000
    37 C37    -17.4630 -11.6570  -8.4386   C.3       1 RES1   0.0000
@<TRIPOS>BOND
     1     1     2    1
     2     2     3    1
     3     3     4    1
     4     4     5    2
     5     4     6    1
     6     6     7    1
     7     8     7    1
     8     8     9    1
     9    10     9    1
    10    10    11    1
    11    11    12    1
    12    12    13    1
    13    13    14   am
    14    14    15    2
    15     8    16    1
    16    16    17   am
    17    17    18    2
    18    17    19    1
    19    19    20    1
    20    20    21    1
    21    21    22    2
    22    22    23    1
    23    23    24    2
    24    24    25    1
    25    25    26    2
    26    19    27    1
    27    27    28   am
    28    28    29    2
    29    28    30    1
    30    30    31    2
    31    30    32   am
    32    32    33    1
    33    33    34    1
    34    34    35    1
    35    35    36    1
    36    36    37    1
    37    14    10    1
    38    26    21    1
    39    37    34    1
@<TRIPOS>SUBSTRUCTURE
     1 RES1        1 GROUP             0 ****  ****    0  
@<TRIPOS>MOLECULE
ligand_61
    37    39     1     0     0
SMALL
NO_CHARGES
****
Generated from the CSD

@<TRIPOS>ATOM
     1 C1      -7.4154  -1.9669  -6.1580   C.3       1 RES1   0.0000
     2 C2      -6.5345  -3.1876  -6.0176   C.3       1 RES1   0.0000
     3 O3      -7.3446  -4.3502  -5.8635   O.3       1 RES1   0.0000
     4 C4      -6.7443  -5.6581  -5.7088   C.2       1 RES1   0.0000
     5 O5      -5.5230  -5.7338  -5.7146   O.2       1 RES1   0.0000
     6 C6      -7.6715  -6.8418  -5.5618   C.3       1 RES1   0.0000
     7 C7      -7.0409  -8.2232  -5.4104   C.3       1 RES1   0.0000
     8 C8      -8.2059  -9.2279  -5.2248   C.3       1 RES1   0.0000
     9 C9      -7.6963 -10.6708  -5.1954   C.3       1 RES1   0.0000
    10 C10     -6.7162 -10.9117  -4.0424   C.3       1 RES1   0.0000
    11 C11     -5.2796 -10.4163  -4.3028   C.3       1 RES1   0.0000
    12 C12     -4.3676 -11.4889  -3.7218   C.3       1 RES1   0.0000
    13 N13     -5.2413 -12.6423  -3.6194   N.am      1 RES1   0.0000
    14 C14     -6.5451 -12.3750  -3.7285   C.2       1 RES1   0.0000
    15 O15     -7.4370 -13.1882  -3.6295   O.2       1 RES1   0.0000
    16 N16     -9.2073  -8.9766  -6.2524   N.am      1 RES1   0.0000
    17 C17    -10.5257  -8.8693  -6.0191   C.2       1 RES1   0.0000
    18 O18    -11.0556  -8.9668  -4.9260   O.2       1 RES1   0.0000
    19 C19    -11.3789  -8.6247  -7.2253   C.3       1 RES1   0.0000
    20 C20    -11.5778 -10.0123  -7.8381   C.3       1 RES1   0.0000
    21 C21    -12.2301 -11.0617  -6.9596   C.2       1 RES1   0.0000
    22 C22    -11.4925 -11.9076  -6.1317   C.2       1 RES1   0.0000
    23 C23    -12.1424 -12.8663  -5.3541   C.2       1 RES1   0.0000
    24 C24    -13.5268 -12.9854  -5.3952   C.2       1 RES1   0.0000
    25 C25    -14.2665 -12.1495  -6.2236   C.2       1 RES1   0.0000
    26 C26    -13.6212 -11.2006  -7.0062   C.2       1 RES1   0.0000
    27 N27    -10.8316  -7.6853  -8.2005   N.am      1 RES1   0.0000
    28 C28    -10.8089  -6.3561  -8.1120   C.2       1 RES1   0.0000
    29 O29    -11.2768  -5.7522  -7.1377   O.2       1 RES1   0.0000
    30 C30    -10.1242  -5.7314  -9.2887   C.2       1 RES1   0.0000
    31 O31     -9.7303  -6.4961 -10.1513   O.2       1 RES1   0.0000
    32 N32     -9.8578  -4.4627  -9.5752   N.am      1 RES1   0.0000
    33 C33     -9.1933  -3.9280 -10.7269   C.3       1 RES1   0.0000
    34 C34    -10.1864  -3.8679 -11.8728   C.3       1 RES1   0.0000
    35 C35     -9.7797  -3.0055 -13.1463   C.3       1 RES1   0.0000
    36 C36    -10.9479  -2.0826 -12.8788   C.3       1 RES1   0.0000
    37 C37    -11.3335  -2.7976 -11.5745   C.3       1 RES1   0.0000
@<TRIPOS>BOND
     1     1     2    1
     2     2     3    1
     3     3     4    1
     4     4     5    2
     5     4     6    1
     6     6     7    1
     7     8     7    1
     8     8     9    1
     9    10     9    1
    10    10    11    1
    11    11    12    1
    12    12    13    1
    13    13    14   am
    14    14    15    2
    15     8    16    1
    16    16    17   am
    17    17    18    2
    18    17    19    1
    19    19    20    1
    20    20    21    1
    21    21    22    2
    22    22    23    1
    23    23    24    2
    24    24    25    1
    25    25    26    2
    26    19    27    1
    27    27    28   am
    28    28    29    2
    29    28    30    1
    30    30    31    2
    31    30    32   am
    32    32    33    1
    33    33    34    1
    34    34    35    1
    35    35    36    1
    36    36    37    1
    37    14    10    1
    38    26    21    1
    39    37    34    1
@<TRIPOS>SUBSTRUCTURE
     1 RES1        1 GROUP             0 ****  ****    0  
@<TRIPOS>MOLECULE
ligand_62
    37    39     1     0     0
SMALL
NO_CHARGES
****
Generated from the CSD

@<TRIPOS>ATOM
     1 C1      -7.4127  -1.9613  -6.1107   C.3       1 RES1   0.0000
     2 C2      -6.5343  -3.1891  -6.0301   C.3       1 RES1   0.0000
     3 O3      -7.3422  -4.3462  -5.8297   O.3       1 RES1   0.0000
     4 C4      -6.7436  -5.6592  -5.7176   C.2       1 RES1   0.0000
     5 O5      -5.5257  -5.7441  -5.8000   O.2       1 RES1   0.0000
     6 C6      -7.6689  -6.8365  -5.5171   C.3       1 RES1   0.0000
     7 C7      -7.0409  -8.2232  -5.4104   C.3       1 RES1   0.0000
     8 C8      -8.2059  -9.2279  -5.2248   C.3       1 RES1   0.0000
     9 C9      -8.8288  -9.1058  -3.8321   C.3       1 RES1   0.0000
    10 C10     -9.9805 -10.0956  -3.6279   C.3       1 RES1   0.0000
    11 C11    -11.2589  -9.7713  -4.4263   C.3       1 RES1   0.0000
    12 C12    -12.4157 -10.0714  -3.4819   C.3       1 RES1   0.0000
    13 N13    -11.7817 -10.0747  -2.1772   N.am      1 RES1   0.0000
    14 C14    -10.4485 -10.1471  -2.1970   C.2       1 RES1   0.0000
    15 O15     -9.7360 -10.2045  -1.2194   O.2       1 RES1   0.0000
    16 N16     -7.7234 -10.5657  -5.5402   N.am      1 RES1   0.0000
    17 C17     -8.3630 -11.4360  -6.3386   C.2       1 RES1   0.0000
    18 O18     -9.4233 -11.2245  -6.9011   O.2       1 RES1   0.0000
    19 C19     -7.6951 -12.7648  -6.5145   C.3       1 RES1   0.0000
    20 C20     -8.1066 -13.5639  -5.2765   C.3       1 RES1   0.0000
    21 C21     -7.7169 -15.0288  -5.2464   C.2       1 RES1   0.0000
    22 C22     -8.5425 -16.0328  -5.7515   C.2       1 RES1   0.0000
    23 C23     -8.1414 -17.3673  -5.6855   C.2       1 RES1   0.0000
    24 C24     -6.9181 -17.7074  -5.1197   C.2       1 RES1   0.0000
    25 C25     -6.0940 -16.7115  -4.6085   C.2       1 RES1   0.0000
    26 C26     -6.4953 -15.3829  -4.6642   C.2       1 RES1   0.0000
    27 N27     -6.2428 -12.7220  -6.6623   N.am      1 RES1   0.0000
    28 C28     -5.5548 -12.3818  -7.7513   C.2       1 RES1   0.0000
    29 O29     -6.1118 -12.0494  -8.8059   O.2       1 RES1   0.0000
    30 C30     -4.0770 -12.4146  -7.5090   C.2       1 RES1   0.0000
    31 O31     -3.7206 -12.7715  -6.4003   O.2       1 RES1   0.0000
    32 N32     -3.0528 -12.1176  -8.3000   N.am      1 RES1   0.0000
    33 C33     -1.6516 -12.1698  -8.0039   C.3       1 RES1   0.0000
    34 C34     -1.1869 -13.6097  -8.1196   C.3       1 RES1   0.0000
    35 C35      0.3821 -13.8685  -8.1668   C.3       1 RES1   0.0000
    36 C36      0.2341 -14.4355  -9.5613   C.3       1 RES1   0.0000
    37 C37     -1.2664 -14.1121  -9.6335   C.3       1 RES1   0.0000
@<TRIPOS>BOND
     1     1     2    1
     2     2     3    1
     3     3     4    1
     4     4     5    2
     5     4     6    1
     6     6     7    1
     7     8     7    1
     8     8     9    1
     9    10     9    1
    10    10    11    1
    11    11    12    1
    12    12    13    1
    13    13    14   am
    14    14    15    2
    15     8    16    1
    16    16    17   am
    17    17    18    2
    18    17    19    1
    19    19    20    1
    20    20    21    1
    21    21    22    2
    22    22    23    1
    23    23    24    2
    24    24    25    1
    25    25    26    2
    26    19    27    1
    27    27    28   am
    28    28    29    2
    29    28    30    1
    30    30    31    2
    31    30    32   am
    32    32    33    1
    33    33    34    1
    34    34    35    1
    35    35    36    1
    36    36    37    1
    37    14    10    1
    38    26    21    1
    39    37    34    1
@<TRIPOS>SUBSTRUCTURE
     1 RES1        1 GROUP             0 ****  ****    0  
@<TRIPOS>MOLECULE
ligand_63
    37    39     1     0     0
SMALL
NO_CHARGES
****
Generated from the CSD

@<TRIPOS>ATOM
     1 C1      -8.1178  -2.1855  -6.1904   C.3       1 RES1   0.0000
     2 C2      -7.1228  -3.3216  -6.1204   C.3       1 RES1   0.0000
     3 O3      -7.8078  -4.5462  -5.8699   O.3       1 RES1   0.0000
     4 C4      -7.0818  -5.7931  -5.7566   C.2       1 RES1   0.0000
     5 O5      -5.8650  -5.7628  -5.8822   O.2       1 RES1   0.0000
     6 C6      -7.8816  -7.0492  -5.5013   C.3       1 RES1   0.0000
     7 C7      -7.1184  -8.3652  -5.3823   C.3       1 RES1   0.0000
     8 C8      -6.2434  -8.2602  -4.1079   C.3       1 RES1   0.0000
     9 C9      -5.4967  -9.5685  -3.8368   C.3       1 RES1   0.0000
    10 C10     -4.5540  -9.9418  -4.9857   C.3       1 RES1   0.0000
    11 C11     -5.2424 -10.6061  -6.1948   C.3       1 RES1   0.0000
    12 C12     -4.2962 -11.7115  -6.6452   C.3       1 RES1   0.0000
    13 N13     -3.4494 -11.9117  -5.4846   N.am      1 RES1   0.0000
    14 C14     -3.5065 -10.9411  -4.5692   C.2       1 RES1   0.0000
    15 O15     -2.8492 -10.8977  -3.5530   O.2       1 RES1   0.0000
    16 N16     -7.0815  -7.8189  -3.0012   N.am      1 RES1   0.0000
    17 C17     -7.0951  -6.5692  -2.5091   C.2       1 RES1   0.0000
    18 O18     -6.4001  -5.6503  -2.9066   O.2       1 RES1   0.0000
    19 C19     -8.0420  -6.3307  -1.3737   C.3       1 RES1   0.0000
    20 C20     -9.1197  -5.4184  -1.9627   C.3       1 RES1   0.0000
    21 C21    -10.3256  -5.1309  -1.0899   C.2       1 RES1   0.0000
    22 C22    -11.4696  -5.9283  -1.1088   C.2       1 RES1   0.0000
    23 C23    -12.5573  -5.6102  -0.2953   C.2       1 RES1   0.0000
    24 C24    -12.5102  -4.5007   0.5408   C.2       1 RES1   0.0000
    25 C25    -11.3752  -3.6985   0.5589   C.2       1 RES1   0.0000
    26 C26    -10.2946  -4.0074  -0.2573   C.2       1 RES1   0.0000
    27 N27     -7.4481  -5.7473  -0.1738   N.am      1 RES1   0.0000
    28 C28     -6.7136  -6.3722   0.7455   C.2       1 RES1   0.0000
    29 O29     -6.4472  -7.5788   0.6678   O.2       1 RES1   0.0000
    30 C30     -6.2407  -5.4336   1.8127   C.2       1 RES1   0.0000
    31 O31     -6.6115  -4.2773   1.7162   O.2       1 RES1   0.0000
    32 N32     -5.4695  -5.6321   2.8751   N.am      1 RES1   0.0000
    33 C33     -5.0509  -4.6834   3.8643   C.3       1 RES1   0.0000
    34 C34     -6.1837  -4.4870   4.8549   C.3       1 RES1   0.0000
    35 C35     -5.8394  -3.7445   6.2191   C.3       1 RES1   0.0000
    36 C36     -6.1952  -5.0029   6.9793   C.3       1 RES1   0.0000
    37 C37     -6.4363  -5.8186   5.6996   C.3       1 RES1   0.0000
@<TRIPOS>BOND
     1     1     2    1
     2     2     3    1
     3     3     4    1
     4     4     5    2
     5     4     6    1
     6     6     7    1
     7     8     7    1
     8     8     9    1
     9    10     9    1
    10    10    11    1
    11    11    12    1
    12    12    13    1
    13    13    14   am
    14    14    15    2
    15     8    16    1
    16    16    17   am
    17    17    18    2
    18    17    19    1
    19    19    20    1
    20    20    21    1
    21    21    22    2
    22    22    23    1
    23    23    24    2
    24    24    25    1
    25    25    26    2
    26    19    27    1
    27    27    28   am
    28    28    29    2
    29    28    30    1
    30    30    31    2
    31    30    32   am
    32    32    33    1
    33    33    34    1
    34    34    35    1
    35    35    36    1
    36    36    37    1
    37    14    10    1
    38    26    21    1
    39    37    34    1
@<TRIPOS>SUBSTRUCTURE
     1 RES1        1 GROUP             0 ****  ****    0  
@<TRIPOS>MOLECULE
ligand_64
    37    39     1     0     0
SMALL
NO_CHARGES
****
Generated from the CSD

@<TRIPOS>ATOM
     1 C1      -7.4304  -1.9624  -6.2449   C.3       1 RES1   0.0000
     2 C2      -6.5468  -3.1795  -6.0906   C.3       1 RES1   0.0000
     3 O3      -7.3542  -4.3418  -5.9215   O.3       1 RES1   0.0000
     4 C4      -6.7510  -5.6464  -5.7516   C.2       1 RES1   0.0000
     5 O5      -5.5295  -5.7196  -5.7577   O.2       1 RES1   0.0000
     6 C6      -7.6754  -6.8303  -5.5893   C.3       1 RES1   0.0000
     7 C7      -7.0417  -8.2084  -5.4218   C.3       1 RES1   0.0000
     8 C8      -8.2043  -9.2132  -5.2229   C.3       1 RES1   0.0000
     9 C9      -7.6916 -10.6546  -5.1764   C.3       1 RES1   0.0000
    10 C10     -6.7099 -10.8793  -4.0216   C.3       1 RES1   0.0000
    11 C11     -5.2746 -10.3842  -4.2896   C.3       1 RES1   0.0000
    12 C12     -4.3597 -11.4477  -3.6965   C.3       1 RES1   0.0000
    13 N13     -5.2309 -12.6016  -3.5790   N.am      1 RES1   0.0000
    14 C14     -6.5354 -12.3384  -3.6900   C.2       1 RES1   0.0000
    15 O15     -7.4255 -13.1522  -3.5802   O.2       1 RES1   0.0000
    16 N16     -9.2073  -8.9766  -6.2524   N.am      1 RES1   0.0000
    17 C17    -10.5257  -8.8693  -6.0191   C.2       1 RES1   0.0000
    18 O18    -11.0556  -8.9668  -4.9260   O.2       1 RES1   0.0000
    19 C19    -11.3789  -8.6247  -7.2253   C.3       1 RES1   0.0000
    20 C20    -11.5438 -10.0064  -7.8609   C.3       1 RES1   0.0000
    21 C21    -12.5119 -10.1147  -9.0226   C.2       1 RES1   0.0000
    22 C22    -13.8635 -10.4092  -8.8448   C.2       1 RES1   0.0000
    23 C23    -14.7083 -10.5114  -9.9502   C.2       1 RES1   0.0000
    24 C24    -14.2131 -10.3190 -11.2347   C.2       1 RES1   0.0000
    25 C25    -12.8655 -10.0319 -11.4185   C.2       1 RES1   0.0000
    26 C26    -12.0202  -9.9391 -10.3202   C.2       1 RES1   0.0000
    27 N27    -10.8486  -7.6579  -8.1829   N.am      1 RES1   0.0000
    28 C28    -11.5277  -7.0006  -9.1221   C.2       1 RES1   0.0000
    29 O29    -12.7469  -7.1484  -9.2792   O.2       1 RES1   0.0000
    30 C30    -10.6480  -6.0654  -9.8935   C.2       1 RES1   0.0000
    31 O31     -9.4680  -6.0631  -9.5911   O.2       1 RES1   0.0000
    32 N32    -10.9224  -5.2127 -10.8735   N.am      1 RES1   0.0000
    33 C33    -10.0275  -4.3392 -11.5735   C.3       1 RES1   0.0000
    34 C34     -9.2892  -5.1464 -12.6253   C.3       1 RES1   0.0000
    35 C35     -8.4967  -4.3374 -13.7426   C.3       1 RES1   0.0000
    36 C36     -9.4089  -4.9243 -14.7969   C.3       1 RES1   0.0000
    37 C37    -10.2907  -5.6447 -13.7651   C.3       1 RES1   0.0000
@<TRIPOS>BOND
     1     1     2    1
     2     2     3    1
     3     3     4    1
     4     4     5    2
     5     4     6    1
     6     6     7    1
     7     8     7    1
     8     8     9    1
     9    10     9    1
    10    10    11    1
    11    11    12    1
    12    12    13    1
    13    13    14   am
    14    14    15    2
    15     8    16    1
    16    16    17   am
    17    17    18    2
    18    17    19    1
    19    19    20    1
    20    20    21    1
    21    21    22    2
    22    22    23    1
    23    23    24    2
    24    24    25    1
    25    25    26    2
    26    19    27    1
    27    27    28   am
    28    28    29    2
    29    28    30    1
    30    30    31    2
    31    30    32   am
    32    32    33    1
    33    33    34    1
    34    34    35    1
    35    35    36    1
    36    36    37    1
    37    14    10    1
    38    26    21    1
    39    37    34    1
@<TRIPOS>SUBSTRUCTURE
     1 RES1        1 GROUP             0 ****  ****    0  
@<TRIPOS>MOLECULE
ligand_65
    37    39     1     0     0
SMALL
NO_CHARGES
****
Generated from the CSD

@<TRIPOS>ATOM
     1 C1      -7.4023  -1.9095  -5.5482   C.3       1 RES1   0.0000
     2 C2      -6.5241  -3.1402  -5.5478   C.3       1 RES1   0.0000
     3 O3      -7.3354  -4.3101  -5.4801   O.3       1 RES1   0.0000
     4 C4      -6.7378  -5.6282  -5.4657   C.2       1 RES1   0.0000
     5 O5      -5.5175  -5.7060  -5.5133   O.2       1 RES1   0.0000
     6 C6      -7.6664  -6.8182  -5.4036   C.3       1 RES1   0.0000
     7 C7      -7.0389  -8.2092  -5.4003   C.3       1 RES1   0.0000
     8 C8      -8.1984  -9.2217  -5.2225   C.3       1 RES1   0.0000
     9 C9      -9.2583  -9.0502  -6.3133   C.3       1 RES1   0.0000
    10 C10    -10.3675 -10.1022  -6.2085   C.3       1 RES1   0.0000
    11 C11     -9.9394 -11.5316  -6.5962   C.3       1 RES1   0.0000
    12 C12    -11.1098 -12.1080  -7.3822   C.3       1 RES1   0.0000
    13 N13    -11.8527 -10.9266  -7.7782   N.am      1 RES1   0.0000
    14 C14    -11.5274  -9.8089  -7.1239   C.2       1 RES1   0.0000
    15 O15    -12.0563  -8.7301  -7.2752   O.2       1 RES1   0.0000
    16 N16     -8.7206  -9.1004  -3.8681   N.am      1 RES1   0.0000
    17 C17     -8.3717  -9.8972  -2.8446   C.2       1 RES1   0.0000
    18 O18     -7.5846 -10.8252  -2.9137   O.2       1 RES1   0.0000
    19 C19     -9.0349  -9.5978  -1.5357   C.3       1 RES1   0.0000
    20 C20     -9.9691 -10.7867  -1.3022   C.3       1 RES1   0.0000
    21 C21    -10.6663 -10.8560   0.0423   C.2       1 RES1   0.0000
    22 C22    -10.1101 -11.5121   1.1401   C.2       1 RES1   0.0000
    23 C23    -10.8012 -11.5582   2.3511   C.2       1 RES1   0.0000
    24 C24    -12.0453 -10.9506   2.4751   C.2       1 RES1   0.0000
    25 C25    -12.6075 -10.3011   1.3824   C.2       1 RES1   0.0000
    26 C26    -11.9260 -10.2620   0.1727   C.2       1 RES1   0.0000
    27 N27     -9.7595  -8.3313  -1.4751   N.am      1 RES1   0.0000
    28 C28     -9.2389  -7.1126  -1.3379   C.2       1 RES1   0.0000
    29 O29     -8.0190  -6.9236  -1.2430   O.2       1 RES1   0.0000
    30 C30    -10.2947  -6.0502  -1.3611   C.2       1 RES1   0.0000
    31 O31    -11.4456  -6.4366  -1.4607   O.2       1 RES1   0.0000
    32 N32    -10.2078  -4.7272  -1.2923   N.am      1 RES1   0.0000
    33 C33    -11.2652  -3.7604  -1.3211   C.3       1 RES1   0.0000
    34 C34    -11.8889  -3.6855   0.0603   C.3       1 RES1   0.0000
    35 C35    -12.8493  -2.4535   0.3615   C.3       1 RES1   0.0000
    36 C36    -11.8870  -1.9804   1.4284   C.3       1 RES1   0.0000
    37 C37    -10.8573  -3.0775   1.1169   C.3       1 RES1   0.0000
@<TRIPOS>BOND
     1     1     2    1
     2     2     3    1
     3     3     4    1
     4     4     5    2
     5     4     6    1
     6     6     7    1
     7     8     7    1
     8     8     9    1
     9    10     9    1
    10    10    11    1
    11    11    12    1
    12    12    13    1
    13    13    14   am
    14    14    15    2
    15     8    16    1
    16    16    17   am
    17    17    18    2
    18    17    19    1
    19    19    20    1
    20    20    21    1
    21    21    22    2
    22    22    23    1
    23    23    24    2
    24    24    25    1
    25    25    26    2
    26    19    27    1
    27    27    28   am
    28    28    29    2
    29    28    30    1
    30    30    31    2
    31    30    32   am
    32    32    33    1
    33    33    34    1
    34    34    35    1
    35    35    36    1
    36    36    37    1
    37    14    10    1
    38    26    21    1
    39    37    34    1
@<TRIPOS>SUBSTRUCTURE
     1 RES1        1 GROUP             0 ****  ****    0  
@<TRIPOS>MOLECULE
ligand_66
    37    39     1     0     0
SMALL
NO_CHARGES
****
Generated from the CSD

@<TRIPOS>ATOM
     1 C1      -7.0252  -1.9926  -5.9131   C.3       1 RES1   0.0000
     2 C2      -6.2169  -3.2701  -5.8993   C.3       1 RES1   0.0000
     3 O3      -7.0854  -4.3872  -5.7281   O.3       1 RES1   0.0000
     4 C4      -6.5606  -5.7352  -5.6804   C.2       1 RES1   0.0000
     5 O5      -5.3513  -5.8849  -5.7914   O.2       1 RES1   0.0000
     6 C6      -7.5476  -6.8658  -5.5073   C.3       1 RES1   0.0000
     7 C7      -6.9977  -8.2888  -5.4686   C.3       1 RES1   0.0000
     8 C8      -8.2059  -9.2279  -5.2248   C.3       1 RES1   0.0000
     9 C9      -7.7638 -10.6904  -5.1343   C.3       1 RES1   0.0000
    10 C10     -6.9769 -11.1315  -6.3729   C.3       1 RES1   0.0000
    11 C11     -7.8283 -11.3215  -7.6441   C.3       1 RES1   0.0000
    12 C12     -7.2771 -12.5700  -8.3204   C.3       1 RES1   0.0000
    13 N13     -6.5491 -13.2276  -7.2520   N.am      1 RES1   0.0000
    14 C14     -6.3046 -12.4661  -6.1826   C.2       1 RES1   0.0000
    15 O15     -5.6776 -12.8115  -5.2058   O.2       1 RES1   0.0000
    16 N16     -9.2073  -8.9766  -6.2524   N.am      1 RES1   0.0000
    17 C17    -10.3152  -8.2395  -6.0702   C.2       1 RES1   0.0000
    18 O18    -10.6280  -7.6872  -5.0298   O.2       1 RES1   0.0000
    19 C19    -11.2185  -8.1234  -7.2590   C.3       1 RES1   0.0000
    20 C20    -12.0444  -9.4109  -7.2362   C.3       1 RES1   0.0000
    21 C21    -13.1807  -9.5134  -8.2347   C.2       1 RES1   0.0000
    22 C22    -14.4738  -9.0800  -7.9431   C.2       1 RES1   0.0000
    23 C23    -15.4864  -9.2109  -8.8938   C.2       1 RES1   0.0000
    24 C24    -15.2163  -9.7704 -10.1372   C.2       1 RES1   0.0000
    25 C25    -13.9308 -10.2102 -10.4310   C.2       1 RES1   0.0000
    26 C26    -12.9230 -10.0900  -9.4827   C.2       1 RES1   0.0000
    27 N27    -10.5455  -7.9451  -8.5429   N.am      1 RES1   0.0000
    28 C28     -9.9991  -6.8259  -9.0160   C.2       1 RES1   0.0000
    29 O29    -10.0091  -5.7658  -8.3764   O.2       1 RES1   0.0000
    30 C30     -9.3599  -7.0406 -10.3536   C.2       1 RES1   0.0000
    31 O31     -9.4576  -8.1600 -10.8239   O.2       1 RES1   0.0000
    32 N32     -8.6862  -6.2147 -11.1452   N.am      1 RES1   0.0000
    33 C33     -8.0952  -6.4857 -12.4224   C.3       1 RES1   0.0000
    34 C34     -9.1845  -6.4397 -13.4780   C.3       1 RES1   0.0000
    35 C35     -8.7237  -6.3760 -14.9994   C.3       1 RES1   0.0000
    36 C36     -9.3770  -5.0177 -15.1273   C.3       1 RES1   0.0000
    37 C37     -9.7563  -4.9573 -13.6395   C.3       1 RES1   0.0000
@<TRIPOS>BOND
     1     1     2    1
     2     2     3    1
     3     3     4    1
     4     4     5    2
     5     4     6    1
     6     6     7    1
     7     8     7    1
     8     8     9    1
     9    10     9    1
    10    10    11    1
    11    11    12    1
    12    12    13    1
    13    13    14   am
    14    14    15    2
    15     8    16    1
    16    16    17   am
    17    17    18    2
    18    17    19    1
    19    19    20    1
    20    20    21    1
    21    21    22    2
    22    22    23    1
    23    23    24    2
    24    24    25    1
    25    25    26    2
    26    19    27    1
    27    27    28   am
    28    28    29    2
    29    28    30    1
    30    30    31    2
    31    30    32   am
    32    32    33    1
    33    33    34    1
    34    34    35    1
    35    35    36    1
    36    36    37    1
    37    14    10    1
    38    26    21    1
    39    37    34    1
@<TRIPOS>SUBSTRUCTURE
     1 RES1        1 GROUP             0 ****  ****    0  
@<TRIPOS>MOLECULE
ligand_67
    37    39     1     0     0
SMALL
NO_CHARGES
****
Generated from the CSD

@<TRIPOS>ATOM
     1 C1      -7.3655  -1.9217  -5.5727   C.3       1 RES1   0.0000
     2 C2      -6.4950  -3.1578  -5.5733   C.3       1 RES1   0.0000
     3 O3      -7.3133  -4.3225  -5.4988   O.3       1 RES1   0.0000
     4 C4      -6.7239  -5.6443  -5.4838   C.2       1 RES1   0.0000
     5 O5      -5.5044  -5.7299  -5.5369   O.2       1 RES1   0.0000
     6 C6      -7.6597  -6.8283  -5.4145   C.3       1 RES1   0.0000
     7 C7      -7.0409  -8.2232  -5.4104   C.3       1 RES1   0.0000
     8 C8      -8.2059  -9.2279  -5.2248   C.3       1 RES1   0.0000
     9 C9      -9.2700  -9.0520  -6.3107   C.3       1 RES1   0.0000
    10 C10    -10.3853 -10.0968  -6.1982   C.3       1 RES1   0.0000
    11 C11     -9.9681 -11.5297  -6.5850   C.3       1 RES1   0.0000
    12 C12    -11.1459 -12.1003  -7.3641   C.3       1 RES1   0.0000
    13 N13    -11.8833 -10.9152  -7.7589   N.am      1 RES1   0.0000
    14 C14    -11.5478  -9.7982  -7.1085   C.2       1 RES1   0.0000
    15 O15    -12.0707  -8.7164  -7.2596   O.2       1 RES1   0.0000
    16 N16     -8.7206  -9.1004  -3.8681   N.am      1 RES1   0.0000
    17 C17     -8.3717  -9.8972  -2.8446   C.2       1 RES1   0.0000
    18 O18     -7.5846 -10.8252  -2.9137   O.2       1 RES1   0.0000
    19 C19     -9.0349  -9.5978  -1.5357   C.3       1 RES1   0.0000
    20 C20     -7.9083  -9.0566  -0.6536   C.3       1 RES1   0.0000
    21 C21     -7.1839  -7.8205  -1.1495   C.2       1 RES1   0.0000
    22 C22     -6.0523  -7.8922  -1.9615   C.2       1 RES1   0.0000
    23 C23     -5.4152  -6.7232  -2.3781   C.2       1 RES1   0.0000
    24 C24     -5.9021  -5.4800  -1.9910   C.2       1 RES1   0.0000
    25 C25     -7.0256  -5.4026  -1.1763   C.2       1 RES1   0.0000
    26 C26     -7.6561  -6.5653  -0.7521   C.2       1 RES1   0.0000
    27 N27     -9.7112 -10.7270  -0.9027   N.am      1 RES1   0.0000
    28 C28    -10.8944 -11.2433  -1.2322   C.2       1 RES1   0.0000
    29 O29    -11.5759 -10.7901  -2.1612   O.2       1 RES1   0.0000
    30 C30    -11.2413 -12.4271  -0.3825   C.2       1 RES1   0.0000
    31 O31    -10.4393 -12.7203   0.4862   O.2       1 RES1   0.0000
    32 N32    -12.2901 -13.2411  -0.4004   N.am      1 RES1   0.0000
    33 C33    -12.5628 -14.3646   0.4464   C.3       1 RES1   0.0000
    34 C34    -13.1155 -13.8533   1.7640   C.3       1 RES1   0.0000
    35 C35    -13.8019 -14.9158   2.7288   C.3       1 RES1   0.0000
    36 C36    -15.1160 -14.1813   2.5824   C.3       1 RES1   0.0000
    37 C37    -14.5517 -13.1862   1.5565   C.3       1 RES1   0.0000
@<TRIPOS>BOND
     1     1     2    1
     2     2     3    1
     3     3     4    1
     4     4     5    2
     5     4     6    1
     6     6     7    1
     7     8     7    1
     8     8     9    1
     9    10     9    1
    10    10    11    1
    11    11    12    1
    12    12    13    1
    13    13    14   am
    14    14    15    2
    15     8    16    1
    16    16    17   am
    17    17    18    2
    18    17    19    1
    19    19    20    1
    20    20    21    1
    21    21    22    2
    22    22    23    1
    23    23    24    2
    24    24    25    1
    25    25    26    2
    26    19    27    1
    27    27    28   am
    28    28    29    2
    29    28    30    1
    30    30    31    2
    31    30    32   am
    32    32    33    1
    33    33    34    1
    34    34    35    1
    35    35    36    1
    36    36    37    1
    37    14    10    1
    38    26    21    1
    39    37    34    1
@<TRIPOS>SUBSTRUCTURE
     1 RES1        1 GROUP             0 ****  ****    0  
@<TRIPOS>MOLECULE
ligand_68
    37    39     1     0     0
SMALL
NO_CHARGES
****
Generated from the CSD

@<TRIPOS>ATOM
     1 C1      -7.3652  -1.9216  -5.5703   C.3       1 RES1   0.0000
     2 C2      -6.4948  -3.1578  -5.5716   C.3       1 RES1   0.0000
     3 O3      -7.3131  -4.3225  -5.4973   O.3       1 RES1   0.0000
     4 C4      -6.7237  -5.6442  -5.4830   C.2       1 RES1   0.0000
     5 O5      -5.5043  -5.7300  -5.5364   O.2       1 RES1   0.0000
     6 C6      -7.6596  -6.8283  -5.4138   C.3       1 RES1   0.0000
     7 C7      -7.0409  -8.2232  -5.4104   C.3       1 RES1   0.0000
     8 C8      -8.2059  -9.2279  -5.2248   C.3       1 RES1   0.0000
     9 C9      -9.2700  -9.0520  -6.3107   C.3       1 RES1   0.0000
    10 C10    -10.3854 -10.0967  -6.1981   C.3       1 RES1   0.0000
    11 C11     -9.9682 -11.5297  -6.5849   C.3       1 RES1   0.0000
    12 C12    -11.1461 -12.1003  -7.3639   C.3       1 RES1   0.0000
    13 N13    -11.8834 -10.9151  -7.7588   N.am      1 RES1   0.0000
    14 C14    -11.5479  -9.7981  -7.1084   C.2       1 RES1   0.0000
    15 O15    -12.0707  -8.7162  -7.2595   O.2       1 RES1   0.0000
    16 N16     -8.7206  -9.1004  -3.8681   N.am      1 RES1   0.0000
    17 C17     -8.3717  -9.8972  -2.8446   C.2       1 RES1   0.0000
    18 O18     -7.5846 -10.8252  -2.9137   O.2       1 RES1   0.0000
    19 C19     -9.0349  -9.5978  -1.5357   C.3       1 RES1   0.0000
    20 C20     -7.9083  -9.0566  -0.6536   C.3       1 RES1   0.0000
    21 C21     -8.3055  -8.4990   0.6992   C.2       1 RES1   0.0000
    22 C22     -8.6381  -7.1576   0.8867   C.2       1 RES1   0.0000
    23 C23     -8.9826  -6.6934   2.1564   C.2       1 RES1   0.0000
    24 C24     -8.9998  -7.5610   3.2423   C.2       1 RES1   0.0000
    25 C25     -8.6627  -8.8975   3.0626   C.2       1 RES1   0.0000
    26 C26     -8.3099  -9.3603   1.8013   C.2       1 RES1   0.0000
    27 N27     -9.7112 -10.7270  -0.9027   N.am      1 RES1   0.0000
    28 C28    -10.6540 -10.6756   0.0373   C.2       1 RES1   0.0000
    29 O29    -11.0778  -9.6032   0.4882   O.2       1 RES1   0.0000
    30 C30    -11.1362 -12.0419   0.4174   C.2       1 RES1   0.0000
    31 O31    -10.5922 -12.9792  -0.1387   O.2       1 RES1   0.0000
    32 N32    -12.0740 -12.4336   1.2717   N.am      1 RES1   0.0000
    33 C33    -12.4903 -13.7673   1.5906   C.3       1 RES1   0.0000
    34 C34    -11.4971 -14.3615   2.5722   C.3       1 RES1   0.0000
    35 C35    -11.9249 -15.6959   3.3254   C.3       1 RES1   0.0000
    36 C36    -11.8688 -14.9553   4.6431   C.3       1 RES1   0.0000
    37 C37    -11.5648 -13.6045   3.9768   C.3       1 RES1   0.0000
@<TRIPOS>BOND
     1     1     2    1
     2     2     3    1
     3     3     4    1
     4     4     5    2
     5     4     6    1
     6     6     7    1
     7     8     7    1
     8     8     9    1
     9    10     9    1
    10    10    11    1
    11    11    12    1
    12    12    13    1
    13    13    14   am
    14    14    15    2
    15     8    16    1
    16    16    17   am
    17    17    18    2
    18    17    19    1
    19    19    20    1
    20    20    21    1
    21    21    22    2
    22    22    23    1
    23    23    24    2
    24    24    25    1
    25    25    26    2
    26    19    27    1
    27    27    28   am
    28    28    29    2
    29    28    30    1
    30    30    31    2
    31    30    32   am
    32    32    33    1
    33    33    34    1
    34    34    35    1
    35    35    36    1
    36    36    37    1
    37    14    10    1
    38    26    21    1
    39    37    34    1
@<TRIPOS>SUBSTRUCTURE
     1 RES1        1 GROUP             0 ****  ****    0  
@<TRIPOS>MOLECULE
ligand_69
    37    39     1     0     0
SMALL
NO_CHARGES
****
Generated from the CSD

@<TRIPOS>ATOM
     1 C1      -7.1426  -1.9908  -6.0669   C.3       1 RES1   0.0000
     2 C2      -6.3101  -3.2500  -5.9821   C.3       1 RES1   0.0000
     3 O3      -7.1629  -4.3806  -5.8211   O.3       1 RES1   0.0000
     4 C4      -6.6137  -5.7154  -5.7135   C.2       1 RES1   0.0000
     5 O5      -5.3977  -5.8420  -5.7650   O.2       1 RES1   0.0000
     6 C6      -7.5846  -6.8621  -5.5556   C.3       1 RES1   0.0000
     7 C7      -7.0085  -8.2715  -5.4539   C.3       1 RES1   0.0000
     8 C8      -8.2059  -9.2279  -5.2248   C.3       1 RES1   0.0000
     9 C9      -7.7465 -10.6859  -5.1502   C.3       1 RES1   0.0000
    10 C10     -6.6917 -10.9020  -4.0599   C.3       1 RES1   0.0000
    11 C11     -6.0941 -12.3224  -4.0129   C.3       1 RES1   0.0000
    12 C12     -5.9653 -12.6611  -2.5336   C.3       1 RES1   0.0000
    13 N13     -6.8620 -11.7129  -1.9005   N.am      1 RES1   0.0000
    14 C14     -7.2452 -10.6942  -2.6743   C.2       1 RES1   0.0000
    15 O15     -7.9544  -9.7772  -2.3240   O.2       1 RES1   0.0000
    16 N16     -9.2073  -8.9766  -6.2524   N.am      1 RES1   0.0000
    17 C17    -10.3152  -8.2395  -6.0702   C.2       1 RES1   0.0000
    18 O18    -10.6280  -7.6872  -5.0298   O.2       1 RES1   0.0000
    19 C19    -11.2185  -8.1234  -7.2590   C.3       1 RES1   0.0000
    20 C20    -12.0444  -9.4109  -7.2362   C.3       1 RES1   0.0000
    21 C21    -12.8728  -9.6712  -5.9933   C.2       1 RES1   0.0000
    22 C22    -12.3751 -10.3747  -4.8968   C.2       1 RES1   0.0000
    23 C23    -13.1853 -10.5988  -3.7834   C.2       1 RES1   0.0000
    24 C24    -14.4909 -10.1225  -3.7557   C.2       1 RES1   0.0000
    25 C25    -14.9944  -9.4265  -4.8484   C.2       1 RES1   0.0000
    26 C26    -14.1931  -9.2104  -5.9622   C.2       1 RES1   0.0000
    27 N27    -10.5455  -7.9451  -8.5429   N.am      1 RES1   0.0000
    28 C28     -9.9991  -6.8259  -9.0160   C.2       1 RES1   0.0000
    29 O29    -10.0091  -5.7658  -8.3764   O.2       1 RES1   0.0000
    30 C30     -9.3599  -7.0406 -10.3536   C.2       1 RES1   0.0000
    31 O31     -9.4576  -8.1600 -10.8239   O.2       1 RES1   0.0000
    32 N32     -8.6862  -6.2147 -11.1452   N.am      1 RES1   0.0000
    33 C33     -8.0952  -6.4857 -12.4224   C.3       1 RES1   0.0000
    34 C34     -9.1845  -6.4397 -13.4780   C.3       1 RES1   0.0000
    35 C35     -8.7237  -6.3760 -14.9994   C.3       1 RES1   0.0000
    36 C36     -9.3770  -5.0177 -15.1273   C.3       1 RES1   0.0000
    37 C37     -9.7563  -4.9573 -13.6395   C.3       1 RES1   0.0000
@<TRIPOS>BOND
     1     1     2    1
     2     2     3    1
     3     3     4    1
     4     4     5    2
     5     4     6    1
     6     6     7    1
     7     8     7    1
     8     8     9    1
     9    10     9    1
    10    10    11    1
    11    11    12    1
    12    12    13    1
    13    13    14   am
    14    14    15    2
    15     8    16    1
    16    16    17   am
    17    17    18    2
    18    17    19    1
    19    19    20    1
    20    20    21    1
    21    21    22    2
    22    22    23    1
    23    23    24    2
    24    24    25    1
    25    25    26    2
    26    19    27    1
    27    27    28   am
    28    28    29    2
    29    28    30    1
    30    30    31    2
    31    30    32   am
    32    32    33    1
    33    33    34    1
    34    34    35    1
    35    35    36    1
    36    36    37    1
    37    14    10    1
    38    26    21    1
    39    37    34    1
@<TRIPOS>SUBSTRUCTURE
     1 RES1        1 GROUP             0 ****  ****    0  
@<TRIPOS>MOLECULE
ligand_70
    37    39     1     0     0
SMALL
NO_CHARGES
****
Generated from the CSD

@<TRIPOS>ATOM
     1 C1      -7.3476  -1.9644  -6.1189   C.3       1 RES1   0.0000
     2 C2      -6.4785  -3.1986  -6.0335   C.3       1 RES1   0.0000
     3 O3      -7.2956  -4.3495  -5.8350   O.3       1 RES1   0.0000
     4 C4      -6.7071  -5.6667  -5.7191   C.2       1 RES1   0.0000
     5 O5      -5.4895  -5.7606  -5.7968   O.2       1 RES1   0.0000
     6 C6      -7.6417  -6.8370  -5.5208   C.3       1 RES1   0.0000
     7 C7      -7.0243  -8.2281  -5.4102   C.3       1 RES1   0.0000
     8 C8      -8.1972  -9.2241  -5.2280   C.3       1 RES1   0.0000
     9 C9      -8.8244  -9.0959  -3.8378   C.3       1 RES1   0.0000
    10 C10     -9.9841 -10.0771  -3.6369   C.3       1 RES1   0.0000
    11 C11    -11.2572  -9.7443  -4.4404   C.3       1 RES1   0.0000
    12 C12    -12.4196 -10.0349  -3.5001   C.3       1 RES1   0.0000
    13 N13    -11.7906 -10.0416  -2.1930   N.am      1 RES1   0.0000
    14 C14    -10.4578 -10.1237  -2.2076   C.2       1 RES1   0.0000
    15 O15     -9.7495 -10.1852  -1.2273   O.2       1 RES1   0.0000
    16 N16     -7.7234 -10.5657  -5.5402   N.am      1 RES1   0.0000
    17 C17     -7.8892 -11.1737  -6.7263   C.2       1 RES1   0.0000
    18 O18     -8.4606 -10.6916  -7.6888   O.2       1 RES1   0.0000
    19 C19     -7.3259 -12.5575  -6.8289   C.3       1 RES1   0.0000
    20 C20     -8.5557 -13.4631  -6.9179   C.3       1 RES1   0.0000
    21 C21     -8.3060 -14.9313  -7.2018   C.2       1 RES1   0.0000
    22 C22     -8.2547 -15.4442  -8.4977   C.2       1 RES1   0.0000
    23 C23     -8.0360 -16.8067  -8.7024   C.2       1 RES1   0.0000
    24 C24     -7.8654 -17.6625  -7.6205   C.2       1 RES1   0.0000
    25 C25     -7.9222 -17.1580  -6.3265   C.2       1 RES1   0.0000
    26 C26     -8.1495 -15.8035  -6.1196   C.2       1 RES1   0.0000
    27 N27     -6.4467 -12.9594  -5.7342   N.am      1 RES1   0.0000
    28 C28     -5.1772 -12.6001  -5.5488   C.2       1 RES1   0.0000
    29 O29     -4.5842 -11.8466  -6.3319   O.2       1 RES1   0.0000
    30 C30     -4.6136 -13.1782  -4.2870   C.2       1 RES1   0.0000
    31 O31     -5.3560 -13.9017  -3.6473   O.2       1 RES1   0.0000
    32 N32     -3.4213 -13.0446  -3.7185   N.am      1 RES1   0.0000
    33 C33     -2.9425 -13.6287  -2.5006   C.3       1 RES1   0.0000
    34 C34     -2.5305 -15.0620  -2.7817   C.3       1 RES1   0.0000
    35 C35     -1.6614 -15.8021  -1.6736   C.3       1 RES1   0.0000
    36 C36     -0.5212 -15.9149  -2.6611   C.3       1 RES1   0.0000
    37 C37     -1.2560 -15.1082  -3.7430   C.3       1 RES1   0.0000
@<TRIPOS>BOND
     1     1     2    1
     2     2     3    1
     3     3     4    1
     4     4     5    2
     5     4     6    1
     6     6     7    1
     7     8     7    1
     8     8     9    1
     9    10     9    1
    10    10    11    1
    11    11    12    1
    12    12    13    1
    13    13    14   am
    14    14    15    2
    15     8    16    1
    16    16    17   am
    17    17    18    2
    18    17    19    1
    19    19    20    1
    20    20    21    1
    21    21    22    2
    22    22    23    1
    23    23    24    2
    24    24    25    1
    25    25    26    2
    26    19    27    1
    27    27    28   am
    28    28    29    2
    29    28    30    1
    30    30    31    2
    31    30    32   am
    32    32    33    1
    33    33    34    1
    34    34    35    1
    35    35    36    1
    36    36    37    1
    37    14    10    1
    38    26    21    1
    39    37    34    1
@<TRIPOS>SUBSTRUCTURE
     1 RES1        1 GROUP             0 ****  ****    0  
@<TRIPOS>MOLECULE
ligand_71
    37    39     1     0     0
SMALL
NO_CHARGES
****
Generated from the CSD

@<TRIPOS>ATOM
     1 C1      -7.1532  -1.9860  -6.1517   C.3       1 RES1   0.0000
     2 C2      -6.3180  -3.2429  -6.0596   C.3       1 RES1   0.0000
     3 O3      -7.1678  -4.3732  -5.8814   O.3       1 RES1   0.0000
     4 C4      -6.6157  -5.7059  -5.7639   C.2       1 RES1   0.0000
     5 O5      -5.3998  -5.8311  -5.8222   O.2       1 RES1   0.0000
     6 C6      -7.5836  -6.8526  -5.5881   C.3       1 RES1   0.0000
     7 C7      -7.0043  -8.2599  -5.4758   C.3       1 RES1   0.0000
     8 C8      -8.1986  -9.2159  -5.2291   C.3       1 RES1   0.0000
     9 C9      -7.7362 -10.6724  -5.1428   C.3       1 RES1   0.0000
    10 C10     -6.6738 -10.8757  -4.0575   C.3       1 RES1   0.0000
    11 C11     -6.0736 -12.2946  -4.0003   C.3       1 RES1   0.0000
    12 C12     -5.9342 -12.6182  -2.5184   C.3       1 RES1   0.0000
    13 N13     -6.8283 -11.6650  -1.8889   N.am      1 RES1   0.0000
    14 C14     -7.2184 -10.6549  -2.6704   C.2       1 RES1   0.0000
    15 O15     -7.9268  -9.7355  -2.3246   O.2       1 RES1   0.0000
    16 N16     -9.2073  -8.9766  -6.2524   N.am      1 RES1   0.0000
    17 C17    -10.3152  -8.2395  -6.0702   C.2       1 RES1   0.0000
    18 O18    -10.6280  -7.6872  -5.0298   O.2       1 RES1   0.0000
    19 C19    -11.2185  -8.1234  -7.2590   C.3       1 RES1   0.0000
    20 C20    -12.0161  -9.4289  -7.2595   C.3       1 RES1   0.0000
    21 C21    -13.1502  -9.5381  -8.2598   C.2       1 RES1   0.0000
    22 C22    -14.4524  -9.1384  -7.9605   C.2       1 RES1   0.0000
    23 C23    -15.4621  -9.2742  -8.9135   C.2       1 RES1   0.0000
    24 C24    -15.1802  -9.8052 -10.1668   C.2       1 RES1   0.0000
    25 C25    -13.8856 -10.2115 -10.4683   C.2       1 RES1   0.0000
    26 C26    -12.8803 -10.0864  -9.5180   C.2       1 RES1   0.0000
    27 N27    -10.5470  -7.9091  -8.5382   N.am      1 RES1   0.0000
    28 C28    -11.0848  -7.4280  -9.6582   C.2       1 RES1   0.0000
    29 O29    -12.2737  -7.0892  -9.7261   O.2       1 RES1   0.0000
    30 C30    -10.0745  -7.3189 -10.7587   C.2       1 RES1   0.0000
    31 O31     -8.9497  -7.7069 -10.4978   O.2       1 RES1   0.0000
    32 N32    -10.1788  -6.8642 -12.0017   N.am      1 RES1   0.0000
    33 C33     -9.1652  -6.7860 -13.0118   C.3       1 RES1   0.0000
    34 C34     -9.0025  -8.1578 -13.6399   C.3       1 RES1   0.0000
    35 C35     -8.1840  -8.2446 -15.0013   C.3       1 RES1   0.0000
    36 C36     -9.4306  -8.7328 -15.7051   C.3       1 RES1   0.0000
    37 C37    -10.3120  -8.5668 -14.4574   C.3       1 RES1   0.0000
@<TRIPOS>BOND
     1     1     2    1
     2     2     3    1
     3     3     4    1
     4     4     5    2
     5     4     6    1
     6     6     7    1
     7     8     7    1
     8     8     9    1
     9    10     9    1
    10    10    11    1
    11    11    12    1
    12    12    13    1
    13    13    14   am
    14    14    15    2
    15     8    16    1
    16    16    17   am
    17    17    18    2
    18    17    19    1
    19    19    20    1
    20    20    21    1
    21    21    22    2
    22    22    23    1
    23    23    24    2
    24    24    25    1
    25    25    26    2
    26    19    27    1
    27    27    28   am
    28    28    29    2
    29    28    30    1
    30    30    31    2
    31    30    32   am
    32    32    33    1
    33    33    34    1
    34    34    35    1
    35    35    36    1
    36    36    37    1
    37    14    10    1
    38    26    21    1
    39    37    34    1
@<TRIPOS>SUBSTRUCTURE
     1 RES1        1 GROUP             0 ****  ****    0  
@<TRIPOS>MOLECULE
ligand_72
    37    39     1     0     0
SMALL
NO_CHARGES
****
Generated from the CSD

@<TRIPOS>ATOM
     1 C1      -7.2503  -2.0280  -6.8553   C.3       1 RES1   0.0000
     2 C2      -6.3918  -3.2535  -6.6389   C.3       1 RES1   0.0000
     3 O3      -7.2211  -4.3788  -6.3606   O.3       1 RES1   0.0000
     4 C4      -6.6443  -5.6831  -6.1137   C.2       1 RES1   0.0000
     5 O5      -5.4258  -5.7888  -6.1514   O.2       1 RES1   0.0000
     6 C6      -7.5913  -6.8273  -5.8369   C.3       1 RES1   0.0000
     7 C7      -6.9860  -8.2058  -5.5880   C.3       1 RES1   0.0000
     8 C8      -8.1629  -9.1563  -5.2530   C.3       1 RES1   0.0000
     9 C9      -7.6852 -10.6033  -5.1088   C.3       1 RES1   0.0000
    10 C10     -6.6557 -10.7601  -3.9847   C.3       1 RES1   0.0000
    11 C11     -5.2224 -10.3322  -4.3584   C.3       1 RES1   0.0000
    12 C12     -4.3083 -11.3694  -3.7194   C.3       1 RES1   0.0000
    13 N13     -5.2025 -12.4829  -3.4653   N.am      1 RES1   0.0000
    14 C14     -6.5035 -12.1910  -3.5390   C.2       1 RES1   0.0000
    15 O15     -7.4082 -12.9658  -3.3204   O.2       1 RES1   0.0000
    16 N16     -9.2073  -8.9766  -6.2524   N.am      1 RES1   0.0000
    17 C17    -10.3152  -8.2395  -6.0702   C.2       1 RES1   0.0000
    18 O18    -10.6280  -7.6872  -5.0298   O.2       1 RES1   0.0000
    19 C19    -11.2185  -8.1234  -7.2590   C.3       1 RES1   0.0000
    20 C20    -12.3751  -9.0766  -6.9523   C.3       1 RES1   0.0000
    21 C21    -13.5529  -9.0537  -7.9068   C.2       1 RES1   0.0000
    22 C22    -14.6474  -8.2089  -7.7238   C.2       1 RES1   0.0000
    23 C23    -15.7120  -8.2384  -8.6248   C.2       1 RES1   0.0000
    24 C24    -15.6908  -9.1055  -9.7111   C.2       1 RES1   0.0000
    25 C25    -14.6057  -9.9545  -9.8947   C.2       1 RES1   0.0000
    26 C26    -13.5488  -9.9340  -8.9937   C.2       1 RES1   0.0000
    27 N27    -10.6024  -8.4307  -8.5470   N.am      1 RES1   0.0000
    28 C28    -11.0346  -8.0648  -9.7531   C.2       1 RES1   0.0000
    29 O29    -12.0583  -7.3860  -9.9086   O.2       1 RES1   0.0000
    30 C30    -10.1168  -8.5348 -10.8396   C.2       1 RES1   0.0000
    31 O31     -9.1565  -9.1952 -10.4855   O.2       1 RES1   0.0000
    32 N32    -10.1551  -8.3600 -12.1551   N.am      1 RES1   0.0000
    33 C33     -9.2379  -8.8392 -13.1465   C.3       1 RES1   0.0000
    34 C34     -9.5573 -10.2941 -13.4368   C.3       1 RES1   0.0000
    35 C35     -8.9000 -10.9408 -14.7333   C.3       1 RES1   0.0000
    36 C36    -10.2809 -11.1463 -15.3155   C.3       1 RES1   0.0000
    37 C37    -10.9803 -10.4319 -14.1487   C.3       1 RES1   0.0000
@<TRIPOS>BOND
     1     1     2    1
     2     2     3    1
     3     3     4    1
     4     4     5    2
     5     4     6    1
     6     6     7    1
     7     8     7    1
     8     8     9    1
     9    10     9    1
    10    10    11    1
    11    11    12    1
    12    12    13    1
    13    13    14   am
    14    14    15    2
    15     8    16    1
    16    16    17   am
    17    17    18    2
    18    17    19    1
    19    19    20    1
    20    20    21    1
    21    21    22    2
    22    22    23    1
    23    23    24    2
    24    24    25    1
    25    25    26    2
    26    19    27    1
    27    27    28   am
    28    28    29    2
    29    28    30    1
    30    30    31    2
    31    30    32   am
    32    32    33    1
    33    33    34    1
    34    34    35    1
    35    35    36    1
    36    36    37    1
    37    14    10    1
    38    26    21    1
    39    37    34    1
@<TRIPOS>SUBSTRUCTURE
     1 RES1        1 GROUP             0 ****  ****    0  
@<TRIPOS>MOLECULE
ligand_73
    37    39     1     0     0
SMALL
NO_CHARGES
****
Generated from the CSD

@<TRIPOS>ATOM
     1 C1      -7.6006  -2.1294  -6.3932   C.3       1 RES1   0.0000
     2 C2      -6.6979  -3.3367  -6.2776   C.3       1 RES1   0.0000
     3 O3      -7.4789  -4.4964  -6.0007   O.3       1 RES1   0.0000
     4 C4      -6.8536  -5.7920  -5.8421   C.2       1 RES1   0.0000
     5 O5      -5.6369  -5.8600  -5.9530   O.2       1 RES1   0.0000
     6 C6      -7.7516  -6.9740  -5.5608   C.3       1 RES1   0.0000
     7 C7      -7.0940  -8.3402  -5.3882   C.3       1 RES1   0.0000
     8 C8      -6.2354  -8.2629  -4.1007   C.3       1 RES1   0.0000
     9 C9      -5.5145  -9.5863  -3.8329   C.3       1 RES1   0.0000
    10 C10     -4.6538  -9.5269  -2.5665   C.3       1 RES1   0.0000
    11 C11     -3.3889  -8.6537  -2.6868   C.3       1 RES1   0.0000
    12 C12     -2.2942  -9.4202  -1.9560   C.3       1 RES1   0.0000
    13 N13     -2.8218 -10.7701  -1.8976   N.am      1 RES1   0.0000
    14 C14     -4.1254 -10.8794  -2.1657   C.2       1 RES1   0.0000
    15 O15     -4.7638 -11.9079  -2.1291   O.2       1 RES1   0.0000
    16 N16     -7.0815  -7.8189  -3.0012   N.am      1 RES1   0.0000
    17 C17     -7.0951  -6.5692  -2.5091   C.2       1 RES1   0.0000
    18 O18     -6.4001  -5.6503  -2.9066   O.2       1 RES1   0.0000
    19 C19     -8.0420  -6.3307  -1.3737   C.3       1 RES1   0.0000
    20 C20     -9.4003  -6.1273  -2.0478   C.3       1 RES1   0.0000
    21 C21    -10.6089  -6.0310  -1.1375   C.2       1 RES1   0.0000
    22 C22    -11.3473  -7.1503  -0.7541   C.2       1 RES1   0.0000
    23 C23    -12.4602  -7.0038   0.0742   C.2       1 RES1   0.0000
    24 C24    -12.8410  -5.7453   0.5254   C.2       1 RES1   0.0000
    25 C25    -12.1128  -4.6254   0.1409   C.2       1 RES1   0.0000
    26 C26    -11.0100  -4.7674  -0.6915   C.2       1 RES1   0.0000
    27 N27     -7.7064  -5.2075  -0.5026   N.am      1 RES1   0.0000
    28 C28     -8.1399  -4.9952   0.7392   C.2       1 RES1   0.0000
    29 O29     -8.9098  -5.7779   1.3116   O.2       1 RES1   0.0000
    30 C30     -7.5494  -3.7519   1.3301   C.2       1 RES1   0.0000
    31 O31     -6.8102  -3.1096   0.6057   O.2       1 RES1   0.0000
    32 N32     -7.6845  -3.2035   2.5317   N.am      1 RES1   0.0000
    33 C33     -7.0863  -2.0035   3.0377   C.3       1 RES1   0.0000
    34 C34     -7.8774  -0.8153   2.5229   C.3       1 RES1   0.0000
    35 C35     -7.6124   0.5927   3.2145   C.3       1 RES1   0.0000
    36 C36     -9.0461   0.6118   3.6963   C.3       1 RES1   0.0000
    37 C37     -9.3447  -0.7942   3.1530   C.3       1 RES1   0.0000
@<TRIPOS>BOND
     1     1     2    1
     2     2     3    1
     3     3     4    1
     4     4     5    2
     5     4     6    1
     6     6     7    1
     7     8     7    1
     8     8     9    1
     9    10     9    1
    10    10    11    1
    11    11    12    1
    12    12    13    1
    13    13    14   am
    14    14    15    2
    15     8    16    1
    16    16    17   am
    17    17    18    2
    18    17    19    1
    19    19    20    1
    20    20    21    1
    21    21    22    2
    22    22    23    1
    23    23    24    2
    24    24    25    1
    25    25    26    2
    26    19    27    1
    27    27    28   am
    28    28    29    2
    29    28    30    1
    30    30    31    2
    31    30    32   am
    32    32    33    1
    33    33    34    1
    34    34    35    1
    35    35    36    1
    36    36    37    1
    37    14    10    1
    38    26    21    1
    39    37    34    1
@<TRIPOS>SUBSTRUCTURE
     1 RES1        1 GROUP             0 ****  ****    0  
@<TRIPOS>MOLECULE
ligand_74
    37    39     1     0     0
SMALL
NO_CHARGES
****
Generated from the CSD

@<TRIPOS>ATOM
     1 C1      -8.1178  -2.1855  -6.1904   C.3       1 RES1   0.0000
     2 C2      -7.1228  -3.3216  -6.1204   C.3       1 RES1   0.0000
     3 O3      -7.8077  -4.5462  -5.8699   O.3       1 RES1   0.0000
     4 C4      -7.0818  -5.7931  -5.7566   C.2       1 RES1   0.0000
     5 O5      -5.8650  -5.7628  -5.8822   O.2       1 RES1   0.0000
     6 C6      -7.8816  -7.0492  -5.5013   C.3       1 RES1   0.0000
     7 C7      -7.1184  -8.3652  -5.3823   C.3       1 RES1   0.0000
     8 C8      -6.2434  -8.2602  -4.1079   C.3       1 RES1   0.0000
     9 C9      -5.4967  -9.5685  -3.8368   C.3       1 RES1   0.0000
    10 C10     -4.5540  -9.9418  -4.9857   C.3       1 RES1   0.0000
    11 C11     -5.2424 -10.6061  -6.1948   C.3       1 RES1   0.0000
    12 C12     -4.2962 -11.7115  -6.6452   C.3       1 RES1   0.0000
    13 N13     -3.4494 -11.9117  -5.4846   N.am      1 RES1   0.0000
    14 C14     -3.5065 -10.9411  -4.5692   C.2       1 RES1   0.0000
    15 O15     -2.8492 -10.8977  -3.5530   O.2       1 RES1   0.0000
    16 N16     -7.0815  -7.8189  -3.0012   N.am      1 RES1   0.0000
    17 C17     -7.0951  -6.5692  -2.5091   C.2       1 RES1   0.0000
    18 O18     -6.4001  -5.6503  -2.9066   O.2       1 RES1   0.0000
    19 C19     -8.0420  -6.3307  -1.3737   C.3       1 RES1   0.0000
    20 C20     -7.2900  -6.8323  -0.1395   C.3       1 RES1   0.0000
    21 C21     -5.9578  -6.1755   0.1646   C.2       1 RES1   0.0000
    22 C22     -4.7525  -6.6581  -0.3449   C.2       1 RES1   0.0000
    23 C23     -3.5527  -6.0239  -0.0217   C.2       1 RES1   0.0000
    24 C24     -3.5476  -4.9074   0.8064   C.2       1 RES1   0.0000
    25 C25     -4.7451  -4.4261   1.3225   C.2       1 RES1   0.0000
    26 C26     -5.9401  -5.0614   1.0101   C.2       1 RES1   0.0000
    27 N27     -9.3471  -6.9738  -1.5000   N.am      1 RES1   0.0000
    28 C28    -10.3683  -6.5791  -2.2593   C.2       1 RES1   0.0000
    29 O29    -10.3070  -5.5698  -2.9737   O.2       1 RES1   0.0000
    30 C30    -11.5307  -7.5187  -2.1614   C.2       1 RES1   0.0000
    31 O31    -11.4001  -8.4597  -1.3990   O.2       1 RES1   0.0000
    32 N32    -12.7113  -7.5179  -2.7688   N.am      1 RES1   0.0000
    33 C33    -13.7873  -8.4542  -2.6301   C.3       1 RES1   0.0000
    34 C34    -14.5566  -8.1219  -1.3649   C.3       1 RES1   0.0000
    35 C35    -15.9814  -8.8042  -1.1769   C.3       1 RES1   0.0000
    36 C36    -16.6267  -7.4365  -1.2099   C.3       1 RES1   0.0000
    37 C37    -15.3019  -6.7166  -1.5062   C.3       1 RES1   0.0000
@<TRIPOS>BOND
     1     1     2    1
     2     2     3    1
     3     3     4    1
     4     4     5    2
     5     4     6    1
     6     6     7    1
     7     8     7    1
     8     8     9    1
     9    10     9    1
    10    10    11    1
    11    11    12    1
    12    12    13    1
    13    13    14   am
    14    14    15    2
    15     8    16    1
    16    16    17   am
    17    17    18    2
    18    17    19    1
    19    19    20    1
    20    20    21    1
    21    21    22    2
    22    22    23    1
    23    23    24    2
    24    24    25    1
    25    25    26    2
    26    19    27    1
    27    27    28   am
    28    28    29    2
    29    28    30    1
    30    30    31    2
    31    30    32   am
    32    32    33    1
    33    33    34    1
    34    34    35    1
    35    35    36    1
    36    36    37    1
    37    14    10    1
    38    26    21    1
    39    37    34    1
@<TRIPOS>SUBSTRUCTURE
     1 RES1        1 GROUP             0 ****  ****    0  
@<TRIPOS>MOLECULE
ligand_75
    37    39     1     0     0
SMALL
NO_CHARGES
****
Generated from the CSD

@<TRIPOS>ATOM
     1 C1      -7.4128  -1.9613  -6.1111   C.3       1 RES1   0.0000
     2 C2      -6.5344  -3.1892  -6.0305   C.3       1 RES1   0.0000
     3 O3      -7.3422  -4.3463  -5.8300   O.3       1 RES1   0.0000
     4 C4      -6.7436  -5.6592  -5.7178   C.2       1 RES1   0.0000
     5 O5      -5.5257  -5.7441  -5.8003   O.2       1 RES1   0.0000
     6 C6      -7.6689  -6.8365  -5.5171   C.3       1 RES1   0.0000
     7 C7      -7.0409  -8.2232  -5.4104   C.3       1 RES1   0.0000
     8 C8      -8.2059  -9.2279  -5.2248   C.3       1 RES1   0.0000
     9 C9      -8.8288  -9.1058  -3.8321   C.3       1 RES1   0.0000
    10 C10     -9.9804 -10.0957  -3.6279   C.3       1 RES1   0.0000
    11 C11    -11.2589  -9.7714  -4.4262   C.3       1 RES1   0.0000
    12 C12    -12.4156 -10.0716  -3.4819   C.3       1 RES1   0.0000
    13 N13    -11.7817 -10.0749  -2.1772   N.am      1 RES1   0.0000
    14 C14    -10.4484 -10.1471  -2.1969   C.2       1 RES1   0.0000
    15 O15     -9.7359 -10.2044  -1.2193   O.2       1 RES1   0.0000
    16 N16     -7.7234 -10.5657  -5.5402   N.am      1 RES1   0.0000
    17 C17     -7.8892 -11.1737  -6.7263   C.2       1 RES1   0.0000
    18 O18     -8.4606 -10.6916  -7.6888   O.2       1 RES1   0.0000
    19 C19     -7.3259 -12.5575  -6.8289   C.3       1 RES1   0.0000
    20 C20     -6.1475 -12.4176  -7.7945   C.3       1 RES1   0.0000
    21 C21     -5.0491 -11.4503  -7.3989   C.2       1 RES1   0.0000
    22 C22     -5.0694 -10.1050  -7.7661   C.2       1 RES1   0.0000
    23 C23     -4.0252  -9.2609  -7.3875   C.2       1 RES1   0.0000
    24 C24     -2.9595  -9.7507  -6.6414   C.2       1 RES1   0.0000
    25 C25     -2.9306 -11.0921  -6.2784   C.2       1 RES1   0.0000
    26 C26     -3.9642 -11.9369  -6.6622   C.2       1 RES1   0.0000
    27 N27     -8.2627 -13.5843  -7.2772   N.am      1 RES1   0.0000
    28 C28     -9.2184 -14.1706  -6.5575   C.2       1 RES1   0.0000
    29 O29     -9.4174 -13.8857  -5.3692   O.2       1 RES1   0.0000
    30 C30    -10.0101 -15.1463  -7.3730   C.2       1 RES1   0.0000
    31 O31     -9.6587 -15.2912  -8.5303   O.2       1 RES1   0.0000
    32 N32    -11.0545 -15.9043  -7.0611   N.am      1 RES1   0.0000
    33 C33    -11.7716 -16.8231  -7.8950   C.3       1 RES1   0.0000
    34 C34    -10.9870 -18.1199  -7.9708   C.3       1 RES1   0.0000
    35 C35    -11.7381 -19.3939  -8.5570   C.3       1 RES1   0.0000
    36 C36    -11.5884 -20.0825  -7.2186   C.3       1 RES1   0.0000
    37 C37    -10.9588 -18.8501  -6.5508   C.3       1 RES1   0.0000
@<TRIPOS>BOND
     1     1     2    1
     2     2     3    1
     3     3     4    1
     4     4     5    2
     5     4     6    1
     6     6     7    1
     7     8     7    1
     8     8     9    1
     9    10     9    1
    10    10    11    1
    11    11    12    1
    12    12    13    1
    13    13    14   am
    14    14    15    2
    15     8    16    1
    16    16    17   am
    17    17    18    2
    18    17    19    1
    19    19    20    1
    20    20    21    1
    21    21    22    2
    22    22    23    1
    23    23    24    2
    24    24    25    1
    25    25    26    2
    26    19    27    1
    27    27    28   am
    28    28    29    2
    29    28    30    1
    30    30    31    2
    31    30    32   am
    32    32    33    1
    33    33    34    1
    34    34    35    1
    35    35    36    1
    36    36    37    1
    37    14    10    1
    38    26    21    1
    39    37    34    1
@<TRIPOS>SUBSTRUCTURE
     1 RES1        1 GROUP             0 ****  ****    0  
@<TRIPOS>MOLECULE
ligand_76
    37    39     1     0     0
SMALL
NO_CHARGES
****
Generated from the CSD

@<TRIPOS>ATOM
     1 C1      -7.3592  -1.9244  -6.6219   C.3       1 RES1   0.0000
     2 C2      -6.4843  -3.1528  -6.5150   C.3       1 RES1   0.0000
     3 O3      -7.2898  -4.2939  -6.2307   O.3       1 RES1   0.0000
     4 C4      -6.6938  -5.6039  -6.0782   C.2       1 RES1   0.0000
     5 O5      -5.4802  -5.7006  -6.2006   O.2       1 RES1   0.0000
     6 C6      -7.6168  -6.7644  -5.7885   C.3       1 RES1   0.0000
     7 C7      -6.9919  -8.1485  -5.6390   C.3       1 RES1   0.0000
     8 C8      -8.1414  -9.1199  -5.2699   C.3       1 RES1   0.0000
     9 C9      -7.6294 -10.5539  -5.1152   C.3       1 RES1   0.0000
    10 C10     -8.7411 -11.5193  -4.6907   C.3       1 RES1   0.0000
    11 C11     -9.2264 -11.3453  -3.2377   C.3       1 RES1   0.0000
    12 C12     -9.4365 -12.7573  -2.7069   C.3       1 RES1   0.0000
    13 N13     -8.6665 -13.5720  -3.6275   N.am      1 RES1   0.0000
    14 C14     -8.3091 -12.9608  -4.7598   C.2       1 RES1   0.0000
    15 O15     -7.7023 -13.4764  -5.6722   O.2       1 RES1   0.0000
    16 N16     -9.2073  -8.9766  -6.2524   N.am      1 RES1   0.0000
    17 C17    -10.3152  -8.2395  -6.0702   C.2       1 RES1   0.0000
    18 O18    -10.6280  -7.6872  -5.0298   O.2       1 RES1   0.0000
    19 C19    -11.2185  -8.1234  -7.2590   C.3       1 RES1   0.0000
    20 C20    -12.4916  -8.8627  -6.8430   C.3       1 RES1   0.0000
    21 C21    -12.3669 -10.3525  -6.5908   C.2       1 RES1   0.0000
    22 C22    -12.1040 -10.8774  -5.3257   C.2       1 RES1   0.0000
    23 C23    -11.9847 -12.2564  -5.1516   C.2       1 RES1   0.0000
    24 C24    -12.1285 -13.1174  -6.2334   C.2       1 RES1   0.0000
    25 C25    -12.3838 -12.5995  -7.4978   C.2       1 RES1   0.0000
    26 C26    -12.4935 -11.2263  -7.6756   C.2       1 RES1   0.0000
    27 N27    -10.6802  -8.6520  -8.5095   N.am      1 RES1   0.0000
    28 C28    -11.0452  -8.3188  -9.7468   C.2       1 RES1   0.0000
    29 O29    -11.9276  -7.4797  -9.9705   O.2       1 RES1   0.0000
    30 C30    -10.2359  -9.0414 -10.7797   C.2       1 RES1   0.0000
    31 O31     -9.4111  -9.8337 -10.3604   O.2       1 RES1   0.0000
    32 N32    -10.2495  -8.9771 -12.1057   N.am      1 RES1   0.0000
    33 C33     -9.4419  -9.7004 -13.0429   C.3       1 RES1   0.0000
    34 C34    -10.0248 -11.0915 -13.2099   C.3       1 RES1   0.0000
    35 C35     -9.5054 -11.9576 -14.4392   C.3       1 RES1   0.0000
    36 C36    -10.9040 -11.9558 -15.0153   C.3       1 RES1   0.0000
    37 C37    -11.4532 -11.0269 -13.9214   C.3       1 RES1   0.0000
@<TRIPOS>BOND
     1     1     2    1
     2     2     3    1
     3     3     4    1
     4     4     5    2
     5     4     6    1
     6     6     7    1
     7     8     7    1
     8     8     9    1
     9    10     9    1
    10    10    11    1
    11    11    12    1
    12    12    13    1
    13    13    14   am
    14    14    15    2
    15     8    16    1
    16    16    17   am
    17    17    18    2
    18    17    19    1
    19    19    20    1
    20    20    21    1
    21    21    22    2
    22    22    23    1
    23    23    24    2
    24    24    25    1
    25    25    26    2
    26    19    27    1
    27    27    28   am
    28    28    29    2
    29    28    30    1
    30    30    31    2
    31    30    32   am
    32    32    33    1
    33    33    34    1
    34    34    35    1
    35    35    36    1
    36    36    37    1
    37    14    10    1
    38    26    21    1
    39    37    34    1
@<TRIPOS>SUBSTRUCTURE
     1 RES1        1 GROUP             0 ****  ****    0  
@<TRIPOS>MOLECULE
ligand_77
    37    39     1     0     0
SMALL
NO_CHARGES
****
Generated from the CSD

@<TRIPOS>ATOM
     1 C1      -7.1085  -2.1079  -6.6069   C.3       1 RES1   0.0000
     2 C2      -6.2881  -3.3636  -6.4174   C.3       1 RES1   0.0000
     3 O3      -7.1486  -4.4600  -6.1190   O.3       1 RES1   0.0000
     4 C4      -6.6115  -5.7846  -5.8914   C.2       1 RES1   0.0000
     5 O5      -5.3990  -5.9329  -5.9631   O.2       1 RES1   0.0000
     6 C6      -7.5903  -6.8957  -5.5914   C.3       1 RES1   0.0000
     7 C7      -7.0303  -8.3017  -5.3958   C.3       1 RES1   0.0000
     8 C8      -6.2151  -8.2783  -4.0783   C.3       1 RES1   0.0000
     9 C9      -5.5555  -9.6328  -3.8085   C.3       1 RES1   0.0000
    10 C10     -4.7381  -9.6270  -2.5124   C.3       1 RES1   0.0000
    11 C11     -3.4371  -8.8021  -2.5741   C.3       1 RES1   0.0000
    12 C12     -2.3990  -9.6222  -1.8193   C.3       1 RES1   0.0000
    13 N13     -2.9799 -10.9512  -1.8022   N.am      1 RES1   0.0000
    14 C14     -4.2765 -11.0053  -2.1168   C.2       1 RES1   0.0000
    15 O15     -4.9549 -12.0085  -2.1197   O.2       1 RES1   0.0000
    16 N16     -7.0815  -7.8189  -3.0012   N.am      1 RES1   0.0000
    17 C17     -6.8525  -6.7258  -2.2550   C.2       1 RES1   0.0000
    18 O18     -5.9073  -5.9685  -2.3904   O.2       1 RES1   0.0000
    19 C19     -7.8527  -6.4594  -1.1728   C.3       1 RES1   0.0000
    20 C20     -8.6207  -5.2289  -1.6593   C.3       1 RES1   0.0000
    21 C21     -7.8482  -3.9268  -1.7389   C.2       1 RES1   0.0000
    22 C22     -7.1738  -3.5266  -2.8922   C.2       1 RES1   0.0000
    23 C23     -6.4657  -2.3247  -2.9068   C.2       1 RES1   0.0000
    24 C24     -6.4278  -1.5163  -1.7766   C.2       1 RES1   0.0000
    25 C25     -7.0925  -1.9133  -0.6222   C.2       1 RES1   0.0000
    26 C26     -7.7903  -3.1142  -0.6018   C.2       1 RES1   0.0000
    27 N27     -7.2934  -6.2456   0.1593   N.am      1 RES1   0.0000
    28 C28     -6.8313  -7.1738   0.9960   C.2       1 RES1   0.0000
    29 O29     -6.8308  -8.3783   0.7094   O.2       1 RES1   0.0000
    30 C30     -6.2947  -6.5690   2.2570   C.2       1 RES1   0.0000
    31 O31     -6.3864  -5.3584   2.3553   O.2       1 RES1   0.0000
    32 N32     -5.7201  -7.1223   3.3183   N.am      1 RES1   0.0000
    33 C33     -5.2243  -6.4817   4.5006   C.3       1 RES1   0.0000
    34 C34     -6.3964  -6.1897   5.4192   C.3       1 RES1   0.0000
    35 C35     -6.0633  -5.7917   6.9231   C.3       1 RES1   0.0000
    36 C36     -6.7773  -7.0379   7.3978   C.3       1 RES1   0.0000
    37 C37     -7.0369  -7.5448   5.9707   C.3       1 RES1   0.0000
@<TRIPOS>BOND
     1     1     2    1
     2     2     3    1
     3     3     4    1
     4     4     5    2
     5     4     6    1
     6     6     7    1
     7     8     7    1
     8     8     9    1
     9    10     9    1
    10    10    11    1
    11    11    12    1
    12    12    13    1
    13    13    14   am
    14    14    15    2
    15     8    16    1
    16    16    17   am
    17    17    18    2
    18    17    19    1
    19    19    20    1
    20    20    21    1
    21    21    22    2
    22    22    23    1
    23    23    24    2
    24    24    25    1
    25    25    26    2
    26    19    27    1
    27    27    28   am
    28    28    29    2
    29    28    30    1
    30    30    31    2
    31    30    32   am
    32    32    33    1
    33    33    34    1
    34    34    35    1
    35    35    36    1
    36    36    37    1
    37    14    10    1
    38    26    21    1
    39    37    34    1
@<TRIPOS>SUBSTRUCTURE
     1 RES1        1 GROUP             0 ****  ****    0  
@<TRIPOS>MOLECULE
ligand_78
    37    39     1     0     0
SMALL
NO_CHARGES
****
Generated from the CSD

@<TRIPOS>ATOM
     1 C1      -8.1683  -2.1864  -6.1701   C.3       1 RES1   0.0000
     2 C2      -7.1685  -3.3189  -6.1107   C.3       1 RES1   0.0000
     3 O3      -7.8467  -4.5466  -5.8568   O.3       1 RES1   0.0000
     4 C4      -7.1151  -5.7910  -5.7521   C.2       1 RES1   0.0000
     5 O5      -5.8995  -5.7558  -5.8881   O.2       1 RES1   0.0000
     6 C6      -7.9079  -7.0505  -5.4925   C.3       1 RES1   0.0000
     7 C7      -7.1387  -8.3638  -5.3822   C.3       1 RES1   0.0000
     8 C8      -6.2523  -8.2572  -4.1158   C.3       1 RES1   0.0000
     9 C9      -5.4996  -9.5635  -3.8524   C.3       1 RES1   0.0000
    10 C10     -4.5667  -9.9337  -5.0103   C.3       1 RES1   0.0000
    11 C11     -5.2646 -10.5989  -6.2134   C.3       1 RES1   0.0000
    12 C12     -4.3198 -11.7016  -6.6733   C.3       1 RES1   0.0000
    13 N13     -3.4617 -11.9004  -5.5208   N.am      1 RES1   0.0000
    14 C14     -3.5128 -10.9306  -4.6043   C.2       1 RES1   0.0000
    15 O15     -2.8462 -10.8863  -3.5942   O.2       1 RES1   0.0000
    16 N16     -7.0815  -7.8189  -3.0012   N.am      1 RES1   0.0000
    17 C17     -7.0951  -6.5692  -2.5091   C.2       1 RES1   0.0000
    18 O18     -6.4001  -5.6503  -2.9066   O.2       1 RES1   0.0000
    19 C19     -8.0420  -6.3307  -1.3737   C.3       1 RES1   0.0000
    20 C20     -7.3041  -6.8646  -0.1445   C.3       1 RES1   0.0000
    21 C21     -7.9454  -6.6066   1.2049   C.2       1 RES1   0.0000
    22 C22     -7.6714  -5.4646   1.9569   C.2       1 RES1   0.0000
    23 C23     -8.2784  -5.2834   3.1998   C.2       1 RES1   0.0000
    24 C24     -9.1608  -6.2352   3.6976   C.2       1 RES1   0.0000
    25 C25     -9.4325  -7.3786   2.9554   C.2       1 RES1   0.0000
    26 C26     -8.8221  -7.5661   1.7219   C.2       1 RES1   0.0000
    27 N27     -9.3581  -6.9479  -1.5146   N.am      1 RES1   0.0000
    28 C28    -10.4740  -6.6201  -0.8646   C.2       1 RES1   0.0000
    29 O29    -10.5079  -5.7021  -0.0345   O.2       1 RES1   0.0000
    30 C30    -11.6380  -7.4563  -1.3000   C.2       1 RES1   0.0000
    31 O31    -11.4033  -8.3152  -2.1313   O.2       1 RES1   0.0000
    32 N32    -12.9155  -7.4349  -0.9392   N.am      1 RES1   0.0000
    33 C33    -13.9870  -8.2686  -1.3984   C.3       1 RES1   0.0000
    34 C34    -13.9124  -9.5968  -0.6682   C.3       1 RES1   0.0000
    35 C35    -15.1812 -10.5521  -0.7601   C.3       1 RES1   0.0000
    36 C36    -15.3696 -10.4250   0.7354   C.3       1 RES1   0.0000
    37 C37    -14.2271  -9.4086   0.8862   C.3       1 RES1   0.0000
@<TRIPOS>BOND
     1     1     2    1
     2     2     3    1
     3     3     4    1
     4     4     5    2
     5     4     6    1
     6     6     7    1
     7     8     7    1
     8     8     9    1
     9    10     9    1
    10    10    11    1
    11    11    12    1
    12    12    13    1
    13    13    14   am
    14    14    15    2
    15     8    16    1
    16    16    17   am
    17    17    18    2
    18    17    19    1
    19    19    20    1
    20    20    21    1
    21    21    22    2
    22    22    23    1
    23    23    24    2
    24    24    25    1
    25    25    26    2
    26    19    27    1
    27    27    28   am
    28    28    29    2
    29    28    30    1
    30    30    31    2
    31    30    32   am
    32    32    33    1
    33    33    34    1
    34    34    35    1
    35    35    36    1
    36    36    37    1
    37    14    10    1
    38    26    21    1
    39    37    34    1
@<TRIPOS>SUBSTRUCTURE
     1 RES1        1 GROUP             0 ****  ****    0  
@<TRIPOS>MOLECULE
ligand_79
    37    39     1     0     0
SMALL
NO_CHARGES
****
Generated from the CSD

@<TRIPOS>ATOM
     1 C1      -7.4127  -1.9613  -6.1106   C.3       1 RES1   0.0000
     2 C2      -6.5343  -3.1891  -6.0300   C.3       1 RES1   0.0000
     3 O3      -7.3422  -4.3462  -5.8297   O.3       1 RES1   0.0000
     4 C4      -6.7436  -5.6592  -5.7176   C.2       1 RES1   0.0000
     5 O5      -5.5257  -5.7441  -5.8000   O.2       1 RES1   0.0000
     6 C6      -7.6689  -6.8365  -5.5171   C.3       1 RES1   0.0000
     7 C7      -7.0409  -8.2232  -5.4104   C.3       1 RES1   0.0000
     8 C8      -8.2059  -9.2279  -5.2248   C.3       1 RES1   0.0000
     9 C9      -8.8288  -9.1058  -3.8321   C.3       1 RES1   0.0000
    10 C10     -9.9805 -10.0956  -3.6279   C.3       1 RES1   0.0000
    11 C11    -11.2589  -9.7713  -4.4263   C.3       1 RES1   0.0000
    12 C12    -12.4157 -10.0714  -3.4819   C.3       1 RES1   0.0000
    13 N13    -11.7818 -10.0747  -2.1772   N.am      1 RES1   0.0000
    14 C14    -10.4485 -10.1471  -2.1970   C.2       1 RES1   0.0000
    15 O15     -9.7360 -10.2045  -1.2194   O.2       1 RES1   0.0000
    16 N16     -7.7234 -10.5657  -5.5402   N.am      1 RES1   0.0000
    17 C17     -7.8892 -11.1737  -6.7263   C.2       1 RES1   0.0000
    18 O18     -8.4606 -10.6916  -7.6888   O.2       1 RES1   0.0000
    19 C19     -7.3259 -12.5575  -6.8289   C.3       1 RES1   0.0000
    20 C20     -6.1475 -12.4176  -7.7945   C.3       1 RES1   0.0000
    21 C21     -5.2590 -13.6333  -7.9713   C.2       1 RES1   0.0000
    22 C22     -4.1390 -13.8635  -7.1729   C.2       1 RES1   0.0000
    23 C23     -3.3468 -14.9915  -7.3877   C.2       1 RES1   0.0000
    24 C24     -3.6667 -15.8948  -8.3947   C.2       1 RES1   0.0000
    25 C25     -4.7781 -15.6671  -9.1979   C.2       1 RES1   0.0000
    26 C26     -5.5630 -14.5396  -8.9925   C.2       1 RES1   0.0000
    27 N27     -8.2627 -13.5843  -7.2772   N.am      1 RES1   0.0000
    28 C28     -8.1490 -14.9020  -7.1170   C.2       1 RES1   0.0000
    29 O29     -7.1848 -15.4144  -6.5332   O.2       1 RES1   0.0000
    30 C30     -9.3275 -15.6352  -7.6802   C.2       1 RES1   0.0000
    31 O31    -10.1787 -14.9520  -8.2211   O.2       1 RES1   0.0000
    32 N32     -9.6270 -16.9285  -7.6997   N.am      1 RES1   0.0000
    33 C33    -10.7807 -17.5694  -8.2584   C.3       1 RES1   0.0000
    34 C34    -10.5816 -17.7010  -9.7571   C.3       1 RES1   0.0000
    35 C35    -11.5672 -18.6729 -10.5414   C.3       1 RES1   0.0000
    36 C36    -10.3894 -19.5453 -10.9150   C.3       1 RES1   0.0000
    37 C37     -9.3951 -18.7184 -10.0851   C.3       1 RES1   0.0000
@<TRIPOS>BOND
     1     1     2    1
     2     2     3    1
     3     3     4    1
     4     4     5    2
     5     4     6    1
     6     6     7    1
     7     8     7    1
     8     8     9    1
     9    10     9    1
    10    10    11    1
    11    11    12    1
    12    12    13    1
    13    13    14   am
    14    14    15    2
    15     8    16    1
    16    16    17   am
    17    17    18    2
    18    17    19    1
    19    19    20    1
    20    20    21    1
    21    21    22    2
    22    22    23    1
    23    23    24    2
    24    24    25    1
    25    25    26    2
    26    19    27    1
    27    27    28   am
    28    28    29    2
    29    28    30    1
    30    30    31    2
    31    30    32   am
    32    32    33    1
    33    33    34    1
    34    34    35    1
    35    35    36    1
    36    36    37    1
    37    14    10    1
    38    26    21    1
    39    37    34    1
@<TRIPOS>SUBSTRUCTURE
     1 RES1        1 GROUP             0 ****  ****    0  
@<TRIPOS>MOLECULE
ligand_80
    37    39     1     0     0
SMALL
NO_CHARGES
****
Generated from the CSD

@<TRIPOS>ATOM
     1 C1      -7.4384  -1.8842  -5.4803   C.3       1 RES1   0.0000
     2 C2      -6.5501  -3.1076  -5.4764   C.3       1 RES1   0.0000
     3 O3      -7.3525  -4.2845  -5.4267   O.3       1 RES1   0.0000
     4 C4      -6.7442  -5.5977  -5.4130   C.2       1 RES1   0.0000
     5 O5      -5.5229  -5.6653  -5.4453   O.2       1 RES1   0.0000
     6 C6      -7.6638  -6.7957  -5.3707   C.3       1 RES1   0.0000
     7 C7      -7.0249  -8.1815  -5.3681   C.3       1 RES1   0.0000
     8 C8      -8.1785  -9.2047  -5.2161   C.3       1 RES1   0.0000
     9 C9      -9.2244  -9.0314  -6.3201   C.3       1 RES1   0.0000
    10 C10    -10.3168 -10.1038  -6.2516   C.3       1 RES1   0.0000
    11 C11     -9.8615 -11.5158  -6.6709   C.3       1 RES1   0.0000
    12 C12    -11.0152 -12.0915  -7.4817   C.3       1 RES1   0.0000
    13 N13    -11.7743 -10.9130  -7.8548   N.am      1 RES1   0.0000
    14 C14    -11.4734  -9.8069  -7.1698   C.2       1 RES1   0.0000
    15 O15    -12.0190  -8.7334  -7.2990   O.2       1 RES1   0.0000
    16 N16     -8.7206  -9.1004  -3.8681   N.am      1 RES1   0.0000
    17 C17     -8.3717  -9.8972  -2.8446   C.2       1 RES1   0.0000
    18 O18     -7.5846 -10.8252  -2.9137   O.2       1 RES1   0.0000
    19 C19     -9.0349  -9.5978  -1.5357   C.3       1 RES1   0.0000
    20 C20    -10.4066 -10.2668  -1.6428   C.3       1 RES1   0.0000
    21 C21    -10.4216 -11.7659  -1.8692   C.2       1 RES1   0.0000
    22 C22    -10.4289 -12.3295  -3.1449   C.2       1 RES1   0.0000
    23 C23    -10.4574 -13.7159  -3.2967   C.2       1 RES1   0.0000
    24 C24    -10.4763 -14.5459  -2.1818   C.2       1 RES1   0.0000
    25 C25    -10.4760 -13.9896  -0.9079   C.2       1 RES1   0.0000
    26 C26    -10.4574 -12.6093  -0.7539   C.2       1 RES1   0.0000
    27 N27     -9.1580  -8.1807  -1.2047   N.am      1 RES1   0.0000
    28 C28     -9.3820  -7.6521  -0.0024   C.2       1 RES1   0.0000
    29 O29     -9.5154  -8.3512   1.0107   O.2       1 RES1   0.0000
    30 C30     -9.4014  -6.1550  -0.0473   C.2       1 RES1   0.0000
    31 O31     -9.2525  -5.6470  -1.1443   O.2       1 RES1   0.0000
    32 N32     -9.5541  -5.2518   0.9137   N.am      1 RES1   0.0000
    33 C33     -9.5619  -3.8230   0.8030   C.3       1 RES1   0.0000
    34 C34    -10.9311  -3.3837   0.3181   C.3       1 RES1   0.0000
    35 C35    -11.2869  -1.8378   0.4396   C.3       1 RES1   0.0000
    36 C36    -12.4021  -2.1829   1.4014   C.3       1 RES1   0.0000
    37 C37    -12.0460  -3.6775   1.4232   C.3       1 RES1   0.0000
@<TRIPOS>BOND
     1     1     2    1
     2     2     3    1
     3     3     4    1
     4     4     5    2
     5     4     6    1
     6     6     7    1
     7     8     7    1
     8     8     9    1
     9    10     9    1
    10    10    11    1
    11    11    12    1
    12    12    13    1
    13    13    14   am
    14    14    15    2
    15     8    16    1
    16    16    17   am
    17    17    18    2
    18    17    19    1
    19    19    20    1
    20    20    21    1
    21    21    22    2
    22    22    23    1
    23    23    24    2
    24    24    25    1
    25    25    26    2
    26    19    27    1
    27    27    28   am
    28    28    29    2
    29    28    30    1
    30    30    31    2
    31    30    32   am
    32    32    33    1
    33    33    34    1
    34    34    35    1
    35    35    36    1
    36    36    37    1
    37    14    10    1
    38    26    21    1
    39    37    34    1
@<TRIPOS>SUBSTRUCTURE
     1 RES1        1 GROUP             0 ****  ****    0  
@<TRIPOS>MOLECULE
ligand_81
    37    39     1     0     0
SMALL
NO_CHARGES
****
Generated from the CSD

@<TRIPOS>ATOM
     1 C1      -7.3896  -1.9345  -5.8236   C.3       1 RES1   0.0000
     2 C2      -6.5153  -3.1676  -5.7939   C.3       1 RES1   0.0000
     3 O3      -7.3279  -4.3301  -5.6525   O.3       1 RES1   0.0000
     4 C4      -6.7340  -5.6487  -5.5971   C.2       1 RES1   0.0000
     5 O5      -5.5158  -5.7337  -5.6752   O.2       1 RES1   0.0000
     6 C6      -7.6641  -6.8310  -5.4572   C.3       1 RES1   0.0000
     7 C7      -7.0409  -8.2232  -5.4104   C.3       1 RES1   0.0000
     8 C8      -8.2059  -9.2279  -5.2248   C.3       1 RES1   0.0000
     9 C9      -7.6963 -10.6708  -5.1954   C.3       1 RES1   0.0000
    10 C10     -8.8341 -11.6793  -5.0051   C.3       1 RES1   0.0000
    11 C11     -9.4649 -11.6821  -3.5982   C.3       1 RES1   0.0000
    12 C12     -9.7115 -13.1479  -3.2657   C.3       1 RES1   0.0000
    13 N13     -8.8439 -13.8458  -4.1953   N.am      1 RES1   0.0000
    14 C14     -8.3814 -13.1023  -5.2036   C.2       1 RES1   0.0000
    15 O15     -7.6802 -13.5042  -6.1055   O.2       1 RES1   0.0000
    16 N16     -9.2073  -8.9766  -6.2524   N.am      1 RES1   0.0000
    17 C17     -8.9807  -9.0676  -7.5732   C.2       1 RES1   0.0000
    18 O18     -7.9162  -9.3700  -8.0839   O.2       1 RES1   0.0000
    19 C19    -10.1497  -8.7509  -8.4540   C.3       1 RES1   0.0000
    20 C20    -10.1594  -7.2234  -8.5384   C.3       1 RES1   0.0000
    21 C21    -11.1421  -6.5973  -9.5084   C.2       1 RES1   0.0000
    22 C22    -10.8140  -6.3304 -10.8373   C.2       1 RES1   0.0000
    23 C23    -11.7521  -5.7395 -11.6841   C.2       1 RES1   0.0000
    24 C24    -13.0190  -5.4145 -11.2134   C.2       1 RES1   0.0000
    25 C25    -13.3493  -5.6721  -9.8881   C.2       1 RES1   0.0000
    26 C26    -12.4140  -6.2515  -9.0402   C.2       1 RES1   0.0000
    27 N27    -11.4372  -9.2672  -7.9972   N.am      1 RES1   0.0000
    28 C28    -11.8789 -10.5209  -8.0876   C.2       1 RES1   0.0000
    29 O29    -11.2018 -11.4233  -8.5975   O.2       1 RES1   0.0000
    30 C30    -13.2336 -10.6799  -7.4685   C.2       1 RES1   0.0000
    31 O31    -13.7419  -9.6689  -7.0177   O.2       1 RES1   0.0000
    32 N32    -14.0061 -11.7485  -7.3140   N.am      1 RES1   0.0000
    33 C33    -15.3016 -11.8334  -6.7071   C.3       1 RES1   0.0000
    34 C34    -16.3370 -11.3610  -7.7110   C.3       1 RES1   0.0000
    35 C35    -17.8625 -11.6785  -7.3900   C.3       1 RES1   0.0000
    36 C36    -17.9311 -12.5410  -8.6307   C.3       1 RES1   0.0000
    37 C37    -16.4360 -12.3724  -8.9430   C.3       1 RES1   0.0000
@<TRIPOS>BOND
     1     1     2    1
     2     2     3    1
     3     3     4    1
     4     4     5    2
     5     4     6    1
     6     6     7    1
     7     8     7    1
     8     8     9    1
     9    10     9    1
    10    10    11    1
    11    11    12    1
    12    12    13    1
    13    13    14   am
    14    14    15    2
    15     8    16    1
    16    16    17   am
    17    17    18    2
    18    17    19    1
    19    19    20    1
    20    20    21    1
    21    21    22    2
    22    22    23    1
    23    23    24    2
    24    24    25    1
    25    25    26    2
    26    19    27    1
    27    27    28   am
    28    28    29    2
    29    28    30    1
    30    30    31    2
    31    30    32   am
    32    32    33    1
    33    33    34    1
    34    34    35    1
    35    35    36    1
    36    36    37    1
    37    14    10    1
    38    26    21    1
    39    37    34    1
@<TRIPOS>SUBSTRUCTURE
     1 RES1        1 GROUP             0 ****  ****    0  
@<TRIPOS>MOLECULE
ligand_82
    37    39     1     0     0
SMALL
NO_CHARGES
****
Generated from the CSD

@<TRIPOS>ATOM
     1 C1      -7.5301  -2.1307  -6.4119   C.3       1 RES1   0.0000
     2 C2      -6.6352  -3.3425  -6.2835   C.3       1 RES1   0.0000
     3 O3      -7.4253  -4.4975  -6.0127   O.3       1 RES1   0.0000
     4 C4      -6.8086  -5.7959  -5.8443   C.2       1 RES1   0.0000
     5 O5      -5.5910  -5.8705  -5.9414   O.2       1 RES1   0.0000
     6 C6      -7.7158  -6.9726  -5.5704   C.3       1 RES1   0.0000
     7 C7      -7.0674  -8.3418  -5.3878   C.3       1 RES1   0.0000
     8 C8      -6.2240  -8.2670  -4.0901   C.3       1 RES1   0.0000
     9 C9      -5.5115  -9.5929  -3.8129   C.3       1 RES1   0.0000
    10 C10     -4.6658  -9.5359  -2.5363   C.3       1 RES1   0.0000
    11 C11     -3.3962  -8.6676  -2.6420   C.3       1 RES1   0.0000
    12 C12     -2.3133  -9.4377  -1.8976   C.3       1 RES1   0.0000
    13 N13     -2.8467 -10.7856  -1.8447   N.am      1 RES1   0.0000
    14 C14     -4.1474 -10.8901  -2.1283   C.2       1 RES1   0.0000
    15 O15     -4.7901 -11.9161  -2.0986   O.2       1 RES1   0.0000
    16 N16     -7.0815  -7.8189  -3.0012   N.am      1 RES1   0.0000
    17 C17     -7.0951  -6.5692  -2.5091   C.2       1 RES1   0.0000
    18 O18     -6.4001  -5.6503  -2.9066   O.2       1 RES1   0.0000
    19 C19     -8.0420  -6.3307  -1.3737   C.3       1 RES1   0.0000
    20 C20     -7.4202  -5.1679  -0.5979   C.3       1 RES1   0.0000
    21 C21     -8.2144  -4.6237   0.5734   C.2       1 RES1   0.0000
    22 C22     -9.1406  -3.5905   0.4333   C.2       1 RES1   0.0000
    23 C23     -9.8343  -3.1174   1.5473   C.2       1 RES1   0.0000
    24 C24     -9.6112  -3.6710   2.8027   C.2       1 RES1   0.0000
    25 C25     -8.6843  -4.6964   2.9495   C.2       1 RES1   0.0000
    26 C26     -7.9852  -5.1628   1.8436   C.2       1 RES1   0.0000
    27 N27     -8.2837  -7.4807  -0.5065   N.am      1 RES1   0.0000
    28 C28     -9.1250  -8.4904  -0.7254   C.2       1 RES1   0.0000
    29 O29     -9.8247  -8.5563  -1.7447   O.2       1 RES1   0.0000
    30 C30     -9.0679  -9.5101   0.3703   C.2       1 RES1   0.0000
    31 O31     -8.3146  -9.2650   1.2956   O.2       1 RES1   0.0000
    32 N32     -9.7031 -10.6656   0.5255   N.am      1 RES1   0.0000
    33 C33     -9.6018 -11.6020   1.6056   C.3       1 RES1   0.0000
    34 C34    -10.4505 -11.1015   2.7598   C.3       1 RES1   0.0000
    35 C35    -10.7635 -12.1282   3.9342   C.3       1 RES1   0.0000
    36 C36    -12.2363 -12.0409   3.6009   C.3       1 RES1   0.0000
    37 C37    -12.0015 -11.1366   2.3810   C.3       1 RES1   0.0000
@<TRIPOS>BOND
     1     1     2    1
     2     2     3    1
     3     3     4    1
     4     4     5    2
     5     4     6    1
     6     6     7    1
     7     8     7    1
     8     8     9    1
     9    10     9    1
    10    10    11    1
    11    11    12    1
    12    12    13    1
    13    13    14   am
    14    14    15    2
    15     8    16    1
    16    16    17   am
    17    17    18    2
    18    17    19    1
    19    19    20    1
    20    20    21    1
    21    21    22    2
    22    22    23    1
    23    23    24    2
    24    24    25    1
    25    25    26    2
    26    19    27    1
    27    27    28   am
    28    28    29    2
    29    28    30    1
    30    30    31    2
    31    30    32   am
    32    32    33    1
    33    33    34    1
    34    34    35    1
    35    35    36    1
    36    36    37    1
    37    14    10    1
    38    26    21    1
    39    37    34    1
@<TRIPOS>SUBSTRUCTURE
     1 RES1        1 GROUP             0 ****  ****    0  
@<TRIPOS>MOLECULE
ligand_83
    37    39     1     0     0
SMALL
NO_CHARGES
****
Generated from the CSD

@<TRIPOS>ATOM
     1 C1      -8.1720  -1.9603  -4.5734   C.3       1 RES1   0.0000
     2 C2      -7.1683  -3.0782  -4.7424   C.3       1 RES1   0.0000
     3 O3      -7.8488  -4.3282  -4.8197   O.3       1 RES1   0.0000
     4 C4      -7.1143  -5.5645  -4.9833   C.2       1 RES1   0.0000
     5 O5      -5.8942  -5.5027  -5.0530   O.2       1 RES1   0.0000
     6 C6      -7.9095  -6.8463  -5.0676   C.3       1 RES1   0.0000
     7 C7      -7.1378  -8.1500  -5.2507   C.3       1 RES1   0.0000
     8 C8      -8.1858  -9.2913  -5.2628   C.3       1 RES1   0.0000
     9 C9      -7.5210 -10.6543  -5.4697   C.3       1 RES1   0.0000
    10 C10     -8.5272 -11.8059  -5.3729   C.3       1 RES1   0.0000
    11 C11     -9.0635 -12.0762  -3.9529   C.3       1 RES1   0.0000
    12 C12     -9.1264 -13.5925  -3.8233   C.3       1 RES1   0.0000
    13 N13     -8.2481 -14.0492  -4.8836   N.am      1 RES1   0.0000
    14 C14     -7.9346 -13.1250  -5.7951   C.2       1 RES1   0.0000
    15 O15     -7.2522 -13.3140  -6.7775   O.2       1 RES1   0.0000
    16 N16     -9.2073  -8.9766  -6.2524   N.am      1 RES1   0.0000
    17 C17    -10.4771  -9.4113  -6.1990   C.2       1 RES1   0.0000
    18 O18    -10.9569 -10.0683  -5.2915   O.2       1 RES1   0.0000
    19 C19    -11.3345  -9.0516  -7.3729   C.3       1 RES1   0.0000
    20 C20    -12.3579  -8.0647  -6.8081   C.3       1 RES1   0.0000
    21 C21    -11.8124  -6.7993  -6.1757   C.2       1 RES1   0.0000
    22 C22    -11.4930  -6.7182  -4.8206   C.2       1 RES1   0.0000
    23 C23    -11.0076  -5.5243  -4.2867   C.2       1 RES1   0.0000
    24 C24    -10.8360  -4.4088  -5.0982   C.2       1 RES1   0.0000
    25 C25    -11.1590  -4.4818  -6.4482   C.2       1 RES1   0.0000
    26 C26    -11.6517  -5.6665  -6.9803   C.2       1 RES1   0.0000
    27 N27    -11.9890 -10.1746  -8.0389   N.am      1 RES1   0.0000
    28 C28    -11.4335 -11.0451  -8.8809   C.2       1 RES1   0.0000
    29 O29    -10.2387 -10.9835  -9.1995   O.2       1 RES1   0.0000
    30 C30    -12.4109 -12.0883  -9.3281   C.2       1 RES1   0.0000
    31 O31    -13.5477 -11.9783  -8.9047   O.2       1 RES1   0.0000
    32 N32    -12.2650 -13.1421 -10.1225   N.am      1 RES1   0.0000
    33 C33    -13.2483 -14.1091 -10.5124   C.3       1 RES1   0.0000
    34 C34    -14.0912 -13.5180 -11.6273   C.3       1 RES1   0.0000
    35 C35    -15.0202 -14.5160 -12.4471   C.3       1 RES1   0.0000
    36 C36    -14.2276 -14.2065 -13.6977   C.3       1 RES1   0.0000
    37 C37    -13.2212 -13.3170 -12.9514   C.3       1 RES1   0.0000
@<TRIPOS>BOND
     1     1     2    1
     2     2     3    1
     3     3     4    1
     4     4     5    2
     5     4     6    1
     6     6     7    1
     7     8     7    1
     8     8     9    1
     9    10     9    1
    10    10    11    1
    11    11    12    1
    12    12    13    1
    13    13    14   am
    14    14    15    2
    15     8    16    1
    16    16    17   am
    17    17    18    2
    18    17    19    1
    19    19    20    1
    20    20    21    1
    21    21    22    2
    22    22    23    1
    23    23    24    2
    24    24    25    1
    25    25    26    2
    26    19    27    1
    27    27    28   am
    28    28    29    2
    29    28    30    1
    30    30    31    2
    31    30    32   am
    32    32    33    1
    33    33    34    1
    34    34    35    1
    35    35    36    1
    36    36    37    1
    37    14    10    1
    38    26    21    1
    39    37    34    1
@<TRIPOS>SUBSTRUCTURE
     1 RES1        1 GROUP             0 ****  ****    0  
@<TRIPOS>MOLECULE
ligand_84
    37    39     1     0     0
SMALL
NO_CHARGES
****
Generated from the CSD

@<TRIPOS>ATOM
     1 C1      -5.9654  -1.8055  -5.5614   C.3       1 RES1   0.0000
     2 C2      -5.3618  -3.1915  -5.5417   C.3       1 RES1   0.0000
     3 O3      -6.3997  -4.1677  -5.5057   O.3       1 RES1   0.0000
     4 C4      -6.0890  -5.5811  -5.4811   C.2       1 RES1   0.0000
     5 O5      -4.9106  -5.9104  -5.4920   O.2       1 RES1   0.0000
     6 C6      -7.2457  -6.5527  -5.4544   C.3       1 RES1   0.0000
     7 C7      -6.9205  -8.0434  -5.4288   C.3       1 RES1   0.0000
     8 C8      -6.2320  -8.3269  -4.0699   C.3       1 RES1   0.0000
     9 C9      -5.8739  -9.8080  -3.9264   C.3       1 RES1   0.0000
    10 C10     -5.0953 -10.0895  -2.6370   C.3       1 RES1   0.0000
    11 C11     -3.6505  -9.5515  -2.6256   C.3       1 RES1   0.0000
    12 C12     -2.8182 -10.6345  -1.9515   C.3       1 RES1   0.0000
    13 N13     -3.6624 -11.8094  -2.0552   N.am      1 RES1   0.0000
    14 C14     -4.9366 -11.5637  -2.3706   C.2       1 RES1   0.0000
    15 O15     -5.8082 -12.3992  -2.4642   O.2       1 RES1   0.0000
    16 N16     -7.0815  -7.8189  -3.0012   N.am      1 RES1   0.0000
    17 C17     -6.6329  -7.4085  -1.8035   C.2       1 RES1   0.0000
    18 O18     -5.4611  -7.3558  -1.4729   O.2       1 RES1   0.0000
    19 C19     -7.6881  -7.0061  -0.8200   C.3       1 RES1   0.0000
    20 C20     -8.1660  -8.3268  -0.2134   C.3       1 RES1   0.0000
    21 C21     -9.1306  -8.2354   0.9528   C.2       1 RES1   0.0000
    22 C22     -8.6987  -8.1745   2.2774   C.2       1 RES1   0.0000
    23 C23     -9.6298  -8.1059   3.3141   C.2       1 RES1   0.0000
    24 C24    -10.9919  -8.0953   3.0372   C.2       1 RES1   0.0000
    25 C25    -11.4282  -8.1626   1.7192   C.2       1 RES1   0.0000
    26 C26    -10.5036  -8.2408   0.6856   C.2       1 RES1   0.0000
    27 N27     -8.8019  -6.2405  -1.3734   N.am      1 RES1   0.0000
    28 C28     -8.8054  -4.9496  -1.7030   C.2       1 RES1   0.0000
    29 O29     -7.8067  -4.2310  -1.5643   O.2       1 RES1   0.0000
    30 C30    -10.1203  -4.5265  -2.2825   C.2       1 RES1   0.0000
    31 O31    -10.9860  -5.3818  -2.3353   O.2       1 RES1   0.0000
    32 N32    -10.5303  -3.3592  -2.7642   N.am      1 RES1   0.0000
    33 C33    -11.8113  -3.0185  -3.3091   C.3       1 RES1   0.0000
    34 C34    -12.7712  -2.7624  -2.1620   C.3       1 RES1   0.0000
    35 C35    -14.1491  -2.0470  -2.5096   C.3       1 RES1   0.0000
    36 C36    -13.7458  -0.8761  -1.6410   C.3       1 RES1   0.0000
    37 C37    -12.3509  -1.4520  -1.3517   C.3       1 RES1   0.0000
@<TRIPOS>BOND
     1     1     2    1
     2     2     3    1
     3     3     4    1
     4     4     5    2
     5     4     6    1
     6     6     7    1
     7     8     7    1
     8     8     9    1
     9    10     9    1
    10    10    11    1
    11    11    12    1
    12    12    13    1
    13    13    14   am
    14    14    15    2
    15     8    16    1
    16    16    17   am
    17    17    18    2
    18    17    19    1
    19    19    20    1
    20    20    21    1
    21    21    22    2
    22    22    23    1
    23    23    24    2
    24    24    25    1
    25    25    26    2
    26    19    27    1
    27    27    28   am
    28    28    29    2
    29    28    30    1
    30    30    31    2
    31    30    32   am
    32    32    33    1
    33    33    34    1
    34    34    35    1
    35    35    36    1
    36    36    37    1
    37    14    10    1
    38    26    21    1
    39    37    34    1
@<TRIPOS>SUBSTRUCTURE
     1 RES1        1 GROUP             0 ****  ****    0  
@<TRIPOS>MOLECULE
ligand_85
    37    39     1     0     0
SMALL
NO_CHARGES
****
Generated from the CSD

@<TRIPOS>ATOM
     1 C1      -7.3657  -1.9218  -5.5743   C.3       1 RES1   0.0000
     2 C2      -6.4952  -3.1579  -5.5744   C.3       1 RES1   0.0000
     3 O3      -7.3134  -4.3225  -5.4998   O.3       1 RES1   0.0000
     4 C4      -6.7239  -5.6443  -5.4844   C.2       1 RES1   0.0000
     5 O5      -5.5044  -5.7299  -5.5373   O.2       1 RES1   0.0000
     6 C6      -7.6597  -6.8283  -5.4149   C.3       1 RES1   0.0000
     7 C7      -7.0409  -8.2232  -5.4104   C.3       1 RES1   0.0000
     8 C8      -8.2059  -9.2279  -5.2248   C.3       1 RES1   0.0000
     9 C9      -9.2700  -9.0520  -6.3107   C.3       1 RES1   0.0000
    10 C10    -10.3853 -10.0968  -6.1982   C.3       1 RES1   0.0000
    11 C11     -9.9680 -11.5298  -6.5851   C.3       1 RES1   0.0000
    12 C12    -11.1459 -12.1004  -7.3641   C.3       1 RES1   0.0000
    13 N13    -11.8832 -10.9152  -7.7589   N.am      1 RES1   0.0000
    14 C14    -11.5478  -9.7982  -7.1085   C.2       1 RES1   0.0000
    15 O15    -12.0707  -8.7164  -7.2596   O.2       1 RES1   0.0000
    16 N16     -8.7206  -9.1004  -3.8681   N.am      1 RES1   0.0000
    17 C17     -8.3717  -9.8972  -2.8446   C.2       1 RES1   0.0000
    18 O18     -7.5846 -10.8252  -2.9137   O.2       1 RES1   0.0000
    19 C19     -9.0349  -9.5978  -1.5357   C.3       1 RES1   0.0000
    20 C20     -8.2302  -8.4312  -0.9597   C.3       1 RES1   0.0000
    21 C21     -8.7683  -7.7849   0.3018   C.2       1 RES1   0.0000
    22 C22     -9.6591  -6.7123   0.2710   C.2       1 RES1   0.0000
    23 C23    -10.1123  -6.1451   1.4623   C.2       1 RES1   0.0000
    24 C24     -9.6835  -6.6437   2.6870   C.2       1 RES1   0.0000
    25 C25     -8.7904  -7.7082   2.7237   C.2       1 RES1   0.0000
    26 C26     -8.3301  -8.2685   1.5390   C.2       1 RES1   0.0000
    27 N27     -9.1011 -10.7143  -0.5965   N.am      1 RES1   0.0000
    28 C28     -9.9410 -11.7479  -0.6336   C.2       1 RES1   0.0000
    29 O29    -10.7972 -11.8702  -1.5196   O.2       1 RES1   0.0000
    30 C30     -9.6783 -12.7189   0.4763   C.2       1 RES1   0.0000
    31 O31     -8.7893 -12.4206   1.2538   O.2       1 RES1   0.0000
    32 N32    -10.2496 -13.8784   0.7793   N.am      1 RES1   0.0000
    33 C33     -9.9479 -14.7660   1.8633   C.3       1 RES1   0.0000
    34 C34    -10.6073 -14.2328   3.1218   C.3       1 RES1   0.0000
    35 C35    -10.6964 -15.2143   4.3707   C.3       1 RES1   0.0000
    36 C36    -12.2058 -15.1688   4.2829   C.3       1 RES1   0.0000
    37 C37    -12.1982 -14.3129   3.0068   C.3       1 RES1   0.0000
@<TRIPOS>BOND
     1     1     2    1
     2     2     3    1
     3     3     4    1
     4     4     5    2
     5     4     6    1
     6     6     7    1
     7     8     7    1
     8     8     9    1
     9    10     9    1
    10    10    11    1
    11    11    12    1
    12    12    13    1
    13    13    14   am
    14    14    15    2
    15     8    16    1
    16    16    17   am
    17    17    18    2
    18    17    19    1
    19    19    20    1
    20    20    21    1
    21    21    22    2
    22    22    23    1
    23    23    24    2
    24    24    25    1
    25    25    26    2
    26    19    27    1
    27    27    28   am
    28    28    29    2
    29    28    30    1
    30    30    31    2
    31    30    32   am
    32    32    33    1
    33    33    34    1
    34    34    35    1
    35    35    36    1
    36    36    37    1
    37    14    10    1
    38    26    21    1
    39    37    34    1
@<TRIPOS>SUBSTRUCTURE
     1 RES1        1 GROUP             0 ****  ****    0  
@<TRIPOS>MOLECULE
ligand_86
    37    39     1     0     0
SMALL
NO_CHARGES
****
Generated from the CSD

@<TRIPOS>ATOM
     1 C1      -7.3492  -1.9372  -5.7906   C.3       1 RES1   0.0000
     2 C2      -6.4801  -3.1726  -5.7250   C.3       1 RES1   0.0000
     3 O3      -7.3013  -4.3341  -5.6347   O.3       1 RES1   0.0000
     4 C4      -6.7137  -5.6546  -5.5586   C.2       1 RES1   0.0000
     5 O5      -5.4932  -5.7419  -5.5742   O.2       1 RES1   0.0000
     6 C6      -7.6521  -6.8357  -5.4760   C.3       1 RES1   0.0000
     7 C7      -7.0349  -8.2296  -5.4076   C.3       1 RES1   0.0000
     8 C8      -8.2059  -9.2279  -5.2248   C.3       1 RES1   0.0000
     9 C9      -9.2684  -9.0434  -6.3109   C.3       1 RES1   0.0000
    10 C10    -10.3833 -10.0896  -6.2090   C.3       1 RES1   0.0000
    11 C11     -9.9648 -11.5190  -6.6072   C.3       1 RES1   0.0000
    12 C12    -11.1411 -12.0836  -7.3929   C.3       1 RES1   0.0000
    13 N13    -11.8784 -10.8955  -7.7789   N.am      1 RES1   0.0000
    14 C14    -11.5445  -9.7839  -7.1186   C.2       1 RES1   0.0000
    15 O15    -12.0677  -8.7010  -7.2614   O.2       1 RES1   0.0000
    16 N16     -8.7206  -9.1004  -3.8681   N.am      1 RES1   0.0000
    17 C17     -8.9604 -10.1349  -3.0456   C.2       1 RES1   0.0000
    18 O18     -8.7809 -11.3082  -3.3221   O.2       1 RES1   0.0000
    19 C19     -9.5040  -9.7772  -1.6968   C.3       1 RES1   0.0000
    20 C20     -8.3663 -10.1071  -0.7286   C.3       1 RES1   0.0000
    21 C21     -8.5556  -9.6920   0.7172   C.2       1 RES1   0.0000
    22 C22     -8.1490  -8.4473   1.1973   C.2       1 RES1   0.0000
    23 C23     -8.3340  -8.1216   2.5411   C.2       1 RES1   0.0000
    24 C24     -8.9254  -9.0305   3.4107   C.2       1 RES1   0.0000
    25 C25     -9.3265 -10.2752   2.9393   C.2       1 RES1   0.0000
    26 C26     -9.1347 -10.6058   1.6039   C.2       1 RES1   0.0000
    27 N27    -10.7396 -10.4576  -1.3182   N.am      1 RES1   0.0000
    28 C28    -11.9723 -10.1807  -1.7409   C.2       1 RES1   0.0000
    29 O29    -12.2045  -9.2663  -2.5428   O.2       1 RES1   0.0000
    30 C30    -12.9833 -11.1245  -1.1658   C.2       1 RES1   0.0000
    31 O31    -12.5585 -11.9612  -0.3891   O.2       1 RES1   0.0000
    32 N32    -14.2944 -11.2229  -1.3504   N.am      1 RES1   0.0000
    33 C33    -15.2108 -12.1567  -0.7656   C.3       1 RES1   0.0000
    34 C34    -15.5503 -11.6863   0.6367   C.3       1 RES1   0.0000
    35 C35    -16.7956 -12.3691   1.3538   C.3       1 RES1   0.0000
    36 C36    -17.4974 -11.0294   1.3829   C.3       1 RES1   0.0000
    37 C37    -16.3838 -10.3248   0.5927   C.3       1 RES1   0.0000
@<TRIPOS>BOND
     1     1     2    1
     2     2     3    1
     3     3     4    1
     4     4     5    2
     5     4     6    1
     6     6     7    1
     7     8     7    1
     8     8     9    1
     9    10     9    1
    10    10    11    1
    11    11    12    1
    12    12    13    1
    13    13    14   am
    14    14    15    2
    15     8    16    1
    16    16    17   am
    17    17    18    2
    18    17    19    1
    19    19    20    1
    20    20    21    1
    21    21    22    2
    22    22    23    1
    23    23    24    2
    24    24    25    1
    25    25    26    2
    26    19    27    1
    27    27    28   am
    28    28    29    2
    29    28    30    1
    30    30    31    2
    31    30    32   am
    32    32    33    1
    33    33    34    1
    34    34    35    1
    35    35    36    1
    36    36    37    1
    37    14    10    1
    38    26    21    1
    39    37    34    1
@<TRIPOS>SUBSTRUCTURE
     1 RES1        1 GROUP             0 ****  ****    0  
@<TRIPOS>MOLECULE
ligand_87
    37    39     1     0     0
SMALL
NO_CHARGES
****
Generated from the CSD

@<TRIPOS>ATOM
     1 C1      -8.2233  -1.9473  -4.6093   C.3       1 RES1   0.0000
     2 C2      -7.2118  -3.0601  -4.7644   C.3       1 RES1   0.0000
     3 O3      -7.8843  -4.3146  -4.8390   O.3       1 RES1   0.0000
     4 C4      -7.1413  -5.5475  -4.9900   C.2       1 RES1   0.0000
     5 O5      -5.9211  -5.4788  -5.0513   O.2       1 RES1   0.0000
     6 C6      -7.9283  -6.8345  -5.0723   C.3       1 RES1   0.0000
     7 C7      -7.1476  -8.1345  -5.2434   C.3       1 RES1   0.0000
     8 C8      -8.1887  -9.2820  -5.2569   C.3       1 RES1   0.0000
     9 C9      -7.5149 -10.6417  -5.4563   C.3       1 RES1   0.0000
    10 C10     -8.5151 -11.7988  -5.3639   C.3       1 RES1   0.0000
    11 C11     -9.0575 -12.0710  -3.9466   C.3       1 RES1   0.0000
    12 C12     -9.1127 -13.5875  -3.8162   C.3       1 RES1   0.0000
    13 N13     -8.2263 -14.0402  -4.8715   N.am      1 RES1   0.0000
    14 C14     -7.9131 -13.1149  -5.7820   C.2       1 RES1   0.0000
    15 O15     -7.2244 -13.3008  -6.7606   O.2       1 RES1   0.0000
    16 N16     -9.2073  -8.9766  -6.2524   N.am      1 RES1   0.0000
    17 C17    -10.4771  -9.4113  -6.1990   C.2       1 RES1   0.0000
    18 O18    -10.9569 -10.0683  -5.2915   O.2       1 RES1   0.0000
    19 C19    -11.3345  -9.0516  -7.3729   C.3       1 RES1   0.0000
    20 C20    -12.3381  -8.0406  -6.8152   C.3       1 RES1   0.0000
    21 C21    -13.2466  -7.3540  -7.8161   C.2       1 RES1   0.0000
    22 C22    -12.9012  -6.1556  -8.4403   C.2       1 RES1   0.0000
    23 C23    -13.7811  -5.5585  -9.3433   C.2       1 RES1   0.0000
    24 C24    -15.0051  -6.1515  -9.6302   C.2       1 RES1   0.0000
    25 C25    -15.3575  -7.3424  -9.0060   C.2       1 RES1   0.0000
    26 C26    -14.4875  -7.9341  -8.0992   C.2       1 RES1   0.0000
    27 N27    -12.0113 -10.1715  -8.0216   N.am      1 RES1   0.0000
    28 C28    -12.5198 -10.1999  -9.2528   C.2       1 RES1   0.0000
    29 O29    -12.4595  -9.2251 -10.0137   O.2       1 RES1   0.0000
    30 C30    -13.1067 -11.5382  -9.5820   C.2       1 RES1   0.0000
    31 O31    -13.0728 -12.3739  -8.6964   O.2       1 RES1   0.0000
    32 N32    -13.6729 -11.9974 -10.6916   N.am      1 RES1   0.0000
    33 C33    -14.2175 -13.2989 -10.9433   C.3       1 RES1   0.0000
    34 C34    -15.6051 -13.3680 -10.3328   C.3       1 RES1   0.0000
    35 C35    -16.5341 -14.5839 -10.7681   C.3       1 RES1   0.0000
    36 C36    -17.5083 -13.6034 -11.3824   C.3       1 RES1   0.0000
    37 C37    -16.6106 -12.3897 -11.0960   C.3       1 RES1   0.0000
@<TRIPOS>BOND
     1     1     2    1
     2     2     3    1
     3     3     4    1
     4     4     5    2
     5     4     6    1
     6     6     7    1
     7     8     7    1
     8     8     9    1
     9    10     9    1
    10    10    11    1
    11    11    12    1
    12    12    13    1
    13    13    14   am
    14    14    15    2
    15     8    16    1
    16    16    17   am
    17    17    18    2
    18    17    19    1
    19    19    20    1
    20    20    21    1
    21    21    22    2
    22    22    23    1
    23    23    24    2
    24    24    25    1
    25    25    26    2
    26    19    27    1
    27    27    28   am
    28    28    29    2
    29    28    30    1
    30    30    31    2
    31    30    32   am
    32    32    33    1
    33    33    34    1
    34    34    35    1
    35    35    36    1
    36    36    37    1
    37    14    10    1
    38    26    21    1
    39    37    34    1
@<TRIPOS>SUBSTRUCTURE
     1 RES1        1 GROUP             0 ****  ****    0  
@<TRIPOS>MOLECULE
ligand_88
    37    39     1     0     0
SMALL
NO_CHARGES
****
Generated from the CSD

@<TRIPOS>ATOM
     1 C1      -7.5438  -2.0522  -6.2434   C.3       1 RES1   0.0000
     2 C2      -6.6466  -3.2661  -6.1587   C.3       1 RES1   0.0000
     3 O3      -7.4331  -4.4297  -5.9158   O.3       1 RES1   0.0000
     4 C4      -6.8136  -5.7318  -5.7912   C.2       1 RES1   0.0000
     5 O5      -5.5969  -5.8018  -5.9008   O.2       1 RES1   0.0000
     6 C6      -7.7173  -6.9172  -5.5449   C.3       1 RES1   0.0000
     7 C7      -7.0660  -8.2905  -5.4091   C.3       1 RES1   0.0000
     8 C8      -6.2363  -8.2638  -4.1007   C.3       1 RES1   0.0000
     9 C9      -5.2768  -9.4539  -4.0264   C.3       1 RES1   0.0000
    10 C10     -4.4417  -9.4406  -2.7416   C.3       1 RES1   0.0000
    11 C11     -3.3659  -8.3378  -2.6830   C.3       1 RES1   0.0000
    12 C12     -2.1447  -8.9935  -2.0517   C.3       1 RES1   0.0000
    13 N13     -2.4061 -10.4097  -2.2255   N.am      1 RES1   0.0000
    14 C14     -3.6654 -10.7167  -2.5464   C.2       1 RES1   0.0000
    15 O15     -4.0966 -11.8388  -2.6937   O.2       1 RES1   0.0000
    16 N16     -7.1502  -8.1711  -2.9701   N.am      1 RES1   0.0000
    17 C17     -7.4351  -7.0343  -2.3140   C.2       1 RES1   0.0000
    18 O18     -6.9633  -5.9397  -2.5681   O.2       1 RES1   0.0000
    19 C19     -8.4022  -7.1671  -1.1783   C.3       1 RES1   0.0000
    20 C20     -7.5345  -7.0471   0.0759   C.3       1 RES1   0.0000
    21 C21     -6.7751  -5.7480   0.2616   C.2       1 RES1   0.0000
    22 C22     -5.4647  -5.5776  -0.1843   C.2       1 RES1   0.0000
    23 C23     -4.8068  -4.3654   0.0252   C.2       1 RES1   0.0000
    24 C24     -5.4498  -3.3188   0.6760   C.2       1 RES1   0.0000
    25 C25     -6.7535  -3.4853   1.1285   C.2       1 RES1   0.0000
    26 C26     -7.4075  -4.6945   0.9298   C.2       1 RES1   0.0000
    27 N27     -9.1893  -8.3972  -1.1656   N.am      1 RES1   0.0000
    28 C28    -10.2466  -8.6835  -1.9241   C.2       1 RES1   0.0000
    29 O29    -10.6910  -7.8885  -2.7627   O.2       1 RES1   0.0000
    30 C30    -10.7658 -10.0631  -1.6577   C.2       1 RES1   0.0000
    31 O31    -10.1930 -10.6957  -0.7884   O.2       1 RES1   0.0000
    32 N32    -11.7624 -10.7455  -2.2088   N.am      1 RES1   0.0000
    33 C33    -12.2102 -12.0728  -1.9061   C.3       1 RES1   0.0000
    34 C34    -13.0764 -12.0181  -0.6613   C.3       1 RES1   0.0000
    35 C35    -13.9551 -13.3015  -0.3270   C.3       1 RES1   0.0000
    36 C36    -15.2087 -12.4741  -0.5053   C.3       1 RES1   0.0000
    37 C37    -14.4321 -11.2241  -0.9474   C.3       1 RES1   0.0000
@<TRIPOS>BOND
     1     1     2    1
     2     2     3    1
     3     3     4    1
     4     4     5    2
     5     4     6    1
     6     6     7    1
     7     8     7    1
     8     8     9    1
     9    10     9    1
    10    10    11    1
    11    11    12    1
    12    12    13    1
    13    13    14   am
    14    14    15    2
    15     8    16    1
    16    16    17   am
    17    17    18    2
    18    17    19    1
    19    19    20    1
    20    20    21    1
    21    21    22    2
    22    22    23    1
    23    23    24    2
    24    24    25    1
    25    25    26    2
    26    19    27    1
    27    27    28   am
    28    28    29    2
    29    28    30    1
    30    30    31    2
    31    30    32   am
    32    32    33    1
    33    33    34    1
    34    34    35    1
    35    35    36    1
    36    36    37    1
    37    14    10    1
    38    26    21    1
    39    37    34    1
@<TRIPOS>SUBSTRUCTURE
     1 RES1        1 GROUP             0 ****  ****    0  
@<TRIPOS>MOLECULE
ligand_89
    37    39     1     0     0
SMALL
NO_CHARGES
****
Generated from the CSD

@<TRIPOS>ATOM
     1 C1      -7.6905  -1.8847  -5.4673   C.3       1 RES1   0.0000
     2 C2      -6.7663  -3.0808  -5.4978   C.3       1 RES1   0.0000
     3 O3      -7.5301  -4.2812  -5.4120   O.3       1 RES1   0.0000
     4 C4      -6.8823  -5.5754  -5.4207   C.2       1 RES1   0.0000
     5 O5      -5.6619  -5.6063  -5.5039   O.2       1 RES1   0.0000
     6 C6      -7.7627  -6.8004  -5.3374   C.3       1 RES1   0.0000
     7 C7      -7.0827  -8.1663  -5.3584   C.3       1 RES1   0.0000
     8 C8      -8.2053  -9.2260  -5.2249   C.3       1 RES1   0.0000
     9 C9      -7.6348 -10.6461  -5.2470   C.3       1 RES1   0.0000
    10 C10     -8.7320 -11.7090  -5.1268   C.3       1 RES1   0.0000
    11 C11     -9.4076 -11.7849  -3.7431   C.3       1 RES1   0.0000
    12 C12     -9.5991 -13.2701  -3.4645   C.3       1 RES1   0.0000
    13 N13     -8.6711 -13.8989  -4.3851   N.am      1 RES1   0.0000
    14 C14     -8.2096 -13.1037  -5.3535   C.2       1 RES1   0.0000
    15 O15     -7.4620 -13.4452  -6.2430   O.2       1 RES1   0.0000
    16 N16     -9.2073  -8.9766  -6.2524   N.am      1 RES1   0.0000
    17 C17    -10.4685  -8.5862  -6.0056   C.2       1 RES1   0.0000
    18 O18    -11.0200  -8.6380  -4.9200   O.2       1 RES1   0.0000
    19 C19    -11.2281  -8.0656  -7.1866   C.3       1 RES1   0.0000
    20 C20    -11.8278  -9.3154  -7.8339   C.3       1 RES1   0.0000
    21 C21    -12.8324 -10.0978  -7.0111   C.2       1 RES1   0.0000
    22 C22    -12.4565 -11.1445  -6.1696   C.2       1 RES1   0.0000
    23 C23    -13.4239 -11.8414  -5.4452   C.2       1 RES1   0.0000
    24 C24    -14.7667 -11.4987  -5.5533   C.2       1 RES1   0.0000
    25 C25    -15.1479 -10.4607  -6.3956   C.2       1 RES1   0.0000
    26 C26    -14.1878  -9.7715  -7.1253   C.2       1 RES1   0.0000
    27 N27    -10.4433  -7.2933  -8.1460   N.am      1 RES1   0.0000
    28 C28    -10.0485  -6.0263  -8.0276   C.2       1 RES1   0.0000
    29 O29    -10.3244  -5.3399  -7.0349   O.2       1 RES1   0.0000
    30 C30     -9.2208  -5.5895  -9.1971   C.2       1 RES1   0.0000
    31 O31     -9.0606  -6.4122 -10.0810   O.2       1 RES1   0.0000
    32 N32     -8.6105  -4.4395  -9.4576   N.am      1 RES1   0.0000
    33 C33     -7.8274  -4.0840 -10.6039   C.3       1 RES1   0.0000
    34 C34     -8.7684  -3.7197 -11.7374   C.3       1 RES1   0.0000
    35 C35     -8.1413  -2.9744 -12.9953   C.3       1 RES1   0.0000
    36 C36     -9.0028  -1.7681 -12.6944   C.3       1 RES1   0.0000
    37 C37     -9.5682  -2.3785 -11.4025   C.3       1 RES1   0.0000
@<TRIPOS>BOND
     1     1     2    1
     2     2     3    1
     3     3     4    1
     4     4     5    2
     5     4     6    1
     6     6     7    1
     7     8     7    1
     8     8     9    1
     9    10     9    1
    10    10    11    1
    11    11    12    1
    12    12    13    1
    13    13    14   am
    14    14    15    2
    15     8    16    1
    16    16    17   am
    17    17    18    2
    18    17    19    1
    19    19    20    1
    20    20    21    1
    21    21    22    2
    22    22    23    1
    23    23    24    2
    24    24    25    1
    25    25    26    2
    26    19    27    1
    27    27    28   am
    28    28    29    2
    29    28    30    1
    30    30    31    2
    31    30    32   am
    32    32    33    1
    33    33    34    1
    34    34    35    1
    35    35    36    1
    36    36    37    1
    37    14    10    1
    38    26    21    1
    39    37    34    1
@<TRIPOS>SUBSTRUCTURE
     1 RES1        1 GROUP             0 ****  ****    0  
@<TRIPOS>MOLECULE
ligand_90
    37    39     1     0     0
SMALL
NO_CHARGES
****
Generated from the CSD

@<TRIPOS>ATOM
     1 C1      -7.3060  -1.9201  -5.2077   C.3       1 RES1   0.0000
     2 C2      -6.4515  -3.1606  -5.3366   C.3       1 RES1   0.0000
     3 O3      -7.2755  -4.3216  -5.2679   O.3       1 RES1   0.0000
     4 C4      -6.7012  -5.6465  -5.3661   C.2       1 RES1   0.0000
     5 O5      -5.4894  -5.7380  -5.5095   O.2       1 RES1   0.0000
     6 C6      -7.6429  -6.8257  -5.2953   C.3       1 RES1   0.0000
     7 C7      -7.0409  -8.2232  -5.4104   C.3       1 RES1   0.0000
     8 C8      -8.2059  -9.2279  -5.2248   C.3       1 RES1   0.0000
     9 C9      -9.2700  -9.0520  -6.3107   C.3       1 RES1   0.0000
    10 C10     -8.7256  -9.3710  -7.7071   C.3       1 RES1   0.0000
    11 C11     -7.9320  -8.2257  -8.3670   C.3       1 RES1   0.0000
    12 C12     -8.3480  -8.2337  -9.8322   C.3       1 RES1   0.0000
    13 N13     -9.5909  -8.9814  -9.8164   N.am      1 RES1   0.0000
    14 C14     -9.8206  -9.6722  -8.6969   C.2       1 RES1   0.0000
    15 O15    -10.7756 -10.3906  -8.5012   O.2       1 RES1   0.0000
    16 N16     -8.7206  -9.1004  -3.8681   N.am      1 RES1   0.0000
    17 C17     -8.3717  -9.8972  -2.8446   C.2       1 RES1   0.0000
    18 O18     -7.5846 -10.8252  -2.9137   O.2       1 RES1   0.0000
    19 C19     -9.0349  -9.5978  -1.5357   C.3       1 RES1   0.0000
    20 C20    -10.3984 -10.2846  -1.6346   C.3       1 RES1   0.0000
    21 C21    -11.2490 -10.3020  -0.3796   C.2       1 RES1   0.0000
    22 C22    -11.1773 -11.3318   0.5581   C.2       1 RES1   0.0000
    23 C23    -11.9935 -11.3057   1.6892   C.2       1 RES1   0.0000
    24 C24    -12.8811 -10.2555   1.8926   C.2       1 RES1   0.0000
    25 C25    -12.9617  -9.2298   0.9579   C.2       1 RES1   0.0000
    26 C26    -12.1571  -9.2582  -0.1740   C.2       1 RES1   0.0000
    27 N27     -9.1748  -8.1803  -1.2133   N.am      1 RES1   0.0000
    28 C28     -8.2248  -7.3593  -0.7676   C.2       1 RES1   0.0000
    29 O29     -7.0631  -7.7399  -0.5719   O.2       1 RES1   0.0000
    30 C30     -8.7346  -5.9619  -0.5908   C.2       1 RES1   0.0000
    31 O31     -9.9149  -5.7842  -0.8342   O.2       1 RES1   0.0000
    32 N32     -8.1222  -4.8480  -0.2078   N.am      1 RES1   0.0000
    33 C33     -8.6719  -3.5329  -0.0590   C.3       1 RES1   0.0000
    34 C34     -9.4024  -3.4623   1.2693   C.3       1 RES1   0.0000
    35 C35     -9.8035  -2.0192   1.8056   C.3       1 RES1   0.0000
    36 C36     -8.8974  -2.2249   2.9993   C.3       1 RES1   0.0000
    37 C37     -8.3769  -3.5772   2.4881   C.3       1 RES1   0.0000
@<TRIPOS>BOND
     1     1     2    1
     2     2     3    1
     3     3     4    1
     4     4     5    2
     5     4     6    1
     6     6     7    1
     7     8     7    1
     8     8     9    1
     9    10     9    1
    10    10    11    1
    11    11    12    1
    12    12    13    1
    13    13    14   am
    14    14    15    2
    15     8    16    1
    16    16    17   am
    17    17    18    2
    18    17    19    1
    19    19    20    1
    20    20    21    1
    21    21    22    2
    22    22    23    1
    23    23    24    2
    24    24    25    1
    25    25    26    2
    26    19    27    1
    27    27    28   am
    28    28    29    2
    29    28    30    1
    30    30    31    2
    31    30    32   am
    32    32    33    1
    33    33    34    1
    34    34    35    1
    35    35    36    1
    36    36    37    1
    37    14    10    1
    38    26    21    1
    39    37    34    1
@<TRIPOS>SUBSTRUCTURE
     1 RES1        1 GROUP             0 ****  ****    0  
@<TRIPOS>MOLECULE
ligand_91
    37    39     1     0     0
SMALL
NO_CHARGES
****
Generated from the CSD

@<TRIPOS>ATOM
     1 C1      -7.0083  -1.9952  -6.2113   C.3       1 RES1   0.0000
     2 C2      -6.1886  -3.2600  -6.0927   C.3       1 RES1   0.0000
     3 O3      -7.0524  -4.3763  -5.8944   O.3       1 RES1   0.0000
     4 C4      -6.5168  -5.7130  -5.7495   C.2       1 RES1   0.0000
     5 O5      -5.3024  -5.8540  -5.8026   O.2       1 RES1   0.0000
     6 C6      -7.4988  -6.8442  -5.5534   C.3       1 RES1   0.0000
     7 C7      -6.9369  -8.2559  -5.4123   C.3       1 RES1   0.0000
     8 C8      -8.1504  -9.2047  -5.2444   C.3       1 RES1   0.0000
     9 C9      -8.7960  -9.0432  -3.8661   C.3       1 RES1   0.0000
    10 C10    -10.0317  -9.9343  -3.7014   C.3       1 RES1   0.0000
    11 C11    -11.2694  -9.4740  -4.4970   C.3       1 RES1   0.0000
    12 C12    -12.4566  -9.7012  -3.5703   C.3       1 RES1   0.0000
    13 N13    -11.8375  -9.8013  -2.2623   N.am      1 RES1   0.0000
    14 C14    -10.5155  -9.9896  -2.2758   C.2       1 RES1   0.0000
    15 O15     -9.8198 -10.1400  -1.2960   O.2       1 RES1   0.0000
    16 N16     -7.7234 -10.5657  -5.5402   N.am      1 RES1   0.0000
    17 C17     -7.8892 -11.1737  -6.7263   C.2       1 RES1   0.0000
    18 O18     -8.4606 -10.6916  -7.6888   O.2       1 RES1   0.0000
    19 C19     -7.3259 -12.5575  -6.8289   C.3       1 RES1   0.0000
    20 C20     -8.3869 -13.4490  -6.1809   C.3       1 RES1   0.0000
    21 C21     -9.7691 -13.4321  -6.8039   C.2       1 RES1   0.0000
    22 C22    -10.7653 -12.5485  -6.3894   C.2       1 RES1   0.0000
    23 C23    -12.0253 -12.5850  -6.9871   C.2       1 RES1   0.0000
    24 C24    -12.2979 -13.4977  -7.9995   C.2       1 RES1   0.0000
    25 C25    -11.3109 -14.3852  -8.4120   C.2       1 RES1   0.0000
    26 C26    -10.0585 -14.3575  -7.8119   C.2       1 RES1   0.0000
    27 N27     -6.0178 -12.7496  -6.2086   N.am      1 RES1   0.0000
    28 C28     -5.1571 -13.7406  -6.4369   C.2       1 RES1   0.0000
    29 O29     -5.3959 -14.6484  -7.2442   O.2       1 RES1   0.0000
    30 C30     -3.8967 -13.5772  -5.6441   C.2       1 RES1   0.0000
    31 O31     -3.8503 -12.6151  -4.8984   O.2       1 RES1   0.0000
    32 N32     -2.7878 -14.3060  -5.6017   N.am      1 RES1   0.0000
    33 C33     -1.6086 -14.0924  -4.8158   C.3       1 RES1   0.0000
    34 C34     -1.8682 -14.5975  -3.4085   C.3       1 RES1   0.0000
    35 C35     -0.6084 -14.7758  -2.4533   C.3       1 RES1   0.0000
    36 C36     -0.8816 -16.2623  -2.3913   C.3       1 RES1   0.0000
    37 C37     -2.0401 -16.1852  -3.3979   C.3       1 RES1   0.0000
@<TRIPOS>BOND
     1     1     2    1
     2     2     3    1
     3     3     4    1
     4     4     5    2
     5     4     6    1
     6     6     7    1
     7     8     7    1
     8     8     9    1
     9    10     9    1
    10    10    11    1
    11    11    12    1
    12    12    13    1
    13    13    14   am
    14    14    15    2
    15     8    16    1
    16    16    17   am
    17    17    18    2
    18    17    19    1
    19    19    20    1
    20    20    21    1
    21    21    22    2
    22    22    23    1
    23    23    24    2
    24    24    25    1
    25    25    26    2
    26    19    27    1
    27    27    28   am
    28    28    29    2
    29    28    30    1
    30    30    31    2
    31    30    32   am
    32    32    33    1
    33    33    34    1
    34    34    35    1
    35    35    36    1
    36    36    37    1
    37    14    10    1
    38    26    21    1
    39    37    34    1
@<TRIPOS>SUBSTRUCTURE
     1 RES1        1 GROUP             0 ****  ****    0  
@<TRIPOS>MOLECULE
ligand_92
    37    39     1     0     0
SMALL
NO_CHARGES
****
Generated from the CSD

@<TRIPOS>ATOM
     1 C1      -7.3953  -1.9390  -5.8838   C.3       1 RES1   0.0000
     2 C2      -6.5195  -3.1704  -5.8341   C.3       1 RES1   0.0000
     3 O3      -7.3316  -4.3329  -5.6904   O.3       1 RES1   0.0000
     4 C4      -6.7362  -5.6500  -5.6171   C.2       1 RES1   0.0000
     5 O5      -5.5171  -5.7337  -5.6821   O.2       1 RES1   0.0000
     6 C6      -7.6658  -6.8326  -5.4760   C.3       1 RES1   0.0000
     7 C7      -7.0409  -8.2232  -5.4104   C.3       1 RES1   0.0000
     8 C8      -8.2059  -9.2279  -5.2248   C.3       1 RES1   0.0000
     9 C9      -7.6963 -10.6708  -5.1954   C.3       1 RES1   0.0000
    10 C10     -6.6428 -10.8870  -4.1038   C.3       1 RES1   0.0000
    11 C11     -5.9960 -12.2865  -4.0999   C.3       1 RES1   0.0000
    12 C12     -5.8664 -12.6709  -2.6318   C.3       1 RES1   0.0000
    13 N13     -6.8008 -11.7768  -1.9748   N.am      1 RES1   0.0000
    14 C14     -7.2138 -10.7463  -2.7169   C.2       1 RES1   0.0000
    15 O15     -7.9575  -9.8672  -2.3419   O.2       1 RES1   0.0000
    16 N16     -9.2073  -8.9766  -6.2524   N.am      1 RES1   0.0000
    17 C17    -10.5257  -8.8693  -6.0191   C.2       1 RES1   0.0000
    18 O18    -11.0556  -8.9668  -4.9260   O.2       1 RES1   0.0000
    19 C19    -11.3789  -8.6247  -7.2253   C.3       1 RES1   0.0000
    20 C20    -11.5778 -10.0123  -7.8381   C.3       1 RES1   0.0000
    21 C21    -12.5508 -10.1165  -8.9961   C.2       1 RES1   0.0000
    22 C22    -13.9085 -10.3760  -8.8109   C.2       1 RES1   0.0000
    23 C23    -14.7580 -10.4761  -9.9129   C.2       1 RES1   0.0000
    24 C24    -14.2613 -10.3163 -11.2013   C.2       1 RES1   0.0000
    25 C25    -12.9078 -10.0641 -11.3923   C.2       1 RES1   0.0000
    26 C26    -12.0580  -9.9736 -10.2973   C.2       1 RES1   0.0000
    27 N27    -10.8316  -7.6853  -8.2005   N.am      1 RES1   0.0000
    28 C28    -10.8089  -6.3561  -8.1120   C.2       1 RES1   0.0000
    29 O29    -11.2768  -5.7522  -7.1377   O.2       1 RES1   0.0000
    30 C30    -10.1242  -5.7314  -9.2887   C.2       1 RES1   0.0000
    31 O31     -9.7303  -6.4961 -10.1513   O.2       1 RES1   0.0000
    32 N32     -9.8578  -4.4627  -9.5752   N.am      1 RES1   0.0000
    33 C33     -9.1933  -3.9280 -10.7269   C.3       1 RES1   0.0000
    34 C34    -10.1864  -3.8679 -11.8728   C.3       1 RES1   0.0000
    35 C35     -9.7797  -3.0055 -13.1463   C.3       1 RES1   0.0000
    36 C36    -10.9479  -2.0826 -12.8788   C.3       1 RES1   0.0000
    37 C37    -11.3335  -2.7976 -11.5745   C.3       1 RES1   0.0000
@<TRIPOS>BOND
     1     1     2    1
     2     2     3    1
     3     3     4    1
     4     4     5    2
     5     4     6    1
     6     6     7    1
     7     8     7    1
     8     8     9    1
     9    10     9    1
    10    10    11    1
    11    11    12    1
    12    12    13    1
    13    13    14   am
    14    14    15    2
    15     8    16    1
    16    16    17   am
    17    17    18    2
    18    17    19    1
    19    19    20    1
    20    20    21    1
    21    21    22    2
    22    22    23    1
    23    23    24    2
    24    24    25    1
    25    25    26    2
    26    19    27    1
    27    27    28   am
    28    28    29    2
    29    28    30    1
    30    30    31    2
    31    30    32   am
    32    32    33    1
    33    33    34    1
    34    34    35    1
    35    35    36    1
    36    36    37    1
    37    14    10    1
    38    26    21    1
    39    37    34    1
@<TRIPOS>SUBSTRUCTURE
     1 RES1        1 GROUP             0 ****  ****    0  
@<TRIPOS>MOLECULE
ligand_93
    37    39     1     0     0
SMALL
NO_CHARGES
****
Generated from the CSD

@<TRIPOS>ATOM
     1 C1      -7.3807  -1.9401  -5.7710   C.3       1 RES1   0.0000
     2 C2      -6.5081  -3.1746  -5.7498   C.3       1 RES1   0.0000
     3 O3      -7.3223  -4.3370  -5.6174   O.3       1 RES1   0.0000
     4 C4      -6.7301  -5.6568  -5.5713   C.2       1 RES1   0.0000
     5 O5      -5.5120  -5.7428  -5.6494   O.2       1 RES1   0.0000
     6 C6      -7.6618  -6.8389  -5.4406   C.3       1 RES1   0.0000
     7 C7      -7.0405  -8.2322  -5.4037   C.3       1 RES1   0.0000
     8 C8      -8.2068  -9.2367  -5.2261   C.3       1 RES1   0.0000
     9 C9      -7.6991 -10.6804  -5.2069   C.3       1 RES1   0.0000
    10 C10     -8.8384 -11.6888  -5.0246   C.3       1 RES1   0.0000
    11 C11     -9.4699 -11.7010  -3.6182   C.3       1 RES1   0.0000
    12 C12     -9.7186 -13.1689  -3.2965   C.3       1 RES1   0.0000
    13 N13     -8.8514 -13.8611  -4.2307   N.am      1 RES1   0.0000
    14 C14     -8.3873 -13.1109  -5.2332   C.2       1 RES1   0.0000
    15 O15     -7.6862 -13.5071  -6.1376   O.2       1 RES1   0.0000
    16 N16     -9.2073  -8.9766  -6.2524   N.am      1 RES1   0.0000
    17 C17    -10.5257  -8.8693  -6.0191   C.2       1 RES1   0.0000
    18 O18    -11.0556  -8.9668  -4.9260   O.2       1 RES1   0.0000
    19 C19    -11.3789  -8.6247  -7.2253   C.3       1 RES1   0.0000
    20 C20    -12.7386  -9.2211  -6.8565   C.3       1 RES1   0.0000
    21 C21    -13.8615  -9.0372  -7.8584   C.2       1 RES1   0.0000
    22 C22    -14.7168  -7.9360  -7.8293   C.2       1 RES1   0.0000
    23 C23    -15.7437  -7.8230  -8.7668   C.2       1 RES1   0.0000
    24 C24    -15.9220  -8.8025  -9.7368   C.2       1 RES1   0.0000
    25 C25    -15.0768  -9.9057  -9.7665   C.2       1 RES1   0.0000
    26 C26    -14.0596 -10.0254  -8.8283   C.2       1 RES1   0.0000
    27 N27    -10.8729  -9.1851  -8.4754   N.am      1 RES1   0.0000
    28 C28    -10.4764  -8.5136  -9.5556   C.2       1 RES1   0.0000
    29 O29    -10.4995  -7.2768  -9.6084   O.2       1 RES1   0.0000
    30 C30     -9.9782  -9.4310 -10.6298   C.2       1 RES1   0.0000
    31 O31    -10.0377 -10.6238 -10.3899   O.2       1 RES1   0.0000
    32 N32     -9.4681  -9.1796 -11.8295   N.am      1 RES1   0.0000
    33 C33     -9.0061 -10.1106 -12.8162   C.3       1 RES1   0.0000
    34 C34    -10.2085 -10.6624 -13.5598   C.3       1 RES1   0.0000
    35 C35     -9.9304 -11.4509 -14.9133   C.3       1 RES1   0.0000
    36 C36    -10.7019 -10.3943 -15.6725   C.3       1 RES1   0.0000
    37 C37    -10.9132  -9.5209 -14.4261   C.3       1 RES1   0.0000
@<TRIPOS>BOND
     1     1     2    1
     2     2     3    1
     3     3     4    1
     4     4     5    2
     5     4     6    1
     6     6     7    1
     7     8     7    1
     8     8     9    1
     9    10     9    1
    10    10    11    1
    11    11    12    1
    12    12    13    1
    13    13    14   am
    14    14    15    2
    15     8    16    1
    16    16    17   am
    17    17    18    2
    18    17    19    1
    19    19    20    1
    20    20    21    1
    21    21    22    2
    22    22    23    1
    23    23    24    2
    24    24    25    1
    25    25    26    2
    26    19    27    1
    27    27    28   am
    28    28    29    2
    29    28    30    1
    30    30    31    2
    31    30    32   am
    32    32    33    1
    33    33    34    1
    34    34    35    1
    35    35    36    1
    36    36    37    1
    37    14    10    1
    38    26    21    1
    39    37    34    1
@<TRIPOS>SUBSTRUCTURE
     1 RES1        1 GROUP             0 ****  ****    0  
@<TRIPOS>MOLECULE
ligand_94
    37    39     1     0     0
SMALL
NO_CHARGES
****
Generated from the CSD

@<TRIPOS>ATOM
     1 C1      -7.4127  -1.9613  -6.1106   C.3       1 RES1   0.0000
     2 C2      -6.5343  -3.1891  -6.0300   C.3       1 RES1   0.0000
     3 O3      -7.3422  -4.3462  -5.8297   O.3       1 RES1   0.0000
     4 C4      -6.7436  -5.6592  -5.7176   C.2       1 RES1   0.0000
     5 O5      -5.5257  -5.7441  -5.8000   O.2       1 RES1   0.0000
     6 C6      -7.6689  -6.8365  -5.5171   C.3       1 RES1   0.0000
     7 C7      -7.0409  -8.2232  -5.4104   C.3       1 RES1   0.0000
     8 C8      -8.2059  -9.2279  -5.2248   C.3       1 RES1   0.0000
     9 C9      -8.8288  -9.1058  -3.8321   C.3       1 RES1   0.0000
    10 C10     -9.9805 -10.0956  -3.6279   C.3       1 RES1   0.0000
    11 C11    -11.2589  -9.7713  -4.4263   C.3       1 RES1   0.0000
    12 C12    -12.4157 -10.0714  -3.4819   C.3       1 RES1   0.0000
    13 N13    -11.7818 -10.0747  -2.1772   N.am      1 RES1   0.0000
    14 C14    -10.4485 -10.1471  -2.1970   C.2       1 RES1   0.0000
    15 O15     -9.7360 -10.2045  -1.2194   O.2       1 RES1   0.0000
    16 N16     -7.7234 -10.5657  -5.5402   N.am      1 RES1   0.0000
    17 C17     -7.8892 -11.1737  -6.7263   C.2       1 RES1   0.0000
    18 O18     -8.4606 -10.6916  -7.6888   O.2       1 RES1   0.0000
    19 C19     -7.3259 -12.5575  -6.8289   C.3       1 RES1   0.0000
    20 C20     -5.8353 -12.3422  -7.0979   C.3       1 RES1   0.0000
    21 C21     -4.9523 -13.5745  -7.0857   C.2       1 RES1   0.0000
    22 C22     -4.3296 -14.0369  -5.9266   C.2       1 RES1   0.0000
    23 C23     -3.5152 -15.1686  -5.9740   C.2       1 RES1   0.0000
    24 C24     -3.3192 -15.8449  -7.1725   C.2       1 RES1   0.0000
    25 C25     -3.9318 -15.3847  -8.3323   C.2       1 RES1   0.0000
    26 C26     -4.7354 -14.2526  -8.2898   C.2       1 RES1   0.0000
    27 N27     -7.9337 -13.4079  -7.8489   N.am      1 RES1   0.0000
    28 C28     -9.1072 -14.0347  -7.7786   C.2       1 RES1   0.0000
    29 O29     -9.8400 -13.9528  -6.7840   O.2       1 RES1   0.0000
    30 C30     -9.4163 -14.7809  -9.0402   C.2       1 RES1   0.0000
    31 O31     -8.5648 -14.7435  -9.9105   O.2       1 RES1   0.0000
    32 N32    -10.4764 -15.4956  -9.3978   N.am      1 RES1   0.0000
    33 C33    -10.7116 -16.1887 -10.6300   C.3       1 RES1   0.0000
    34 C34     -9.9660 -17.5099 -10.5907   C.3       1 RES1   0.0000
    35 C35    -10.3422 -18.5929 -11.6937   C.3       1 RES1   0.0000
    36 C36    -10.8242 -19.5205 -10.6004   C.3       1 RES1   0.0000
    37 C37    -10.5930 -18.4832  -9.4907   C.3       1 RES1   0.0000
@<TRIPOS>BOND
     1     1     2    1
     2     2     3    1
     3     3     4    1
     4     4     5    2
     5     4     6    1
     6     6     7    1
     7     8     7    1
     8     8     9    1
     9    10     9    1
    10    10    11    1
    11    11    12    1
    12    12    13    1
    13    13    14   am
    14    14    15    2
    15     8    16    1
    16    16    17   am
    17    17    18    2
    18    17    19    1
    19    19    20    1
    20    20    21    1
    21    21    22    2
    22    22    23    1
    23    23    24    2
    24    24    25    1
    25    25    26    2
    26    19    27    1
    27    27    28   am
    28    28    29    2
    29    28    30    1
    30    30    31    2
    31    30    32   am
    32    32    33    1
    33    33    34    1
    34    34    35    1
    35    35    36    1
    36    36    37    1
    37    14    10    1
    38    26    21    1
    39    37    34    1
@<TRIPOS>SUBSTRUCTURE
     1 RES1        1 GROUP             0 ****  ****    0  
@<TRIPOS>MOLECULE
ligand_95
    37    39     1     0     0
SMALL
NO_CHARGES
****
Generated from the CSD

@<TRIPOS>ATOM
     1 C1      -7.6059  -1.9492  -5.8086   C.3       1 RES1   0.0000
     2 C2      -6.6893  -3.1510  -5.7735   C.3       1 RES1   0.0000
     3 O3      -7.4622  -4.3420  -5.6477   O.3       1 RES1   0.0000
     4 C4      -6.8230  -5.6392  -5.5908   C.2       1 RES1   0.0000
     5 O5      -5.6017  -5.6810  -5.6539   O.2       1 RES1   0.0000
     6 C6      -7.7126  -6.8542  -5.4681   C.3       1 RES1   0.0000
     7 C7      -7.0409  -8.2232  -5.4104   C.3       1 RES1   0.0000
     8 C8      -6.2268  -8.2660  -4.0928   C.3       1 RES1   0.0000
     9 C9      -5.6050  -9.6463  -3.8679   C.3       1 RES1   0.0000
    10 C10     -4.6422 -10.0344  -4.9950   C.3       1 RES1   0.0000
    11 C11     -5.3245 -10.5602  -6.2737   C.3       1 RES1   0.0000
    12 C12     -4.4575 -11.7179  -6.7511   C.3       1 RES1   0.0000
    13 N13     -3.6908 -12.0629  -5.5690   N.am      1 RES1   0.0000
    14 C14     -3.7086 -11.1475  -4.5969   C.2       1 RES1   0.0000
    15 O15     -3.1019 -11.2246  -3.5516   O.2       1 RES1   0.0000
    16 N16     -7.0815  -7.8189  -3.0012   N.am      1 RES1   0.0000
    17 C17     -6.7228  -6.9128  -2.0768   C.2       1 RES1   0.0000
    18 O18     -5.6436  -6.3485  -2.0283   O.2       1 RES1   0.0000
    19 C19     -7.7528  -6.6103  -1.0327   C.3       1 RES1   0.0000
    20 C20     -7.6046  -7.7416  -0.0135   C.3       1 RES1   0.0000
    21 C21     -8.4106  -7.6214   1.2650   C.2       1 RES1   0.0000
    22 C22     -7.9158  -6.9870   2.4042   C.2       1 RES1   0.0000
    23 C23     -8.6944  -6.9171   3.5596   C.2       1 RES1   0.0000
    24 C24     -9.9673  -7.4750   3.5855   C.2       1 RES1   0.0000
    25 C25    -10.4630  -8.1145   2.4552   C.2       1 RES1   0.0000
    26 C26     -9.6861  -8.1940   1.3065   C.2       1 RES1   0.0000
    27 N27     -9.1264  -6.5075  -1.5181   N.am      1 RES1   0.0000
    28 C28     -9.6756  -5.4813  -2.1666   C.2       1 RES1   0.0000
    29 O29     -9.0381  -4.4549  -2.4367   O.2       1 RES1   0.0000
    30 C30    -11.0984  -5.7583  -2.5438   C.2       1 RES1   0.0000
    31 O31    -11.5519  -6.8305  -2.1852   O.2       1 RES1   0.0000
    32 N32    -11.9835  -5.0326  -3.2167   N.am      1 RES1   0.0000
    33 C33    -13.3393  -5.3590  -3.5470   C.3       1 RES1   0.0000
    34 C34    -14.2086  -5.0986  -2.3307   C.3       1 RES1   0.0000
    35 C35    -15.7836  -5.0657  -2.5531   C.3       1 RES1   0.0000
    36 C36    -15.8006  -3.6140  -2.1286   C.3       1 RES1   0.0000
    37 C37    -14.2712  -3.5371  -2.0013   C.3       1 RES1   0.0000
@<TRIPOS>BOND
     1     1     2    1
     2     2     3    1
     3     3     4    1
     4     4     5    2
     5     4     6    1
     6     6     7    1
     7     8     7    1
     8     8     9    1
     9    10     9    1
    10    10    11    1
    11    11    12    1
    12    12    13    1
    13    13    14   am
    14    14    15    2
    15     8    16    1
    16    16    17   am
    17    17    18    2
    18    17    19    1
    19    19    20    1
    20    20    21    1
    21    21    22    2
    22    22    23    1
    23    23    24    2
    24    24    25    1
    25    25    26    2
    26    19    27    1
    27    27    28   am
    28    28    29    2
    29    28    30    1
    30    30    31    2
    31    30    32   am
    32    32    33    1
    33    33    34    1
    34    34    35    1
    35    35    36    1
    36    36    37    1
    37    14    10    1
    38    26    21    1
    39    37    34    1
@<TRIPOS>SUBSTRUCTURE
     1 RES1        1 GROUP             0 ****  ****    0  
@<TRIPOS>MOLECULE
ligand_96
    37    39     1     0     0
SMALL
NO_CHARGES
****
Generated from the CSD

@<TRIPOS>ATOM
     1 C1      -7.4127  -1.9613  -6.1107   C.3       1 RES1   0.0000
     2 C2      -6.5343  -3.1891  -6.0301   C.3       1 RES1   0.0000
     3 O3      -7.3422  -4.3462  -5.8297   O.3       1 RES1   0.0000
     4 C4      -6.7436  -5.6592  -5.7176   C.2       1 RES1   0.0000
     5 O5      -5.5257  -5.7441  -5.8000   O.2       1 RES1   0.0000
     6 C6      -7.6689  -6.8365  -5.5171   C.3       1 RES1   0.0000
     7 C7      -7.0409  -8.2232  -5.4104   C.3       1 RES1   0.0000
     8 C8      -8.2059  -9.2279  -5.2248   C.3       1 RES1   0.0000
     9 C9      -8.8288  -9.1058  -3.8321   C.3       1 RES1   0.0000
    10 C10     -9.9805 -10.0956  -3.6279   C.3       1 RES1   0.0000
    11 C11    -11.2589  -9.7713  -4.4263   C.3       1 RES1   0.0000
    12 C12    -12.4157 -10.0714  -3.4819   C.3       1 RES1   0.0000
    13 N13    -11.7817 -10.0747  -2.1772   N.am      1 RES1   0.0000
    14 C14    -10.4485 -10.1471  -2.1970   C.2       1 RES1   0.0000
    15 O15     -9.7360 -10.2045  -1.2194   O.2       1 RES1   0.0000
    16 N16     -7.7234 -10.5657  -5.5402   N.am      1 RES1   0.0000
    17 C17     -8.3630 -11.4360  -6.3386   C.2       1 RES1   0.0000
    18 O18     -9.4233 -11.2245  -6.9011   O.2       1 RES1   0.0000
    19 C19     -7.6951 -12.7648  -6.5145   C.3       1 RES1   0.0000
    20 C20     -7.2276 -12.7655  -7.9712   C.3       1 RES1   0.0000
    21 C21     -6.3577 -13.9269  -8.4106   C.2       1 RES1   0.0000
    22 C22     -4.9665 -13.8957  -8.3189   C.2       1 RES1   0.0000
    23 C23     -4.2125 -14.9869  -8.7513   C.2       1 RES1   0.0000
    24 C24     -4.8388 -16.1126  -9.2736   C.2       1 RES1   0.0000
    25 C25     -6.2248 -16.1465  -9.3737   C.2       1 RES1   0.0000
    26 C26     -6.9774 -15.0576  -8.9529   C.2       1 RES1   0.0000
    27 N27     -8.5275 -13.9286  -6.2218   N.am      1 RES1   0.0000
    28 C28     -8.8545 -14.4017  -5.0200   C.2       1 RES1   0.0000
    29 O29     -8.4619 -13.8702  -3.9730   O.2       1 RES1   0.0000
    30 C30     -9.7628 -15.5888  -5.1173   C.2       1 RES1   0.0000
    31 O31    -10.0367 -15.9669  -6.2425   O.2       1 RES1   0.0000
    32 N32    -10.3430 -16.3271  -4.1787   N.am      1 RES1   0.0000
    33 C33    -11.2085 -17.4579  -4.3403   C.3       1 RES1   0.0000
    34 C34    -10.3568 -18.6808  -4.6267   C.3       1 RES1   0.0000
    35 C35    -11.0599 -20.1032  -4.5103   C.3       1 RES1   0.0000
    36 C36    -10.1232 -20.4595  -3.3774   C.3       1 RES1   0.0000
    37 C37     -9.4726 -19.0676  -3.3543   C.3       1 RES1   0.0000
@<TRIPOS>BOND
     1     1     2    1
     2     2     3    1
     3     3     4    1
     4     4     5    2
     5     4     6    1
     6     6     7    1
     7     8     7    1
     8     8     9    1
     9    10     9    1
    10    10    11    1
    11    11    12    1
    12    12    13    1
    13    13    14   am
    14    14    15    2
    15     8    16    1
    16    16    17   am
    17    17    18    2
    18    17    19    1
    19    19    20    1
    20    20    21    1
    21    21    22    2
    22    22    23    1
    23    23    24    2
    24    24    25    1
    25    25    26    2
    26    19    27    1
    27    27    28   am
    28    28    29    2
    29    28    30    1
    30    30    31    2
    31    30    32   am
    32    32    33    1
    33    33    34    1
    34    34    35    1
    35    35    36    1
    36    36    37    1
    37    14    10    1
    38    26    21    1
    39    37    34    1
@<TRIPOS>SUBSTRUCTURE
     1 RES1        1 GROUP             0 ****  ****    0  
@<TRIPOS>MOLECULE
ligand_97
    37    39     1     0     0
SMALL
NO_CHARGES
****
Generated from the CSD

@<TRIPOS>ATOM
     1 C1      -7.1360  -1.9846  -6.0032   C.3       1 RES1   0.0000
     2 C2      -6.3052  -3.2461  -5.9389   C.3       1 RES1   0.0000
     3 O3      -7.1587  -4.3767  -5.7808   O.3       1 RES1   0.0000
     4 C4      -6.6112  -5.7135  -5.6918   C.2       1 RES1   0.0000
     5 O5      -5.3961  -5.8420  -5.7562   O.2       1 RES1   0.0000
     6 C6      -7.5829  -6.8599  -5.5360   C.3       1 RES1   0.0000
     7 C7      -7.0086  -8.2713  -5.4537   C.3       1 RES1   0.0000
     8 C8      -8.2059  -9.2279  -5.2248   C.3       1 RES1   0.0000
     9 C9      -7.7463 -10.6859  -5.1504   C.3       1 RES1   0.0000
    10 C10     -8.9166 -11.6470  -4.9168   C.3       1 RES1   0.0000
    11 C11     -9.5342 -11.5804  -3.5058   C.3       1 RES1   0.0000
    12 C12     -9.8284 -13.0246  -3.1216   C.3       1 RES1   0.0000
    13 N13     -8.9940 -13.7833  -4.0338   N.am      1 RES1   0.0000
    14 C14     -8.5152 -13.0909  -5.0704   C.2       1 RES1   0.0000
    15 O15     -7.8366 -13.5472  -5.9636   O.2       1 RES1   0.0000
    16 N16     -9.2073  -8.9766  -6.2524   N.am      1 RES1   0.0000
    17 C17    -10.3152  -8.2395  -6.0702   C.2       1 RES1   0.0000
    18 O18    -10.6280  -7.6872  -5.0298   O.2       1 RES1   0.0000
    19 C19    -11.2185  -8.1234  -7.2590   C.3       1 RES1   0.0000
    20 C20    -12.3372  -7.1878  -6.7967   C.3       1 RES1   0.0000
    21 C21    -13.3556  -6.7705  -7.8394   C.2       1 RES1   0.0000
    22 C22    -13.1933  -5.6332  -8.6301   C.2       1 RES1   0.0000
    23 C23    -14.1687  -5.2865  -9.5652   C.2       1 RES1   0.0000
    24 C24    -15.3066  -6.0701  -9.7188   C.2       1 RES1   0.0000
    25 C25    -15.4769  -7.2009  -8.9287   C.2       1 RES1   0.0000
    26 C26    -14.5119  -7.5430  -7.9901   C.2       1 RES1   0.0000
    27 N27    -11.7540  -9.3843  -7.7653   N.am      1 RES1   0.0000
    28 C28    -11.1159 -10.2895  -8.5059   C.2       1 RES1   0.0000
    29 O29     -9.9381 -10.1418  -8.8578   O.2       1 RES1   0.0000
    30 C30    -11.9788 -11.4787  -8.7974   C.2       1 RES1   0.0000
    31 O31    -13.1165 -11.4379  -8.3641   O.2       1 RES1   0.0000
    32 N32    -11.7276 -12.6023  -9.4585   N.am      1 RES1   0.0000
    33 C33    -12.6040 -13.7097  -9.7024   C.3       1 RES1   0.0000
    34 C34    -13.5174 -13.3564 -10.8617   C.3       1 RES1   0.0000
    35 C35    -14.3408 -14.5425 -11.5295   C.3       1 RES1   0.0000
    36 C36    -13.5992 -14.3100 -12.8271   C.3       1 RES1   0.0000
    37 C37    -12.6878 -13.2319 -12.2206   C.3       1 RES1   0.0000
@<TRIPOS>BOND
     1     1     2    1
     2     2     3    1
     3     3     4    1
     4     4     5    2
     5     4     6    1
     6     6     7    1
     7     8     7    1
     8     8     9    1
     9    10     9    1
    10    10    11    1
    11    11    12    1
    12    12    13    1
    13    13    14   am
    14    14    15    2
    15     8    16    1
    16    16    17   am
    17    17    18    2
    18    17    19    1
    19    19    20    1
    20    20    21    1
    21    21    22    2
    22    22    23    1
    23    23    24    2
    24    24    25    1
    25    25    26    2
    26    19    27    1
    27    27    28   am
    28    28    29    2
    29    28    30    1
    30    30    31    2
    31    30    32   am
    32    32    33    1
    33    33    34    1
    34    34    35    1
    35    35    36    1
    36    36    37    1
    37    14    10    1
    38    26    21    1
    39    37    34    1
@<TRIPOS>SUBSTRUCTURE
     1 RES1        1 GROUP             0 ****  ****    0  
@<TRIPOS>MOLECULE
ligand_98
    37    39     1     0     0
SMALL
NO_CHARGES
****
Generated from the CSD

@<TRIPOS>ATOM
     1 C1      -7.1649  -2.0270  -6.3547   C.3       1 RES1   0.0000
     2 C2      -6.3269  -3.2730  -6.1789   C.3       1 RES1   0.0000
     3 O3      -7.1769  -4.4035  -6.0026   O.3       1 RES1   0.0000
     4 C4      -6.6225  -5.7268  -5.8124   C.2       1 RES1   0.0000
     5 O5      -5.4044  -5.8439  -5.8078   O.2       1 RES1   0.0000
     6 C6      -7.5902  -6.8746  -5.6435   C.3       1 RES1   0.0000
     7 C7      -7.0079  -8.2724  -5.4547   C.3       1 RES1   0.0000
     8 C8      -8.2059  -9.2279  -5.2248   C.3       1 RES1   0.0000
     9 C9      -7.7474 -10.6862  -5.1493   C.3       1 RES1   0.0000
    10 C10     -6.7661 -10.9220  -3.9964   C.3       1 RES1   0.0000
    11 C11     -5.3149 -10.4893  -4.2858   C.3       1 RES1   0.0000
    12 C12     -4.4371 -11.5735  -3.6744   C.3       1 RES1   0.0000
    13 N13     -5.3512 -12.6897  -3.5239   N.am      1 RES1   0.0000
    14 C14     -6.6454 -12.3787  -3.6320   C.2       1 RES1   0.0000
    15 O15     -7.5654 -13.1546  -3.4969   O.2       1 RES1   0.0000
    16 N16     -9.2073  -8.9766  -6.2524   N.am      1 RES1   0.0000
    17 C17    -10.3152  -8.2395  -6.0702   C.2       1 RES1   0.0000
    18 O18    -10.6280  -7.6872  -5.0298   O.2       1 RES1   0.0000
    19 C19    -11.2185  -8.1234  -7.2590   C.3       1 RES1   0.0000
    20 C20    -10.5789  -7.0301  -8.1171   C.3       1 RES1   0.0000
    21 C21    -11.1785  -6.7989  -9.4903   C.2       1 RES1   0.0000
    22 C22    -10.7332  -7.4771 -10.6246   C.2       1 RES1   0.0000
    23 C23    -11.3105  -7.2155 -11.8674   C.2       1 RES1   0.0000
    24 C24    -12.3330  -6.2814 -11.9860   C.2       1 RES1   0.0000
    25 C25    -12.7763  -5.5976 -10.8599   C.2       1 RES1   0.0000
    26 C26    -12.1967  -5.8490  -9.6229   C.2       1 RES1   0.0000
    27 N27    -12.6142  -7.8161  -6.9585   N.am      1 RES1   0.0000
    28 C28    -13.6686  -8.0082  -7.7500   C.2       1 RES1   0.0000
    29 O29    -13.5628  -8.5001  -8.8813   O.2       1 RES1   0.0000
    30 C30    -14.9470  -7.6032  -7.0827   C.2       1 RES1   0.0000
    31 O31    -14.8453  -7.1356  -5.9625   O.2       1 RES1   0.0000
    32 N32    -16.2074  -7.6612  -7.4958   N.am      1 RES1   0.0000
    33 C33    -17.3938  -7.2547  -6.8023   C.3       1 RES1   0.0000
    34 C34    -17.5335  -5.7487  -6.9261   C.3       1 RES1   0.0000
    35 C35    -18.9362  -5.1110  -6.5301   C.3       1 RES1   0.0000
    36 C36    -19.1112  -4.6409  -7.9571   C.3       1 RES1   0.0000
    37 C37    -17.8241  -5.3279  -8.4391   C.3       1 RES1   0.0000
@<TRIPOS>BOND
     1     1     2    1
     2     2     3    1
     3     3     4    1
     4     4     5    2
     5     4     6    1
     6     6     7    1
     7     8     7    1
     8     8     9    1
     9    10     9    1
    10    10    11    1
    11    11    12    1
    12    12    13    1
    13    13    14   am
    14    14    15    2
    15     8    16    1
    16    16    17   am
    17    17    18    2
    18    17    19    1
    19    19    20    1
    20    20    21    1
    21    21    22    2
    22    22    23    1
    23    23    24    2
    24    24    25    1
    25    25    26    2
    26    19    27    1
    27    27    28   am
    28    28    29    2
    29    28    30    1
    30    30    31    2
    31    30    32   am
    32    32    33    1
    33    33    34    1
    34    34    35    1
    35    35    36    1
    36    36    37    1
    37    14    10    1
    38    26    21    1
    39    37    34    1
@<TRIPOS>SUBSTRUCTURE
     1 RES1        1 GROUP             0 ****  ****    0  
@<TRIPOS>MOLECULE
ligand_99
    37    39     1     0     0
SMALL
NO_CHARGES
****
Generated from the CSD

@<TRIPOS>ATOM
     1 C1      -7.4154  -1.9669  -6.1580   C.3       1 RES1   0.0000
     2 C2      -6.5345  -3.1876  -6.0176   C.3       1 RES1   0.0000
     3 O3      -7.3446  -4.3502  -5.8635   O.3       1 RES1   0.0000
     4 C4      -6.7443  -5.6581  -5.7088   C.2       1 RES1   0.0000
     5 O5      -5.5230  -5.7338  -5.7146   O.2       1 RES1   0.0000
     6 C6      -7.6715  -6.8418  -5.5617   C.3       1 RES1   0.0000
     7 C7      -7.0409  -8.2232  -5.4104   C.3       1 RES1   0.0000
     8 C8      -8.2059  -9.2279  -5.2248   C.3       1 RES1   0.0000
     9 C9      -7.6963 -10.6708  -5.1954   C.3       1 RES1   0.0000
    10 C10     -6.7162 -10.9116  -4.0424   C.3       1 RES1   0.0000
    11 C11     -5.2796 -10.4163  -4.3029   C.3       1 RES1   0.0000
    12 C12     -4.3676 -11.4890  -3.7219   C.3       1 RES1   0.0000
    13 N13     -5.2413 -12.6423  -3.6194   N.am      1 RES1   0.0000
    14 C14     -6.5451 -12.3750  -3.7285   C.2       1 RES1   0.0000
    15 O15     -7.4371 -13.1882  -3.6295   O.2       1 RES1   0.0000
    16 N16     -9.2073  -8.9766  -6.2524   N.am      1 RES1   0.0000
    17 C17    -10.5257  -8.8693  -6.0191   C.2       1 RES1   0.0000
    18 O18    -11.0556  -8.9668  -4.9260   O.2       1 RES1   0.0000
    19 C19    -11.3789  -8.6247  -7.2253   C.3       1 RES1   0.0000
    20 C20    -11.8868  -7.1925  -7.0477   C.3       1 RES1   0.0000
    21 C21    -12.6511  -6.5880  -8.2092   C.2       1 RES1   0.0000
    22 C22    -12.0208  -5.8771  -9.2301   C.2       1 RES1   0.0000
    23 C23    -12.7738  -5.3289 -10.2686   C.2       1 RES1   0.0000
    24 C24    -14.1545  -5.4876 -10.2967   C.2       1 RES1   0.0000
    25 C25    -14.7888  -6.1894  -9.2783   C.2       1 RES1   0.0000
    26 C26    -14.0425  -6.7280  -8.2380   C.2       1 RES1   0.0000
    27 N27    -12.4832  -9.5619  -7.4127   N.am      1 RES1   0.0000
    28 C28    -13.1514  -9.8025  -8.5400   C.2       1 RES1   0.0000
    29 O29    -12.8818  -9.2260  -9.6021   O.2       1 RES1   0.0000
    30 C30    -14.1975 -10.8580  -8.3527   C.2       1 RES1   0.0000
    31 O31    -14.3138 -11.3074  -7.2265   O.2       1 RES1   0.0000
    32 N32    -15.0461 -11.4123  -9.2103   N.am      1 RES1   0.0000
    33 C33    -16.0288 -12.4261  -8.9648   C.3       1 RES1   0.0000
    34 C34    -17.2493 -11.7745  -8.3413   C.3       1 RES1   0.0000
    35 C35    -18.5881 -12.6324  -8.2898   C.3       1 RES1   0.0000
    36 C36    -19.2559 -11.6215  -9.1953   C.3       1 RES1   0.0000
    37 C37    -17.9694 -10.8029  -9.3843   C.3       1 RES1   0.0000
@<TRIPOS>BOND
     1     1     2    1
     2     2     3    1
     3     3     4    1
     4     4     5    2
     5     4     6    1
     6     6     7    1
     7     8     7    1
     8     8     9    1
     9    10     9    1
    10    10    11    1
    11    11    12    1
    12    12    13    1
    13    13    14   am
    14    14    15    2
    15     8    16    1
    16    16    17   am
    17    17    18    2
    18    17    19    1
    19    19    20    1
    20    20    21    1
    21    21    22    2
    22    22    23    1
    23    23    24    2
    24    24    25    1
    25    25    26    2
    26    19    27    1
    27    27    28   am
    28    28    29    2
    29    28    30    1
    30    30    31    2
    31    30    32   am
    32    32    33    1
    33    33    34    1
    34    34    35    1
    35    35    36    1
    36    36    37    1
    37    14    10    1
    38    26    21    1
    39    37    34    1
@<TRIPOS>SUBSTRUCTURE
     1 RES1        1 GROUP             0 ****  ****    0  
