@<TRIPOS>MOLECULE
native
    42    46     1     0     0
SMALL
NO_CHARGES
****
Generated from the CSD

@<TRIPOS>ATOM
     1 C1       3.3760  12.4250  -6.9630   C.3       1 RES1   0.0000
     2 O2       2.7090  11.4660  -7.8700   O.3       1 RES1   0.0000
     3 C3       2.7300  11.7840  -9.1700   C.2       1 RES1   0.0000
     4 O4       3.3260  12.7350  -9.6470   O.2       1 RES1   0.0000
     5 N5       1.9630  10.8970  -9.8570   N.am      1 RES1   0.0000
     6 C6       1.8000  10.8320 -11.2620   C.2       1 RES1   0.0000
     7 C7       2.3790  11.7090 -12.1910   C.2       1 RES1   0.0000
     8 C8       2.1690  11.5280 -13.5500   C.2       1 RES1   0.0000
     9 C9       1.4170  10.4500 -14.0360   C.2       1 RES1   0.0000
    10 C10      1.2630  10.2040 -15.4980   C.2       1 RES1   0.0000
    11 C11      2.1980  10.6620 -16.4340   C.2       1 RES1   0.0000
    12 C12      1.9670  10.4310 -17.7770   C.2       1 RES1   0.0000
    13 N13      0.9040   9.7570 -18.2450   N.2       1 RES1   0.0000
    14 C14      0.0140   9.3170 -17.3410   C.2       1 RES1   0.0000
    15 C15     -1.1410   8.5320 -17.8730   C.3       1 RES1   0.0000
    16 C16     -0.6790   7.2120 -18.5010   C.3       1 RES1   0.0000
    17 C17     -0.0830   6.2040 -17.5340   C.2       1 RES1   0.0000
    18 C18      0.9860   5.3810 -17.9520   C.2       1 RES1   0.0000
    19 C19      1.5470   4.4360 -17.0800   C.2       1 RES1   0.0000
    20 C20      1.0580   4.3190 -15.7670   C.2       1 RES1   0.0000
    21 C21      0.0200   5.1320 -15.3460   C.2       1 RES1   0.0000
    22 C22     -0.5620   6.0500 -16.2220   C.2       1 RES1   0.0000
    23 N23     -1.9810   9.2900 -18.7990   N.am      1 RES1   0.0000
    24 C24     -3.0100  10.0650 -18.2730   C.2       1 RES1   0.0000
    25 O25     -3.1470  10.2530 -17.0520   O.2       1 RES1   0.0000
    26 C26     -3.8570  10.7860 -19.2180   C.2       1 RES1   0.0000
    27 C27     -3.6080  11.0260 -20.4780   C.2       1 RES1   0.0000
    28 C28     -4.5180  11.7580 -21.3550   C.2       1 RES1   0.0000
    29 C29     -5.8660  11.3690 -21.3640   C.2       1 RES1   0.0000
    30 C30     -6.7730  12.0460 -22.1480   C.2       1 RES1   0.0000
    31 Cl31    -8.4290  11.5180 -22.1790   Cl        1 RES1   0.0000
    32 C32     -6.4000  13.1190 -22.9240   C.2       1 RES1   0.0000
    33 C33     -5.0730  13.5220 -22.9290   C.2       1 RES1   0.0000
    34 C34     -4.1220  12.8430 -22.1570   C.2       1 RES1   0.0000
    35 N35     -2.7420  13.2260 -22.2520   N.pl3     1 RES1   0.0000
    36 C36     -1.9220  13.3610 -23.2980   C.2       1 RES1   0.0000
    37 N37     -0.7340  13.7120 -22.8870   N.2       1 RES1   0.0000
    38 N38     -0.8270  13.7960 -21.5380   N.2       1 RES1   0.0000
    39 N39     -2.0300  13.5160 -21.1330   N.2       1 RES1   0.0000
    40 C40      0.1490   9.5260 -15.9970   C.2       1 RES1   0.0000
    41 C41      0.8450   9.5840 -13.0940   C.2       1 RES1   0.0000
    42 C42      1.0110   9.7790 -11.7320   C.2       1 RES1   0.0000
@<TRIPOS>BOND
     1     1     2    1
     2     2     3    1
     3     3     4    2
     4     3     5   am
     5     5     6    1
     6     6     7    2
     7     7     8    1
     8     8     9    2
     9     9    10    1
    10    10    11    2
    11    11    12    1
    12    12    13    2
    13    13    14    1
    14    14    15    1
    15    15    16    1
    16    16    17    1
    17    17    18    2
    18    18    19    1
    19    19    20    2
    20    20    21    1
    21    21    22    2
    22    15    23    1
    23    23    24   am
    24    24    25    2
    25    24    26    1
    26    26    27    2
    27    27    28    1
    28    28    29    2
    29    29    30    1
    30    30    31    1
    31    30    32    2
    32    32    33    1
    33    33    34    2
    34    34    35    1
    35    35    36    1
    36    36    37    2
    37    37    38    1
    38    38    39    2
    39    14    40    2
    40     9    41    1
    41    41    42    2
    42    42     6    1
    43    40    10    1
    44    22    17    1
    45    34    28    1
    46    39    35    1
@<TRIPOS>SUBSTRUCTURE
     1 RES1        1 GROUP             0 ****  ****    0  
@<TRIPOS>MOLECULE
ligand_0
    42    46     1     0     0
SMALL
NO_CHARGES
****
Generated from the CSD

@<TRIPOS>ATOM
     1 C1       3.9635  23.8018 -14.1251   C.3       1 RES1   0.0000
     2 O2       3.0830  22.7721 -13.5321   O.3       1 RES1   0.0000
     3 C3       2.0013  22.4480 -14.2508   C.2       1 RES1   0.0000
     4 O4       1.7078  22.9347 -15.3297   O.2       1 RES1   0.0000
     5 N5       1.2795  21.5175 -13.5724   N.am      1 RES1   0.0000
     6 C6       0.0546  20.9363 -13.9808   C.2       1 RES1   0.0000
     7 C7      -0.6301  21.2292 -15.1693   C.2       1 RES1   0.0000
     8 C8      -1.8126  20.5724 -15.4763   C.2       1 RES1   0.0000
     9 C9      -2.3326  19.5749 -14.6406   C.2       1 RES1   0.0000
    10 C10     -3.5554  18.8075 -15.0115   C.2       1 RES1   0.0000
    11 C11     -4.0976  17.8206 -14.1795   C.2       1 RES1   0.0000
    12 C12     -5.2102  17.1221 -14.6090   C.2       1 RES1   0.0000
    13 N13     -5.8322  17.3560 -15.7759   N.2       1 RES1   0.0000
    14 C14     -5.3090  18.3070 -16.5664   C.2       1 RES1   0.0000
    15 C15     -6.0365  18.5856 -17.8417   C.3       1 RES1   0.0000
    16 C16     -7.3173  19.3902 -17.5914   C.3       1 RES1   0.0000
    17 C17     -7.9964  19.9372 -18.8347   C.2       1 RES1   0.0000
    18 C18     -7.6457  21.2173 -19.3176   C.2       1 RES1   0.0000
    19 C19     -8.2657  21.7480 -20.4587   C.2       1 RES1   0.0000
    20 C20     -9.2311  20.9914 -21.1459   C.2       1 RES1   0.0000
    21 C21     -9.5696  19.7304 -20.6866   C.2       1 RES1   0.0000
    22 C22     -8.9782  19.2136 -19.5324   C.2       1 RES1   0.0000
    23 N23     -6.3148  17.3835 -18.6260   N.am      1 RES1   0.0000
    24 C24     -5.3016  16.8711 -19.4303   C.2       1 RES1   0.0000
    25 O25     -4.1775  17.3965 -19.5038   O.2       1 RES1   0.0000
    26 C26     -5.5493  15.5918 -20.0878   C.2       1 RES1   0.0000
    27 C27     -4.6997  14.8836 -20.7834   C.2       1 RES1   0.0000
    28 C28     -5.0347  13.6067 -21.4081   C.2       1 RES1   0.0000
    29 C29     -6.3574  13.1532 -21.2921   C.2       1 RES1   0.0000
    30 C30     -6.7353  11.9717 -21.8895   C.2       1 RES1   0.0000
    31 Cl31    -8.3673  11.4057 -21.6943   Cl        1 RES1   0.0000
    32 C32     -5.8498  11.2155 -22.6220   C.2       1 RES1   0.0000
    33 C33     -4.5377  11.6457 -22.7514   C.2       1 RES1   0.0000
    34 C34     -4.1166  12.8335 -22.1406   C.2       1 RES1   0.0000
    35 N35     -2.7327  13.2063 -22.2167   N.pl3     1 RES1   0.0000
    36 C36     -1.8983  13.3380 -23.2517   C.2       1 RES1   0.0000
    37 N37     -0.7130  13.6787 -22.8244   N.2       1 RES1   0.0000
    38 N38     -0.8227  13.7596 -21.4764   N.2       1 RES1   0.0000
    39 N39     -2.0329  13.4876 -21.0878   N.2       1 RES1   0.0000
    40 C40     -4.1951  19.0257 -16.2333   C.2       1 RES1   0.0000
    41 C41     -1.6363  19.2956 -13.4568   C.2       1 RES1   0.0000
    42 C42     -0.4773  19.9753 -13.1172   C.2       1 RES1   0.0000
@<TRIPOS>BOND
     1     1     2    1
     2     2     3    1
     3     3     4    2
     4     3     5   am
     5     5     6    1
     6     6     7    2
     7     7     8    1
     8     8     9    2
     9     9    10    1
    10    10    11    2
    11    11    12    1
    12    12    13    2
    13    13    14    1
    14    14    15    1
    15    15    16    1
    16    16    17    1
    17    17    18    2
    18    18    19    1
    19    19    20    2
    20    20    21    1
    21    21    22    2
    22    15    23    1
    23    23    24   am
    24    24    25    2
    25    24    26    1
    26    26    27    2
    27    27    28    1
    28    28    29    2
    29    29    30    1
    30    30    31    1
    31    30    32    2
    32    32    33    1
    33    33    34    2
    34    34    35    1
    35    35    36    1
    36    36    37    2
    37    37    38    1
    38    38    39    2
    39    14    40    2
    40     9    41    1
    41    41    42    2
    42    42     6    1
    43    40    10    1
    44    22    17    1
    45    34    28    1
    46    39    35    1
@<TRIPOS>SUBSTRUCTURE
     1 RES1        1 GROUP             0 ****  ****    0  
@<TRIPOS>MOLECULE
ligand_1
    42    46     1     0     0
SMALL
NO_CHARGES
****
Generated from the CSD

@<TRIPOS>ATOM
     1 C1       3.6268  23.0405 -11.4391   C.3       1 RES1   0.0000
     2 O2       2.6944  22.9322 -12.5820   O.3       1 RES1   0.0000
     3 C3       1.7529  21.9866 -12.4769   C.2       1 RES1   0.0000
     4 O4       1.6221  21.2336 -11.5266   O.2       1 RES1   0.0000
     5 N5       0.9942  21.9876 -13.6044   N.am      1 RES1   0.0000
     6 C6      -0.0873  21.1213 -13.8955   C.2       1 RES1   0.0000
     7 C7      -0.5621  20.1007 -13.0585   C.2       1 RES1   0.0000
     8 C8      -1.6512  19.3317 -13.4405   C.2       1 RES1   0.0000
     9 C9      -2.3326  19.5749 -14.6406   C.2       1 RES1   0.0000
    10 C10     -3.5554  18.8075 -15.0115   C.2       1 RES1   0.0000
    11 C11     -4.0976  17.8206 -14.1795   C.2       1 RES1   0.0000
    12 C12     -5.2102  17.1221 -14.6090   C.2       1 RES1   0.0000
    13 N13     -5.8322  17.3560 -15.7759   N.2       1 RES1   0.0000
    14 C14     -5.3090  18.3070 -16.5664   C.2       1 RES1   0.0000
    15 C15     -6.0365  18.5856 -17.8417   C.3       1 RES1   0.0000
    16 C16     -7.3173  19.3902 -17.5914   C.3       1 RES1   0.0000
    17 C17     -7.9964  19.9372 -18.8347   C.2       1 RES1   0.0000
    18 C18     -7.6457  21.2173 -19.3176   C.2       1 RES1   0.0000
    19 C19     -8.2657  21.7480 -20.4587   C.2       1 RES1   0.0000
    20 C20     -9.2311  20.9914 -21.1459   C.2       1 RES1   0.0000
    21 C21     -9.5696  19.7304 -20.6866   C.2       1 RES1   0.0000
    22 C22     -8.9782  19.2136 -19.5324   C.2       1 RES1   0.0000
    23 N23     -6.3148  17.3835 -18.6260   N.am      1 RES1   0.0000
    24 C24     -5.3016  16.8711 -19.4303   C.2       1 RES1   0.0000
    25 O25     -4.1775  17.3965 -19.5038   O.2       1 RES1   0.0000
    26 C26     -5.5493  15.5918 -20.0878   C.2       1 RES1   0.0000
    27 C27     -4.6997  14.8836 -20.7834   C.2       1 RES1   0.0000
    28 C28     -5.0347  13.6067 -21.4081   C.2       1 RES1   0.0000
    29 C29     -6.3574  13.1532 -21.2921   C.2       1 RES1   0.0000
    30 C30     -6.7353  11.9717 -21.8895   C.2       1 RES1   0.0000
    31 Cl31    -8.3674  11.4058 -21.6943   Cl        1 RES1   0.0000
    32 C32     -5.8498  11.2155 -22.6220   C.2       1 RES1   0.0000
    33 C33     -4.5377  11.6457 -22.7514   C.2       1 RES1   0.0000
    34 C34     -4.1166  12.8335 -22.1406   C.2       1 RES1   0.0000
    35 N35     -2.7326  13.2063 -22.2167   N.pl3     1 RES1   0.0000
    36 C36     -1.8982  13.3380 -23.2516   C.2       1 RES1   0.0000
    37 N37     -0.7130  13.6787 -22.8243   N.2       1 RES1   0.0000
    38 N38     -0.8227  13.7596 -21.4764   N.2       1 RES1   0.0000
    39 N39     -2.0329  13.4876 -21.0877   N.2       1 RES1   0.0000
    40 C40     -4.1951  19.0257 -16.2333   C.2       1 RES1   0.0000
    41 C41     -1.8444  20.5977 -15.4653   C.2       1 RES1   0.0000
    42 C42     -0.7306  21.3445 -15.1156   C.2       1 RES1   0.0000
@<TRIPOS>BOND
     1     1     2    1
     2     2     3    1
     3     3     4    2
     4     3     5   am
     5     5     6    1
     6     6     7    2
     7     7     8    1
     8     8     9    2
     9     9    10    1
    10    10    11    2
    11    11    12    1
    12    12    13    2
    13    13    14    1
    14    14    15    1
    15    15    16    1
    16    16    17    1
    17    17    18    2
    18    18    19    1
    19    19    20    2
    20    20    21    1
    21    21    22    2
    22    15    23    1
    23    23    24   am
    24    24    25    2
    25    24    26    1
    26    26    27    2
    27    27    28    1
    28    28    29    2
    29    29    30    1
    30    30    31    1
    31    30    32    2
    32    32    33    1
    33    33    34    2
    34    34    35    1
    35    35    36    1
    36    36    37    2
    37    37    38    1
    38    38    39    2
    39    14    40    2
    40     9    41    1
    41    41    42    2
    42    42     6    1
    43    40    10    1
    44    22    17    1
    45    34    28    1
    46    39    35    1
@<TRIPOS>SUBSTRUCTURE
     1 RES1        1 GROUP             0 ****  ****    0  
@<TRIPOS>MOLECULE
ligand_2
    42    46     1     0     0
SMALL
NO_CHARGES
****
Generated from the CSD

@<TRIPOS>ATOM
     1 C1       6.5980   9.5527 -33.3032   C.3       1 RES1   0.0000
     2 O2       5.2319  10.0653 -33.5446   O.3       1 RES1   0.0000
     3 C3       4.2892   9.6282 -32.7009   C.2       1 RES1   0.0000
     4 O4       4.4826   8.8579 -31.7755   O.2       1 RES1   0.0000
     5 N5       3.0905  10.1581 -33.0607   N.am      1 RES1   0.0000
     6 C6       1.8412   9.9210 -32.4380   C.2       1 RES1   0.0000
     7 C7       1.6276   9.0859 -31.3315   C.2       1 RES1   0.0000
     8 C8       0.3581   8.9535 -30.7888   C.2       1 RES1   0.0000
     9 C9      -0.7316   9.6754 -31.2942   C.2       1 RES1   0.0000
    10 C10     -2.0774   9.6014 -30.6579   C.2       1 RES1   0.0000
    11 C11     -3.1800  10.3023 -31.1612   C.2       1 RES1   0.0000
    12 C12     -4.3872  10.2169 -30.4937   C.2       1 RES1   0.0000
    13 N13     -4.5804   9.4675 -29.3962   N.2       1 RES1   0.0000
    14 C14     -3.5196   8.7947 -28.9221   C.2       1 RES1   0.0000
    15 C15     -3.7602   7.9318 -27.7260   C.3       1 RES1   0.0000
    16 C16     -4.5039   6.6456 -28.1039   C.3       1 RES1   0.0000
    17 C17     -4.5779   5.5914 -27.0132   C.2       1 RES1   0.0000
    18 C18     -3.5612   4.6163 -26.9125   C.2       1 RES1   0.0000
    19 C19     -3.6123   3.6268 -25.9193   C.2       1 RES1   0.0000
    20 C20     -4.6738   3.6154 -24.9974   C.2       1 RES1   0.0000
    21 C21     -5.6663   4.5764 -25.0813   C.2       1 RES1   0.0000
    22 C22     -5.6352   5.5420 -26.0890   C.2       1 RES1   0.0000
    23 N23     -4.4365   8.6293 -26.6334   N.am      1 RES1   0.0000
    24 C24     -3.6721   9.4238 -25.7845   C.2       1 RES1   0.0000
    25 O25     -2.4443   9.5594 -25.9227   O.2       1 RES1   0.0000
    26 C26     -4.3842  10.2264 -24.7951   C.2       1 RES1   0.0000
    27 C27     -3.8757  11.1197 -23.9885   C.2       1 RES1   0.0000
    28 C28     -4.6672  11.8812 -23.0259   C.2       1 RES1   0.0000
    29 C29     -6.0244  11.5510 -22.8939   C.2       1 RES1   0.0000
    30 C30     -6.8091  12.2153 -21.9782   C.2       1 RES1   0.0000
    31 Cl31    -8.4985  11.8217 -21.8638   Cl        1 RES1   0.0000
    32 C32     -6.2960  13.1976 -21.1630   C.2       1 RES1   0.0000
    33 C33     -4.9565  13.5390 -21.2751   C.2       1 RES1   0.0000
    34 C34     -4.1356  12.8952 -22.2095   C.2       1 RES1   0.0000
    35 N35     -2.7772  13.3319 -22.3648   N.pl3     1 RES1   0.0000
    36 C36     -2.0178  13.5220 -23.4473   C.2       1 RES1   0.0000
    37 N37     -0.8237  13.9078 -23.0884   N.2       1 RES1   0.0000
    38 N38     -0.8499  13.9567 -21.7348   N.2       1 RES1   0.0000
    39 N39     -2.0194  13.6223 -21.2764   N.2       1 RES1   0.0000
    40 C40     -2.2830   8.8450 -29.5024   C.2       1 RES1   0.0000
    41 C41     -0.5006  10.5044 -32.4004   C.2       1 RES1   0.0000
    42 C42      0.7540  10.6119 -32.9793   C.2       1 RES1   0.0000
@<TRIPOS>BOND
     1     1     2    1
     2     2     3    1
     3     3     4    2
     4     3     5   am
     5     5     6    1
     6     6     7    2
     7     7     8    1
     8     8     9    2
     9     9    10    1
    10    10    11    2
    11    11    12    1
    12    12    13    2
    13    13    14    1
    14    14    15    1
    15    15    16    1
    16    16    17    1
    17    17    18    2
    18    18    19    1
    19    19    20    2
    20    20    21    1
    21    21    22    2
    22    15    23    1
    23    23    24   am
    24    24    25    2
    25    24    26    1
    26    26    27    2
    27    27    28    1
    28    28    29    2
    29    29    30    1
    30    30    31    1
    31    30    32    2
    32    32    33    1
    33    33    34    2
    34    34    35    1
    35    35    36    1
    36    36    37    2
    37    37    38    1
    38    38    39    2
    39    14    40    2
    40     9    41    1
    41    41    42    2
    42    42     6    1
    43    40    10    1
    44    22    17    1
    45    34    28    1
    46    39    35    1
@<TRIPOS>SUBSTRUCTURE
     1 RES1        1 GROUP             0 ****  ****    0  
@<TRIPOS>MOLECULE
ligand_3
    42    46     1     0     0
SMALL
NO_CHARGES
****
Generated from the CSD

@<TRIPOS>ATOM
     1 C1       5.4285  10.5400 -35.6622   C.3       1 RES1   0.0000
     2 O2       4.7991   9.9177 -34.4774   O.3       1 RES1   0.0000
     3 C3       3.5150  10.2323 -34.2684   C.2       1 RES1   0.0000
     4 O4       2.8545  10.9768 -34.9731   O.2       1 RES1   0.0000
     5 N5       3.0839   9.6128 -33.1381   N.am      1 RES1   0.0000
     6 C6       1.7947   9.7103 -32.5608   C.2       1 RES1   0.0000
     7 C7       0.7321  10.4752 -33.0640   C.2       1 RES1   0.0000
     8 C8      -0.4987  10.4699 -32.4248   C.2       1 RES1   0.0000
     9 C9      -0.7316   9.6754 -31.2942   C.2       1 RES1   0.0000
    10 C10     -2.0774   9.6014 -30.6579   C.2       1 RES1   0.0000
    11 C11     -3.1800  10.3023 -31.1612   C.2       1 RES1   0.0000
    12 C12     -4.3872  10.2169 -30.4937   C.2       1 RES1   0.0000
    13 N13     -4.5804   9.4675 -29.3962   N.2       1 RES1   0.0000
    14 C14     -3.5196   8.7947 -28.9221   C.2       1 RES1   0.0000
    15 C15     -3.7602   7.9318 -27.7260   C.3       1 RES1   0.0000
    16 C16     -4.5039   6.6456 -28.1039   C.3       1 RES1   0.0000
    17 C17     -4.5779   5.5914 -27.0132   C.2       1 RES1   0.0000
    18 C18     -3.5612   4.6163 -26.9125   C.2       1 RES1   0.0000
    19 C19     -3.6123   3.6268 -25.9193   C.2       1 RES1   0.0000
    20 C20     -4.6738   3.6154 -24.9974   C.2       1 RES1   0.0000
    21 C21     -5.6663   4.5764 -25.0813   C.2       1 RES1   0.0000
    22 C22     -5.6352   5.5420 -26.0890   C.2       1 RES1   0.0000
    23 N23     -4.4365   8.6293 -26.6334   N.am      1 RES1   0.0000
    24 C24     -3.6721   9.4238 -25.7845   C.2       1 RES1   0.0000
    25 O25     -2.4443   9.5594 -25.9227   O.2       1 RES1   0.0000
    26 C26     -4.3842  10.2264 -24.7951   C.2       1 RES1   0.0000
    27 C27     -3.8757  11.1197 -23.9885   C.2       1 RES1   0.0000
    28 C28     -4.6672  11.8812 -23.0259   C.2       1 RES1   0.0000
    29 C29     -6.0244  11.5510 -22.8940   C.2       1 RES1   0.0000
    30 C30     -6.8091  12.2153 -21.9782   C.2       1 RES1   0.0000
    31 Cl31    -8.4985  11.8217 -21.8638   Cl        1 RES1   0.0000
    32 C32     -6.2960  13.1976 -21.1630   C.2       1 RES1   0.0000
    33 C33     -4.9565  13.5390 -21.2751   C.2       1 RES1   0.0000
    34 C34     -4.1356  12.8952 -22.2095   C.2       1 RES1   0.0000
    35 N35     -2.7772  13.3319 -22.3648   N.pl3     1 RES1   0.0000
    36 C36     -2.0178  13.5220 -23.4473   C.2       1 RES1   0.0000
    37 N37     -0.8237  13.9078 -23.0884   N.2       1 RES1   0.0000
    38 N38     -0.8499  13.9567 -21.7348   N.2       1 RES1   0.0000
    39 N39     -2.0194  13.6223 -21.2764   N.2       1 RES1   0.0000
    40 C40     -2.2830   8.8450 -29.5024   C.2       1 RES1   0.0000
    41 C41      0.3413   8.9181 -30.8042   C.2       1 RES1   0.0000
    42 C42      1.5883   8.9483 -31.4080   C.2       1 RES1   0.0000
@<TRIPOS>BOND
     1     1     2    1
     2     2     3    1
     3     3     4    2
     4     3     5   am
     5     5     6    1
     6     6     7    2
     7     7     8    1
     8     8     9    2
     9     9    10    1
    10    10    11    2
    11    11    12    1
    12    12    13    2
    13    13    14    1
    14    14    15    1
    15    15    16    1
    16    16    17    1
    17    17    18    2
    18    18    19    1
    19    19    20    2
    20    20    21    1
    21    21    22    2
    22    15    23    1
    23    23    24   am
    24    24    25    2
    25    24    26    1
    26    26    27    2
    27    27    28    1
    28    28    29    2
    29    29    30    1
    30    30    31    1
    31    30    32    2
    32    32    33    1
    33    33    34    2
    34    34    35    1
    35    35    36    1
    36    36    37    2
    37    37    38    1
    38    38    39    2
    39    14    40    2
    40     9    41    1
    41    41    42    2
    42    42     6    1
    43    40    10    1
    44    22    17    1
    45    34    28    1
    46    39    35    1
@<TRIPOS>SUBSTRUCTURE
     1 RES1        1 GROUP             0 ****  ****    0  
@<TRIPOS>MOLECULE
ligand_4
    42    46     1     0     0
SMALL
NO_CHARGES
****
Generated from the CSD

@<TRIPOS>ATOM
     1 C1       5.6569  19.5643 -16.0168   C.3       1 RES1   0.0000
     2 O2       4.5278  19.1859 -15.1397   O.3       1 RES1   0.0000
     3 C3       3.3153  19.2187 -15.7058   C.2       1 RES1   0.0000
     4 O4       3.0930  19.5317 -16.8633   O.2       1 RES1   0.0000
     5 N5       2.3825  18.8761 -14.7787   N.am      1 RES1   0.0000
     6 C6       0.9812  18.8168 -14.9723   C.2       1 RES1   0.0000
     7 C7       0.3109  19.1083 -16.1695   C.2       1 RES1   0.0000
     8 C8      -1.0686  18.9872 -16.2470   C.2       1 RES1   0.0000
     9 C9      -1.8246  18.5325 -15.1582   C.2       1 RES1   0.0000
    10 C10     -3.2957  18.3185 -15.2665   C.2       1 RES1   0.0000
    11 C11     -4.0677  17.8820 -14.1831   C.2       1 RES1   0.0000
    12 C12     -5.4201  17.6667 -14.3703   C.2       1 RES1   0.0000
    13 N13     -6.0552  17.8842 -15.5333   N.2       1 RES1   0.0000
    14 C14     -5.3090  18.3070 -16.5664   C.2       1 RES1   0.0000
    15 C15     -6.0365  18.5856 -17.8417   C.3       1 RES1   0.0000
    16 C16     -7.3173  19.3902 -17.5914   C.3       1 RES1   0.0000
    17 C17     -7.9964  19.9372 -18.8347   C.2       1 RES1   0.0000
    18 C18     -7.6457  21.2173 -19.3176   C.2       1 RES1   0.0000
    19 C19     -8.2657  21.7480 -20.4587   C.2       1 RES1   0.0000
    20 C20     -9.2311  20.9914 -21.1459   C.2       1 RES1   0.0000
    21 C21     -9.5696  19.7304 -20.6866   C.2       1 RES1   0.0000
    22 C22     -8.9782  19.2136 -19.5324   C.2       1 RES1   0.0000
    23 N23     -6.3148  17.3835 -18.6260   N.am      1 RES1   0.0000
    24 C24     -5.3016  16.8711 -19.4303   C.2       1 RES1   0.0000
    25 O25     -4.1775  17.3965 -19.5038   O.2       1 RES1   0.0000
    26 C26     -5.5493  15.5918 -20.0878   C.2       1 RES1   0.0000
    27 C27     -4.6997  14.8836 -20.7834   C.2       1 RES1   0.0000
    28 C28     -5.0347  13.6067 -21.4081   C.2       1 RES1   0.0000
    29 C29     -6.3574  13.1532 -21.2921   C.2       1 RES1   0.0000
    30 C30     -6.7353  11.9717 -21.8895   C.2       1 RES1   0.0000
    31 Cl31    -8.3673  11.4057 -21.6943   Cl        1 RES1   0.0000
    32 C32     -5.8498  11.2155 -22.6220   C.2       1 RES1   0.0000
    33 C33     -4.5377  11.6457 -22.7514   C.2       1 RES1   0.0000
    34 C34     -4.1166  12.8335 -22.1406   C.2       1 RES1   0.0000
    35 N35     -2.7327  13.2063 -22.2167   N.pl3     1 RES1   0.0000
    36 C36     -1.8983  13.3380 -23.2517   C.2       1 RES1   0.0000
    37 N37     -0.7130  13.6787 -22.8244   N.2       1 RES1   0.0000
    38 N38     -0.8227  13.7596 -21.4764   N.2       1 RES1   0.0000
    39 N39     -2.0329  13.4876 -21.0878   N.2       1 RES1   0.0000
    40 C40     -3.9615  18.5179 -16.4775   C.2       1 RES1   0.0000
    41 C41     -1.1390  18.2467 -13.9696   C.2       1 RES1   0.0000
    42 C42      0.2338  18.4053 -13.8658   C.2       1 RES1   0.0000
@<TRIPOS>BOND
     1     1     2    1
     2     2     3    1
     3     3     4    2
     4     3     5   am
     5     5     6    1
     6     6     7    2
     7     7     8    1
     8     8     9    2
     9     9    10    1
    10    10    11    2
    11    11    12    1
    12    12    13    2
    13    13    14    1
    14    14    15    1
    15    15    16    1
    16    16    17    1
    17    17    18    2
    18    18    19    1
    19    19    20    2
    20    20    21    1
    21    21    22    2
    22    15    23    1
    23    23    24   am
    24    24    25    2
    25    24    26    1
    26    26    27    2
    27    27    28    1
    28    28    29    2
    29    29    30    1
    30    30    31    1
    31    30    32    2
    32    32    33    1
    33    33    34    2
    34    34    35    1
    35    35    36    1
    36    36    37    2
    37    37    38    1
    38    38    39    2
    39    14    40    2
    40     9    41    1
    41    41    42    2
    42    42     6    1
    43    40    10    1
    44    22    17    1
    45    34    28    1
    46    39    35    1
@<TRIPOS>SUBSTRUCTURE
     1 RES1        1 GROUP             0 ****  ****    0  
@<TRIPOS>MOLECULE
ligand_5
    42    46     1     0     0
SMALL
NO_CHARGES
****
Generated from the CSD

@<TRIPOS>ATOM
     1 C1       5.4388  19.6458 -13.2144   C.3       1 RES1   0.0000
     2 O2       4.3867  19.7068 -14.2519   O.3       1 RES1   0.0000
     3 C3       3.1651  19.3200 -13.8650   C.2       1 RES1   0.0000
     4 O4       2.8770  18.9329 -12.7451   O.2       1 RES1   0.0000
     5 N5       2.3165  19.4034 -14.9233   N.am      1 RES1   0.0000
     6 C6       0.9431  19.0591 -14.9338   C.2       1 RES1   0.0000
     7 C7       0.2185  18.5648 -13.8393   C.2       1 RES1   0.0000
     8 C8      -1.1351  18.2883 -13.9629   C.2       1 RES1   0.0000
     9 C9      -1.8246  18.5325 -15.1582   C.2       1 RES1   0.0000
    10 C10     -3.2957  18.3185 -15.2665   C.2       1 RES1   0.0000
    11 C11     -4.0677  17.8820 -14.1831   C.2       1 RES1   0.0000
    12 C12     -5.4201  17.6667 -14.3703   C.2       1 RES1   0.0000
    13 N13     -6.0552  17.8842 -15.5333   N.2       1 RES1   0.0000
    14 C14     -5.3090  18.3070 -16.5664   C.2       1 RES1   0.0000
    15 C15     -6.0365  18.5856 -17.8417   C.3       1 RES1   0.0000
    16 C16     -7.3173  19.3902 -17.5914   C.3       1 RES1   0.0000
    17 C17     -7.9964  19.9372 -18.8347   C.2       1 RES1   0.0000
    18 C18     -7.6457  21.2173 -19.3176   C.2       1 RES1   0.0000
    19 C19     -8.2657  21.7480 -20.4587   C.2       1 RES1   0.0000
    20 C20     -9.2311  20.9914 -21.1459   C.2       1 RES1   0.0000
    21 C21     -9.5696  19.7304 -20.6866   C.2       1 RES1   0.0000
    22 C22     -8.9782  19.2136 -19.5324   C.2       1 RES1   0.0000
    23 N23     -6.3148  17.3835 -18.6260   N.am      1 RES1   0.0000
    24 C24     -5.3016  16.8711 -19.4303   C.2       1 RES1   0.0000
    25 O25     -4.1775  17.3965 -19.5038   O.2       1 RES1   0.0000
    26 C26     -5.5493  15.5918 -20.0878   C.2       1 RES1   0.0000
    27 C27     -4.6997  14.8836 -20.7834   C.2       1 RES1   0.0000
    28 C28     -5.0347  13.6067 -21.4081   C.2       1 RES1   0.0000
    29 C29     -6.3574  13.1532 -21.2921   C.2       1 RES1   0.0000
    30 C30     -6.7353  11.9717 -21.8895   C.2       1 RES1   0.0000
    31 Cl31    -8.3674  11.4058 -21.6943   Cl        1 RES1   0.0000
    32 C32     -5.8498  11.2155 -22.6220   C.2       1 RES1   0.0000
    33 C33     -4.5377  11.6457 -22.7514   C.2       1 RES1   0.0000
    34 C34     -4.1166  12.8335 -22.1406   C.2       1 RES1   0.0000
    35 N35     -2.7326  13.2063 -22.2167   N.pl3     1 RES1   0.0000
    36 C36     -1.8982  13.3380 -23.2516   C.2       1 RES1   0.0000
    37 N37     -0.7130  13.6787 -22.8243   N.2       1 RES1   0.0000
    38 N38     -0.8227  13.7596 -21.4764   N.2       1 RES1   0.0000
    39 N39     -2.0329  13.4876 -21.0877   N.2       1 RES1   0.0000
    40 C40     -3.9615  18.5179 -16.4775   C.2       1 RES1   0.0000
    41 C41     -1.0851  19.0256 -16.2419   C.2       1 RES1   0.0000
    42 C42      0.2765  19.2648 -16.1444   C.2       1 RES1   0.0000
@<TRIPOS>BOND
     1     1     2    1
     2     2     3    1
     3     3     4    2
     4     3     5   am
     5     5     6    1
     6     6     7    2
     7     7     8    1
     8     8     9    2
     9     9    10    1
    10    10    11    2
    11    11    12    1
    12    12    13    2
    13    13    14    1
    14    14    15    1
    15    15    16    1
    16    16    17    1
    17    17    18    2
    18    18    19    1
    19    19    20    2
    20    20    21    1
    21    21    22    2
    22    15    23    1
    23    23    24   am
    24    24    25    2
    25    24    26    1
    26    26    27    2
    27    27    28    1
    28    28    29    2
    29    29    30    1
    30    30    31    1
    31    30    32    2
    32    32    33    1
    33    33    34    2
    34    34    35    1
    35    35    36    1
    36    36    37    2
    37    37    38    1
    38    38    39    2
    39    14    40    2
    40     9    41    1
    41    41    42    2
    42    42     6    1
    43    40    10    1
    44    22    17    1
    45    34    28    1
    46    39    35    1
@<TRIPOS>SUBSTRUCTURE
     1 RES1        1 GROUP             0 ****  ****    0  
@<TRIPOS>MOLECULE
ligand_6
    42    46     1     0     0
SMALL
NO_CHARGES
****
Generated from the CSD

@<TRIPOS>ATOM
     1 C1       8.5587   3.3160 -16.3522   C.3       1 RES1   0.0000
     2 O2       7.5547   4.3966 -16.4600   O.3       1 RES1   0.0000
     3 C3       6.3161   4.0092 -16.7875   C.2       1 RES1   0.0000
     4 O4       5.9768   2.8565 -16.9956   O.2       1 RES1   0.0000
     5 N5       5.5164   5.1045 -16.8753   N.am      1 RES1   0.0000
     6 C6       4.1442   5.1227 -17.2238   C.2       1 RES1   0.0000
     7 C7       3.3696   3.9979 -17.5437   C.2       1 RES1   0.0000
     8 C8       2.0225   4.1374 -17.8429   C.2       1 RES1   0.0000
     9 C9       1.3883   5.3860 -17.7928   C.2       1 RES1   0.0000
    10 C10     -0.0768   5.5255 -18.0284   C.2       1 RES1   0.0000
    11 C11     -0.7759   4.6815 -18.8996   C.2       1 RES1   0.0000
    12 C12     -2.1265   4.8974 -19.0987   C.2       1 RES1   0.0000
    13 N13     -2.8271   5.8587 -18.4755   N.2       1 RES1   0.0000
    14 C14     -2.1507   6.6614 -17.6381   C.2       1 RES1   0.0000
    15 C15     -2.9515   7.6986 -16.9197   C.3       1 RES1   0.0000
    16 C16     -3.7768   7.0818 -15.7845   C.3       1 RES1   0.0000
    17 C17     -4.4292   8.0753 -14.8392   C.2       1 RES1   0.0000
    18 C18     -3.7316   8.5099 -13.6906   C.2       1 RES1   0.0000
    19 C19     -4.3168   9.4200 -12.7976   C.2       1 RES1   0.0000
    20 C20     -5.6030   9.9253 -13.0567   C.2       1 RES1   0.0000
    21 C21     -6.2869   9.5146 -14.1878   C.2       1 RES1   0.0000
    22 C22     -5.7203   8.5839 -15.0604   C.2       1 RES1   0.0000
    23 N23     -3.7930   8.5001 -17.8069   N.am      1 RES1   0.0000
    24 C24     -3.2086   9.5636 -18.4878   C.2       1 RES1   0.0000
    25 O25     -2.0056   9.8526 -18.3682   O.2       1 RES1   0.0000
    26 C26     -4.0266  10.2565 -19.4782   C.2       1 RES1   0.0000
    27 C27     -3.6426  11.1938 -20.3036   C.2       1 RES1   0.0000
    28 C28     -4.5332  11.8342 -21.2679   C.2       1 RES1   0.0000
    29 C29     -5.8751  11.4250 -21.2853   C.2       1 RES1   0.0000
    30 C30     -6.7649  12.0185 -22.1522   C.2       1 RES1   0.0000
    31 Cl31    -8.4122  11.4641 -22.1892   Cl        1 RES1   0.0000
    32 C32     -6.3809  13.0272 -23.0052   C.2       1 RES1   0.0000
    33 C33     -5.0597  13.4489 -23.0036   C.2       1 RES1   0.0000
    34 C34     -4.1255  12.8530 -22.1471   C.2       1 RES1   0.0000
    35 N35     -2.7482  13.2479 -22.2317   N.pl3     1 RES1   0.0000
    36 C36     -1.9062  13.3380 -23.2650   C.2       1 RES1   0.0000
    37 N37     -0.7320  13.7252 -22.8470   N.2       1 RES1   0.0000
    38 N38     -0.8566  13.8790 -21.5067   N.2       1 RES1   0.0000
    39 N39     -2.0652  13.6055 -21.1142   N.2       1 RES1   0.0000
    40 C40     -0.8097   6.5372 -17.4046   C.2       1 RES1   0.0000
    41 C41      2.1772   6.4994 -17.4724   C.2       1 RES1   0.0000
    42 C42      3.5335   6.3794 -17.2142   C.2       1 RES1   0.0000
@<TRIPOS>BOND
     1     1     2    1
     2     2     3    1
     3     3     4    2
     4     3     5   am
     5     5     6    1
     6     6     7    2
     7     7     8    1
     8     8     9    2
     9     9    10    1
    10    10    11    2
    11    11    12    1
    12    12    13    2
    13    13    14    1
    14    14    15    1
    15    15    16    1
    16    16    17    1
    17    17    18    2
    18    18    19    1
    19    19    20    2
    20    20    21    1
    21    21    22    2
    22    15    23    1
    23    23    24   am
    24    24    25    2
    25    24    26    1
    26    26    27    2
    27    27    28    1
    28    28    29    2
    29    29    30    1
    30    30    31    1
    31    30    32    2
    32    32    33    1
    33    33    34    2
    34    34    35    1
    35    35    36    1
    36    36    37    2
    37    37    38    1
    38    38    39    2
    39    14    40    2
    40     9    41    1
    41    41    42    2
    42    42     6    1
    43    40    10    1
    44    22    17    1
    45    34    28    1
    46    39    35    1
@<TRIPOS>SUBSTRUCTURE
     1 RES1        1 GROUP             0 ****  ****    0  
@<TRIPOS>MOLECULE
ligand_7
    42    46     1     0     0
SMALL
NO_CHARGES
****
Generated from the CSD

@<TRIPOS>ATOM
     1 C1       8.9032   6.0580 -16.8716   C.3       1 RES1   0.0000
     2 O2       7.7348   5.1842 -17.1132   O.3       1 RES1   0.0000
     3 C3       6.5492   5.8024 -17.1756   C.2       1 RES1   0.0000
     4 O4       6.3802   7.0035 -17.0492   O.2       1 RES1   0.0000
     5 N5       5.5747   4.8760 -17.3730   N.am      1 RES1   0.0000
     6 C6       4.1834   5.1209 -17.4690   C.2       1 RES1   0.0000
     7 C7       3.5687   6.3780 -17.3726   C.2       1 RES1   0.0000
     8 C8       2.1939   6.4976 -17.5112   C.2       1 RES1   0.0000
     9 C9       1.3883   5.3860 -17.7928   C.2       1 RES1   0.0000
    10 C10     -0.0768   5.5255 -18.0284   C.2       1 RES1   0.0000
    11 C11     -0.7759   4.6815 -18.8996   C.2       1 RES1   0.0000
    12 C12     -2.1265   4.8974 -19.0987   C.2       1 RES1   0.0000
    13 N13     -2.8271   5.8587 -18.4755   N.2       1 RES1   0.0000
    14 C14     -2.1507   6.6614 -17.6381   C.2       1 RES1   0.0000
    15 C15     -2.9515   7.6986 -16.9197   C.3       1 RES1   0.0000
    16 C16     -3.7768   7.0818 -15.7845   C.3       1 RES1   0.0000
    17 C17     -4.4292   8.0753 -14.8392   C.2       1 RES1   0.0000
    18 C18     -3.7316   8.5099 -13.6906   C.2       1 RES1   0.0000
    19 C19     -4.3168   9.4200 -12.7976   C.2       1 RES1   0.0000
    20 C20     -5.6030   9.9253 -13.0567   C.2       1 RES1   0.0000
    21 C21     -6.2869   9.5146 -14.1878   C.2       1 RES1   0.0000
    22 C22     -5.7203   8.5839 -15.0604   C.2       1 RES1   0.0000
    23 N23     -3.7930   8.5001 -17.8069   N.am      1 RES1   0.0000
    24 C24     -3.2086   9.5636 -18.4878   C.2       1 RES1   0.0000
    25 O25     -2.0056   9.8526 -18.3682   O.2       1 RES1   0.0000
    26 C26     -4.0266  10.2565 -19.4782   C.2       1 RES1   0.0000
    27 C27     -3.6426  11.1938 -20.3036   C.2       1 RES1   0.0000
    28 C28     -4.5332  11.8342 -21.2679   C.2       1 RES1   0.0000
    29 C29     -5.8751  11.4250 -21.2853   C.2       1 RES1   0.0000
    30 C30     -6.7649  12.0185 -22.1522   C.2       1 RES1   0.0000
    31 Cl31    -8.4122  11.4641 -22.1892   Cl        1 RES1   0.0000
    32 C32     -6.3809  13.0272 -23.0052   C.2       1 RES1   0.0000
    33 C33     -5.0597  13.4489 -23.0036   C.2       1 RES1   0.0000
    34 C34     -4.1255  12.8530 -22.1471   C.2       1 RES1   0.0000
    35 N35     -2.7482  13.2479 -22.2317   N.pl3     1 RES1   0.0000
    36 C36     -1.9062  13.3380 -23.2650   C.2       1 RES1   0.0000
    37 N37     -0.7320  13.7252 -22.8470   N.2       1 RES1   0.0000
    38 N38     -0.8566  13.8790 -21.5067   N.2       1 RES1   0.0000
    39 N39     -2.0652  13.6055 -21.1142   N.2       1 RES1   0.0000
    40 C40     -0.8097   6.5372 -17.4046   C.2       1 RES1   0.0000
    41 C41      2.0187   4.1376 -17.8849   C.2       1 RES1   0.0000
    42 C42      3.3858   3.9983 -17.7051   C.2       1 RES1   0.0000
@<TRIPOS>BOND
     1     1     2    1
     2     2     3    1
     3     3     4    2
     4     3     5   am
     5     5     6    1
     6     6     7    2
     7     7     8    1
     8     8     9    2
     9     9    10    1
    10    10    11    2
    11    11    12    1
    12    12    13    2
    13    13    14    1
    14    14    15    1
    15    15    16    1
    16    16    17    1
    17    17    18    2
    18    18    19    1
    19    19    20    2
    20    20    21    1
    21    21    22    2
    22    15    23    1
    23    23    24   am
    24    24    25    2
    25    24    26    1
    26    26    27    2
    27    27    28    1
    28    28    29    2
    29    29    30    1
    30    30    31    1
    31    30    32    2
    32    32    33    1
    33    33    34    2
    34    34    35    1
    35    35    36    1
    36    36    37    2
    37    37    38    1
    38    38    39    2
    39    14    40    2
    40     9    41    1
    41    41    42    2
    42    42     6    1
    43    40    10    1
    44    22    17    1
    45    34    28    1
    46    39    35    1
@<TRIPOS>SUBSTRUCTURE
     1 RES1        1 GROUP             0 ****  ****    0  
@<TRIPOS>MOLECULE
ligand_8
    42    46     1     0     0
SMALL
NO_CHARGES
****
Generated from the CSD

@<TRIPOS>ATOM
     1 C1       6.3242  13.5788 -30.4539   C.3       1 RES1   0.0000
     2 O2       5.0115  13.4774 -31.1275   O.3       1 RES1   0.0000
     3 C3       4.1031  12.7060 -30.5181   C.2       1 RES1   0.0000
     4 O4       4.2869  12.1015 -29.4751   O.2       1 RES1   0.0000
     5 N5       2.9655  12.6872 -31.2614   N.am      1 RES1   0.0000
     6 C6       1.7806  11.9673 -30.9741   C.2       1 RES1   0.0000
     7 C7       1.5802  11.1391 -29.8599   C.2       1 RES1   0.0000
     8 C8       0.3616  10.5048 -29.6690   C.2       1 RES1   0.0000
     9 C9      -0.7111  10.7032 -30.5486   C.2       1 RES1   0.0000
    10 C10     -2.0473  10.0922 -30.2978   C.2       1 RES1   0.0000
    11 C11     -3.1238  10.2662 -31.1759   C.2       1 RES1   0.0000
    12 C12     -4.3446   9.7026 -30.8561   C.2       1 RES1   0.0000
    13 N13     -4.5578   8.9608 -29.7572   N.2       1 RES1   0.0000
    14 C14     -3.5196   8.7947 -28.9221   C.2       1 RES1   0.0000
    15 C15     -3.7602   7.9318 -27.7260   C.3       1 RES1   0.0000
    16 C16     -4.5039   6.6456 -28.1039   C.3       1 RES1   0.0000
    17 C17     -4.5779   5.5914 -27.0132   C.2       1 RES1   0.0000
    18 C18     -3.5612   4.6163 -26.9125   C.2       1 RES1   0.0000
    19 C19     -3.6123   3.6268 -25.9193   C.2       1 RES1   0.0000
    20 C20     -4.6738   3.6154 -24.9974   C.2       1 RES1   0.0000
    21 C21     -5.6663   4.5764 -25.0813   C.2       1 RES1   0.0000
    22 C22     -5.6352   5.5420 -26.0890   C.2       1 RES1   0.0000
    23 N23     -4.4365   8.6293 -26.6334   N.am      1 RES1   0.0000
    24 C24     -3.6721   9.4238 -25.7845   C.2       1 RES1   0.0000
    25 O25     -2.4443   9.5594 -25.9227   O.2       1 RES1   0.0000
    26 C26     -4.3842  10.2264 -24.7951   C.2       1 RES1   0.0000
    27 C27     -3.8757  11.1197 -23.9885   C.2       1 RES1   0.0000
    28 C28     -4.6672  11.8812 -23.0259   C.2       1 RES1   0.0000
    29 C29     -6.0244  11.5510 -22.8939   C.2       1 RES1   0.0000
    30 C30     -6.8091  12.2153 -21.9782   C.2       1 RES1   0.0000
    31 Cl31    -8.4985  11.8217 -21.8638   Cl        1 RES1   0.0000
    32 C32     -6.2960  13.1976 -21.1630   C.2       1 RES1   0.0000
    33 C33     -4.9565  13.5390 -21.2751   C.2       1 RES1   0.0000
    34 C34     -4.1356  12.8952 -22.2095   C.2       1 RES1   0.0000
    35 N35     -2.7772  13.3319 -22.3648   N.pl3     1 RES1   0.0000
    36 C36     -2.0178  13.5220 -23.4473   C.2       1 RES1   0.0000
    37 N37     -0.8237  13.9078 -23.0884   N.2       1 RES1   0.0000
    38 N38     -0.8499  13.9567 -21.7348   N.2       1 RES1   0.0000
    39 N39     -2.0194  13.6223 -21.2764   N.2       1 RES1   0.0000
    40 C40     -2.2864   9.3400 -29.1460   C.2       1 RES1   0.0000
    41 C41     -0.4933  11.5329 -31.6571   C.2       1 RES1   0.0000
    42 C42      0.7330  12.1378 -31.8828   C.2       1 RES1   0.0000
@<TRIPOS>BOND
     1     1     2    1
     2     2     3    1
     3     3     4    2
     4     3     5   am
     5     5     6    1
     6     6     7    2
     7     7     8    1
     8     8     9    2
     9     9    10    1
    10    10    11    2
    11    11    12    1
    12    12    13    2
    13    13    14    1
    14    14    15    1
    15    15    16    1
    16    16    17    1
    17    17    18    2
    18    18    19    1
    19    19    20    2
    20    20    21    1
    21    21    22    2
    22    15    23    1
    23    23    24   am
    24    24    25    2
    25    24    26    1
    26    26    27    2
    27    27    28    1
    28    28    29    2
    29    29    30    1
    30    30    31    1
    31    30    32    2
    32    32    33    1
    33    33    34    2
    34    34    35    1
    35    35    36    1
    36    36    37    2
    37    37    38    1
    38    38    39    2
    39    14    40    2
    40     9    41    1
    41    41    42    2
    42    42     6    1
    43    40    10    1
    44    22    17    1
    45    34    28    1
    46    39    35    1
@<TRIPOS>SUBSTRUCTURE
     1 RES1        1 GROUP             0 ****  ****    0  
@<TRIPOS>MOLECULE
ligand_9
    42    46     1     0     0
SMALL
NO_CHARGES
****
Generated from the CSD

@<TRIPOS>ATOM
     1 C1       5.6463  13.9514 -33.1575   C.3       1 RES1   0.0000
     2 O2       4.9778  13.1470 -32.1119   O.3       1 RES1   0.0000
     3 C3       3.6753  12.9074 -32.3063   C.2       1 RES1   0.0000
     4 O4       3.0279  13.2999 -33.2624   O.2       1 RES1   0.0000
     5 N5       3.1949  12.1864 -31.2593   N.am      1 RES1   0.0000
     6 C6       1.8595  11.7539 -31.0735   C.2       1 RES1   0.0000
     7 C7       0.7930  12.0026 -31.9499   C.2       1 RES1   0.0000
     8 C8      -0.4709  11.5018 -31.6748   C.2       1 RES1   0.0000
     9 C9      -0.7111  10.7032 -30.5486   C.2       1 RES1   0.0000
    10 C10     -2.0473  10.0922 -30.2978   C.2       1 RES1   0.0000
    11 C11     -3.1238  10.2662 -31.1759   C.2       1 RES1   0.0000
    12 C12     -4.3446   9.7026 -30.8561   C.2       1 RES1   0.0000
    13 N13     -4.5578   8.9608 -29.7572   N.2       1 RES1   0.0000
    14 C14     -3.5196   8.7947 -28.9221   C.2       1 RES1   0.0000
    15 C15     -3.7602   7.9318 -27.7260   C.3       1 RES1   0.0000
    16 C16     -4.5039   6.6456 -28.1039   C.3       1 RES1   0.0000
    17 C17     -4.5779   5.5914 -27.0132   C.2       1 RES1   0.0000
    18 C18     -3.5612   4.6163 -26.9125   C.2       1 RES1   0.0000
    19 C19     -3.6123   3.6268 -25.9193   C.2       1 RES1   0.0000
    20 C20     -4.6738   3.6154 -24.9974   C.2       1 RES1   0.0000
    21 C21     -5.6663   4.5764 -25.0813   C.2       1 RES1   0.0000
    22 C22     -5.6352   5.5420 -26.0890   C.2       1 RES1   0.0000
    23 N23     -4.4365   8.6293 -26.6334   N.am      1 RES1   0.0000
    24 C24     -3.6721   9.4238 -25.7845   C.2       1 RES1   0.0000
    25 O25     -2.4443   9.5594 -25.9227   O.2       1 RES1   0.0000
    26 C26     -4.3842  10.2264 -24.7951   C.2       1 RES1   0.0000
    27 C27     -3.8757  11.1197 -23.9885   C.2       1 RES1   0.0000
    28 C28     -4.6672  11.8812 -23.0259   C.2       1 RES1   0.0000
    29 C29     -6.0244  11.5510 -22.8940   C.2       1 RES1   0.0000
    30 C30     -6.8091  12.2153 -21.9782   C.2       1 RES1   0.0000
    31 Cl31    -8.4985  11.8217 -21.8638   Cl        1 RES1   0.0000
    32 C32     -6.2960  13.1976 -21.1630   C.2       1 RES1   0.0000
    33 C33     -4.9565  13.5390 -21.2751   C.2       1 RES1   0.0000
    34 C34     -4.1356  12.8952 -22.2095   C.2       1 RES1   0.0000
    35 N35     -2.7772  13.3319 -22.3648   N.pl3     1 RES1   0.0000
    36 C36     -2.0178  13.5220 -23.4473   C.2       1 RES1   0.0000
    37 N37     -0.8237  13.9078 -23.0884   N.2       1 RES1   0.0000
    38 N38     -0.8499  13.9567 -21.7348   N.2       1 RES1   0.0000
    39 N39     -2.0194  13.6223 -21.2764   N.2       1 RES1   0.0000
    40 C40     -2.2864   9.3400 -29.1460   C.2       1 RES1   0.0000
    41 C41      0.3654  10.4654 -29.6832   C.2       1 RES1   0.0000
    42 C42      1.6228  10.9962 -29.9237   C.2       1 RES1   0.0000
@<TRIPOS>BOND
     1     1     2    1
     2     2     3    1
     3     3     4    2
     4     3     5   am
     5     5     6    1
     6     6     7    2
     7     7     8    1
     8     8     9    2
     9     9    10    1
    10    10    11    2
    11    11    12    1
    12    12    13    2
    13    13    14    1
    14    14    15    1
    15    15    16    1
    16    16    17    1
    17    17    18    2
    18    18    19    1
    19    19    20    2
    20    20    21    1
    21    21    22    2
    22    15    23    1
    23    23    24   am
    24    24    25    2
    25    24    26    1
    26    26    27    2
    27    27    28    1
    28    28    29    2
    29    29    30    1
    30    30    31    1
    31    30    32    2
    32    32    33    1
    33    33    34    2
    34    34    35    1
    35    35    36    1
    36    36    37    2
    37    37    38    1
    38    38    39    2
    39    14    40    2
    40     9    41    1
    41    41    42    2
    42    42     6    1
    43    40    10    1
    44    22    17    1
    45    34    28    1
    46    39    35    1
@<TRIPOS>SUBSTRUCTURE
     1 RES1        1 GROUP             0 ****  ****    0  
@<TRIPOS>MOLECULE
ligand_10
    42    46     1     0     0
SMALL
NO_CHARGES
****
Generated from the CSD

@<TRIPOS>ATOM
     1 C1       7.8706   1.8367 -18.6179   C.3       1 RES1   0.0000
     2 O2       6.8855   2.6098 -17.8310   O.3       1 RES1   0.0000
     3 C3       5.6640   2.7131 -18.3684   C.2       1 RES1   0.0000
     4 O4       5.3256   2.2241 -19.4331   O.2       1 RES1   0.0000
     5 N5       4.8819   3.4679 -17.5527   N.am      1 RES1   0.0000
     6 C6       3.5323   3.8329 -17.7771   C.2       1 RES1   0.0000
     7 C7       2.7663   3.4737 -18.8958   C.2       1 RES1   0.0000
     8 C8       1.4402   3.8684 -18.9924   C.2       1 RES1   0.0000
     9 C9       0.8168   4.5927 -17.9674   C.2       1 RES1   0.0000
    10 C10     -0.6308   4.9423 -18.0299   C.2       1 RES1   0.0000
    11 C11     -1.5714   4.1158 -18.6562   C.2       1 RES1   0.0000
    12 C12     -2.8902   4.5259 -18.7100   C.2       1 RES1   0.0000
    13 N13     -3.3384   5.6676 -18.1632   N.2       1 RES1   0.0000
    14 C14     -2.4312   6.4528 -17.5605   C.2       1 RES1   0.0000
    15 C15     -2.9515   7.6986 -16.9197   C.3       1 RES1   0.0000
    16 C16     -3.6737   7.3912 -15.6028   C.3       1 RES1   0.0000
    17 C17     -4.0205   8.6006 -14.7523   C.2       1 RES1   0.0000
    18 C18     -3.0985   9.0659 -13.7888   C.2       1 RES1   0.0000
    19 C19     -3.3999  10.1753 -12.9848   C.2       1 RES1   0.0000
    20 C20     -4.6228  10.8488 -13.1521   C.2       1 RES1   0.0000
    21 C21     -5.5251  10.4070 -14.1041   C.2       1 RES1   0.0000
    22 C22     -5.2417   9.2833 -14.8825   C.2       1 RES1   0.0000
    23 N23     -3.7930   8.5001 -17.8069   N.am      1 RES1   0.0000
    24 C24     -3.2038   9.5499 -18.5047   C.2       1 RES1   0.0000
    25 O25     -1.9948   9.8212 -18.4068   O.2       1 RES1   0.0000
    26 C26     -4.0274  10.2486 -19.4864   C.2       1 RES1   0.0000
    27 C27     -3.6428  11.1743 -20.3246   C.2       1 RES1   0.0000
    28 C28     -4.5394  11.8217 -21.2785   C.2       1 RES1   0.0000
    29 C29     -5.8874  11.4327 -21.2714   C.2       1 RES1   0.0000
    30 C30     -6.7823  12.0339 -22.1277   C.2       1 RES1   0.0000
    31 Cl31    -8.4380  11.5043 -22.1342   Cl        1 RES1   0.0000
    32 C32     -6.3972  13.0311 -22.9937   C.2       1 RES1   0.0000
    33 C33     -5.0700  13.4328 -23.0164   C.2       1 RES1   0.0000
    34 C34     -4.1309  12.8284 -22.1712   C.2       1 RES1   0.0000
    35 N35     -2.7494  13.2019 -22.2809   N.pl3     1 RES1   0.0000
    36 C36     -1.9231  13.2724 -23.3283   C.2       1 RES1   0.0000
    37 N37     -0.7365  13.6446 -22.9321   N.2       1 RES1   0.0000
    38 N38     -0.8370  13.8092 -21.5911   N.2       1 RES1   0.0000
    39 N39     -2.0430  13.5566 -21.1771   N.2       1 RES1   0.0000
    40 C40     -1.1030   6.1387 -17.4864   C.2       1 RES1   0.0000
    41 C41      1.5971   4.9440 -16.8574   C.2       1 RES1   0.0000
    42 C42      2.9349   4.5933 -16.7686   C.2       1 RES1   0.0000
@<TRIPOS>BOND
     1     1     2    1
     2     2     3    1
     3     3     4    2
     4     3     5   am
     5     5     6    1
     6     6     7    2
     7     7     8    1
     8     8     9    2
     9     9    10    1
    10    10    11    2
    11    11    12    1
    12    12    13    2
    13    13    14    1
    14    14    15    1
    15    15    16    1
    16    16    17    1
    17    17    18    2
    18    18    19    1
    19    19    20    2
    20    20    21    1
    21    21    22    2
    22    15    23    1
    23    23    24   am
    24    24    25    2
    25    24    26    1
    26    26    27    2
    27    27    28    1
    28    28    29    2
    29    29    30    1
    30    30    31    1
    31    30    32    2
    32    32    33    1
    33    33    34    2
    34    34    35    1
    35    35    36    1
    36    36    37    2
    37    37    38    1
    38    38    39    2
    39    14    40    2
    40     9    41    1
    41    41    42    2
    42    42     6    1
    43    40    10    1
    44    22    17    1
    45    34    28    1
    46    39    35    1
@<TRIPOS>SUBSTRUCTURE
     1 RES1        1 GROUP             0 ****  ****    0  
@<TRIPOS>MOLECULE
ligand_11
    42    46     1     0     0
SMALL
NO_CHARGES
****
Generated from the CSD

@<TRIPOS>ATOM
     1 C1       8.2723   3.8446 -16.6907   C.3       1 RES1   0.0000
     2 O2       7.1110   3.5899 -17.5703   O.3       1 RES1   0.0000
     3 C3       5.9374   4.0650 -17.1362   C.2       1 RES1   0.0000
     4 O4       5.7735   4.6753 -16.0932   O.2       1 RES1   0.0000
     5 N5       4.9665   3.7336 -18.0277   N.am      1 RES1   0.0000
     6 C6       3.5857   4.0280 -17.9210   C.2       1 RES1   0.0000
     7 C7       2.9792   4.7187 -16.8616   C.2       1 RES1   0.0000
     8 C8       1.6159   4.9735 -16.8810   C.2       1 RES1   0.0000
     9 C9       0.8168   4.5927 -17.9674   C.2       1 RES1   0.0000
    10 C10     -0.6308   4.9423 -18.0299   C.2       1 RES1   0.0000
    11 C11     -1.5714   4.1158 -18.6562   C.2       1 RES1   0.0000
    12 C12     -2.8902   4.5259 -18.7100   C.2       1 RES1   0.0000
    13 N13     -3.3384   5.6676 -18.1632   N.2       1 RES1   0.0000
    14 C14     -2.4312   6.4528 -17.5605   C.2       1 RES1   0.0000
    15 C15     -2.9515   7.6986 -16.9197   C.3       1 RES1   0.0000
    16 C16     -3.6737   7.3912 -15.6028   C.3       1 RES1   0.0000
    17 C17     -4.0205   8.6006 -14.7523   C.2       1 RES1   0.0000
    18 C18     -3.0985   9.0659 -13.7888   C.2       1 RES1   0.0000
    19 C19     -3.3999  10.1753 -12.9848   C.2       1 RES1   0.0000
    20 C20     -4.6228  10.8488 -13.1521   C.2       1 RES1   0.0000
    21 C21     -5.5251  10.4070 -14.1041   C.2       1 RES1   0.0000
    22 C22     -5.2417   9.2833 -14.8825   C.2       1 RES1   0.0000
    23 N23     -3.7930   8.5001 -17.8069   N.am      1 RES1   0.0000
    24 C24     -3.2038   9.5499 -18.5047   C.2       1 RES1   0.0000
    25 O25     -1.9948   9.8212 -18.4068   O.2       1 RES1   0.0000
    26 C26     -4.0274  10.2486 -19.4864   C.2       1 RES1   0.0000
    27 C27     -3.6428  11.1743 -20.3246   C.2       1 RES1   0.0000
    28 C28     -4.5394  11.8217 -21.2785   C.2       1 RES1   0.0000
    29 C29     -5.8874  11.4327 -21.2714   C.2       1 RES1   0.0000
    30 C30     -6.7823  12.0339 -22.1277   C.2       1 RES1   0.0000
    31 Cl31    -8.4380  11.5043 -22.1342   Cl        1 RES1   0.0000
    32 C32     -6.3972  13.0311 -22.9937   C.2       1 RES1   0.0000
    33 C33     -5.0700  13.4328 -23.0164   C.2       1 RES1   0.0000
    34 C34     -4.1309  12.8284 -22.1712   C.2       1 RES1   0.0000
    35 N35     -2.7494  13.2019 -22.2809   N.pl3     1 RES1   0.0000
    36 C36     -1.9231  13.2724 -23.3283   C.2       1 RES1   0.0000
    37 N37     -0.7365  13.6446 -22.9321   N.2       1 RES1   0.0000
    38 N38     -0.8370  13.8092 -21.5911   N.2       1 RES1   0.0000
    39 N39     -2.0430  13.5566 -21.1771   N.2       1 RES1   0.0000
    40 C40     -1.1030   6.1387 -17.4864   C.2       1 RES1   0.0000
    41 C41      1.4388   3.9027 -19.0170   C.2       1 RES1   0.0000
    42 C42      2.7918   3.6036 -18.9896   C.2       1 RES1   0.0000
@<TRIPOS>BOND
     1     1     2    1
     2     2     3    1
     3     3     4    2
     4     3     5   am
     5     5     6    1
     6     6     7    2
     7     7     8    1
     8     8     9    2
     9     9    10    1
    10    10    11    2
    11    11    12    1
    12    12    13    2
    13    13    14    1
    14    14    15    1
    15    15    16    1
    16    16    17    1
    17    17    18    2
    18    18    19    1
    19    19    20    2
    20    20    21    1
    21    21    22    2
    22    15    23    1
    23    23    24   am
    24    24    25    2
    25    24    26    1
    26    26    27    2
    27    27    28    1
    28    28    29    2
    29    29    30    1
    30    30    31    1
    31    30    32    2
    32    32    33    1
    33    33    34    2
    34    34    35    1
    35    35    36    1
    36    36    37    2
    37    37    38    1
    38    38    39    2
    39    14    40    2
    40     9    41    1
    41    41    42    2
    42    42     6    1
    43    40    10    1
    44    22    17    1
    45    34    28    1
    46    39    35    1
@<TRIPOS>SUBSTRUCTURE
     1 RES1        1 GROUP             0 ****  ****    0  
@<TRIPOS>MOLECULE
ligand_12
    42    46     1     0     0
SMALL
NO_CHARGES
****
Generated from the CSD

@<TRIPOS>ATOM
     1 C1       2.1086  21.3041  -9.6386   C.3       1 RES1   0.0000
     2 O2       0.7529  20.7187  -9.5580   O.3       1 RES1   0.0000
     3 C3       0.1070  20.5847 -10.7227   C.2       1 RES1   0.0000
     4 O4       0.5547  20.9057 -11.8107   O.2       1 RES1   0.0000
     5 N5      -1.1262  20.0632 -10.4897   N.am      1 RES1   0.0000
     6 C6      -2.1256  19.7936 -11.4558   C.2       1 RES1   0.0000
     7 C7      -2.0099  20.0252 -12.8343   C.2       1 RES1   0.0000
     8 C8      -3.0501  19.6933 -13.6898   C.2       1 RES1   0.0000
     9 C9      -4.2190  19.0823 -13.2163   C.2       1 RES1   0.0000
    10 C10     -5.3005  18.6457 -14.1444   C.2       1 RES1   0.0000
    11 C11     -6.4817  18.0504 -13.6857   C.2       1 RES1   0.0000
    12 C12     -7.4223  17.6342 -14.6091   C.2       1 RES1   0.0000
    13 N13     -7.2872  17.7968 -15.9352   N.2       1 RES1   0.0000
    14 C14     -6.1537  18.3726 -16.3672   C.2       1 RES1   0.0000
    15 C15     -6.0365  18.5856 -17.8417   C.3       1 RES1   0.0000
    16 C16     -6.9023  19.7617 -18.3080   C.3       1 RES1   0.0000
    17 C17     -6.6661  20.2180 -19.7371   C.2       1 RES1   0.0000
    18 C18     -5.7009  21.2143 -20.0030   C.2       1 RES1   0.0000
    19 C19     -5.4714  21.6589 -21.3136   C.2       1 RES1   0.0000
    20 C20     -6.1917  21.0931 -22.3803   C.2       1 RES1   0.0000
    21 C21     -7.1290  20.1064 -22.1289   C.2       1 RES1   0.0000
    22 C22     -7.3830  19.6857 -20.8222   C.2       1 RES1   0.0000
    23 N23     -6.3148  17.3835 -18.6260   N.am      1 RES1   0.0000
    24 C24     -5.3023  16.8725 -19.4321   C.2       1 RES1   0.0000
    25 O25     -4.1792  17.3996 -19.5080   O.2       1 RES1   0.0000
    26 C26     -5.5493  15.5926 -20.0887   C.2       1 RES1   0.0000
    27 C27     -4.6999  14.8855 -20.7857   C.2       1 RES1   0.0000
    28 C28     -5.0342  13.6079 -21.4094   C.2       1 RES1   0.0000
    29 C29     -6.3559  13.1523 -21.2907   C.2       1 RES1   0.0000
    30 C30     -6.7331  11.9701 -21.8870   C.2       1 RES1   0.0000
    31 Cl31    -8.3639  11.4016 -21.6885   Cl        1 RES1   0.0000
    32 C32     -5.8478  11.2150 -22.6210   C.2       1 RES1   0.0000
    33 C33     -4.5366  11.6472 -22.7531   C.2       1 RES1   0.0000
    34 C34     -4.1163  12.8359 -22.1434   C.2       1 RES1   0.0000
    35 N35     -2.7330  13.2108 -22.2223   N.pl3     1 RES1   0.0000
    36 C36     -1.9008  13.3435 -23.2589   C.2       1 RES1   0.0000
    37 N37     -0.7153  13.6863 -22.8341   N.2       1 RES1   0.0000
    38 N38     -0.8225  13.7673 -21.4859   N.2       1 RES1   0.0000
    39 N39     -2.0316  13.4936 -21.0948   N.2       1 RES1   0.0000
    40 C40     -5.1593  18.7876 -15.5263   C.2       1 RES1   0.0000
    41 C41     -4.3182  18.8591 -11.8362   C.2       1 RES1   0.0000
    42 C42     -3.3043  19.2259 -10.9654   C.2       1 RES1   0.0000
@<TRIPOS>BOND
     1     1     2    1
     2     2     3    1
     3     3     4    2
     4     3     5   am
     5     5     6    1
     6     6     7    2
     7     7     8    1
     8     8     9    2
     9     9    10    1
    10    10    11    2
    11    11    12    1
    12    12    13    2
    13    13    14    1
    14    14    15    1
    15    15    16    1
    16    16    17    1
    17    17    18    2
    18    18    19    1
    19    19    20    2
    20    20    21    1
    21    21    22    2
    22    15    23    1
    23    23    24   am
    24    24    25    2
    25    24    26    1
    26    26    27    2
    27    27    28    1
    28    28    29    2
    29    29    30    1
    30    30    31    1
    31    30    32    2
    32    32    33    1
    33    33    34    2
    34    34    35    1
    35    35    36    1
    36    36    37    2
    37    37    38    1
    38    38    39    2
    39    14    40    2
    40     9    41    1
    41    41    42    2
    42    42     6    1
    43    40    10    1
    44    22    17    1
    45    34    28    1
    46    39    35    1
@<TRIPOS>SUBSTRUCTURE
     1 RES1        1 GROUP             0 ****  ****    0  
@<TRIPOS>MOLECULE
ligand_13
    42    46     1     0     0
SMALL
NO_CHARGES
****
Generated from the CSD

@<TRIPOS>ATOM
     1 C1       0.2935  21.2368  -7.4918   C.3       1 RES1   0.0000
     2 O2       0.0457  21.1748  -8.9485   O.3       1 RES1   0.0000
     3 C3      -1.0979  20.5865  -9.3194   C.2       1 RES1   0.0000
     4 O4      -1.9209  20.1140  -8.5534   O.2       1 RES1   0.0000
     5 N5      -1.1743  20.5791 -10.6763   N.am      1 RES1   0.0000
     6 C6      -2.2148  20.0252 -11.4607   C.2       1 RES1   0.0000
     7 C7      -3.3560  19.3798 -10.9621   C.2       1 RES1   0.0000
     8 C8      -4.3252  18.9005 -11.8309   C.2       1 RES1   0.0000
     9 C9      -4.2190  19.0823 -13.2163   C.2       1 RES1   0.0000
    10 C10     -5.3005  18.6457 -14.1444   C.2       1 RES1   0.0000
    11 C11     -6.4817  18.0504 -13.6857   C.2       1 RES1   0.0000
    12 C12     -7.4223  17.6342 -14.6091   C.2       1 RES1   0.0000
    13 N13     -7.2872  17.7968 -15.9352   N.2       1 RES1   0.0000
    14 C14     -6.1537  18.3726 -16.3672   C.2       1 RES1   0.0000
    15 C15     -6.0365  18.5856 -17.8417   C.3       1 RES1   0.0000
    16 C16     -6.9023  19.7617 -18.3080   C.3       1 RES1   0.0000
    17 C17     -6.6661  20.2180 -19.7371   C.2       1 RES1   0.0000
    18 C18     -5.7009  21.2143 -20.0030   C.2       1 RES1   0.0000
    19 C19     -5.4714  21.6589 -21.3136   C.2       1 RES1   0.0000
    20 C20     -6.1917  21.0931 -22.3803   C.2       1 RES1   0.0000
    21 C21     -7.1290  20.1064 -22.1289   C.2       1 RES1   0.0000
    22 C22     -7.3830  19.6857 -20.8222   C.2       1 RES1   0.0000
    23 N23     -6.3148  17.3835 -18.6260   N.am      1 RES1   0.0000
    24 C24     -5.3023  16.8725 -19.4321   C.2       1 RES1   0.0000
    25 O25     -4.1792  17.3996 -19.5080   O.2       1 RES1   0.0000
    26 C26     -5.5493  15.5926 -20.0887   C.2       1 RES1   0.0000
    27 C27     -4.6999  14.8855 -20.7857   C.2       1 RES1   0.0000
    28 C28     -5.0342  13.6079 -21.4094   C.2       1 RES1   0.0000
    29 C29     -6.3559  13.1523 -21.2907   C.2       1 RES1   0.0000
    30 C30     -6.7331  11.9701 -21.8870   C.2       1 RES1   0.0000
    31 Cl31    -8.3639  11.4016 -21.6885   Cl        1 RES1   0.0000
    32 C32     -5.8478  11.2150 -22.6210   C.2       1 RES1   0.0000
    33 C33     -4.5366  11.6472 -22.7530   C.2       1 RES1   0.0000
    34 C34     -4.1163  12.8359 -22.1434   C.2       1 RES1   0.0000
    35 N35     -2.7330  13.2108 -22.2223   N.pl3     1 RES1   0.0000
    36 C36     -1.9008  13.3435 -23.2589   C.2       1 RES1   0.0000
    37 N37     -0.7153  13.6862 -22.8340   N.2       1 RES1   0.0000
    38 N38     -0.8225  13.7673 -21.4859   N.2       1 RES1   0.0000
    39 N39     -2.0316  13.4936 -21.0948   N.2       1 RES1   0.0000
    40 C40     -5.1593  18.7876 -15.5263   C.2       1 RES1   0.0000
    41 C41     -3.0719  19.7284 -13.6974   C.2       1 RES1   0.0000
    42 C42     -2.0755  20.1732 -12.8430   C.2       1 RES1   0.0000
@<TRIPOS>BOND
     1     1     2    1
     2     2     3    1
     3     3     4    2
     4     3     5   am
     5     5     6    1
     6     6     7    2
     7     7     8    1
     8     8     9    2
     9     9    10    1
    10    10    11    2
    11    11    12    1
    12    12    13    2
    13    13    14    1
    14    14    15    1
    15    15    16    1
    16    16    17    1
    17    17    18    2
    18    18    19    1
    19    19    20    2
    20    20    21    1
    21    21    22    2
    22    15    23    1
    23    23    24   am
    24    24    25    2
    25    24    26    1
    26    26    27    2
    27    27    28    1
    28    28    29    2
    29    29    30    1
    30    30    31    1
    31    30    32    2
    32    32    33    1
    33    33    34    2
    34    34    35    1
    35    35    36    1
    36    36    37    2
    37    37    38    1
    38    38    39    2
    39    14    40    2
    40     9    41    1
    41    41    42    2
    42    42     6    1
    43    40    10    1
    44    22    17    1
    45    34    28    1
    46    39    35    1
@<TRIPOS>SUBSTRUCTURE
     1 RES1        1 GROUP             0 ****  ****    0  
@<TRIPOS>MOLECULE
ligand_14
    42    46     1     0     0
SMALL
NO_CHARGES
****
Generated from the CSD

@<TRIPOS>ATOM
     1 C1       2.9445  11.5459 -36.8370   C.3       1 RES1   0.0000
     2 O2       1.4888  11.3406 -36.6755   O.3       1 RES1   0.0000
     3 C3       1.0948  10.8847 -35.4803   C.2       1 RES1   0.0000
     4 O4       1.8395  10.6367 -34.5471   O.2       1 RES1   0.0000
     5 N5      -0.2543  10.7204 -35.4900   N.am      1 RES1   0.0000
     6 C6      -1.0533  10.2318 -34.4280   C.2       1 RES1   0.0000
     7 C7      -0.5797   9.8275 -33.1712   C.2       1 RES1   0.0000
     8 C8      -1.4648   9.3913 -32.1965   C.2       1 RES1   0.0000
     9 C9      -2.8486   9.3822 -32.4174   C.2       1 RES1   0.0000
    10 C10     -3.8065   8.9970 -31.3424   C.2       1 RES1   0.0000
    11 C11     -5.1904   8.9659 -31.5524   C.2       1 RES1   0.0000
    12 C12     -6.0192   8.6381 -30.4960   C.2       1 RES1   0.0000
    13 N13     -5.5728   8.3113 -29.2724   N.2       1 RES1   0.0000
    14 C14     -4.2442   8.3391 -29.0799   C.2       1 RES1   0.0000
    15 C15     -3.7602   7.9318 -27.7260   C.3       1 RES1   0.0000
    16 C16     -3.8327   6.4119 -27.5393   C.3       1 RES1   0.0000
    17 C17     -3.1369   5.8736 -26.3014   C.2       1 RES1   0.0000
    18 C18     -1.7773   5.4975 -26.3709   C.2       1 RES1   0.0000
    19 C19     -1.1154   4.9889 -25.2433   C.2       1 RES1   0.0000
    20 C20     -1.8027   4.8718 -24.0224   C.2       1 RES1   0.0000
    21 C21     -3.1313   5.2518 -23.9433   C.2       1 RES1   0.0000
    22 C22     -3.8015   5.7269 -25.0720   C.2       1 RES1   0.0000
    23 N23     -4.4365   8.6293 -26.6334   N.am      1 RES1   0.0000
    24 C24     -3.6718   9.4221 -25.7832   C.2       1 RES1   0.0000
    25 O25     -2.4435   9.5553 -25.9196   O.2       1 RES1   0.0000
    26 C26     -4.3837  10.2257 -24.7944   C.2       1 RES1   0.0000
    27 C27     -3.8746  11.1177 -23.9868   C.2       1 RES1   0.0000
    28 C28     -4.6660  11.8804 -23.0251   C.2       1 RES1   0.0000
    29 C29     -6.0240  11.5527 -22.8951   C.2       1 RES1   0.0000
    30 C30     -6.8086  12.2182 -21.9802   C.2       1 RES1   0.0000
    31 Cl31    -8.4989  11.8278 -21.8682   Cl        1 RES1   0.0000
    32 C32     -6.2948  13.1992 -21.1640   C.2       1 RES1   0.0000
    33 C33     -4.9545  13.5381 -21.2740   C.2       1 RES1   0.0000
    34 C34     -4.1336  12.8931 -22.2076   C.2       1 RES1   0.0000
    35 N35     -2.7741  13.3272 -22.3608   N.pl3     1 RES1   0.0000
    36 C36     -2.0129  13.5163 -23.4422   C.2       1 RES1   0.0000
    37 N37     -0.8185  13.8996 -23.0815   N.2       1 RES1   0.0000
    38 N38     -0.8465  13.9481 -21.7279   N.2       1 RES1   0.0000
    39 N39     -2.0172  13.6158 -21.2713   N.2       1 RES1   0.0000
    40 C40     -3.3545   8.6796 -30.0600   C.2       1 RES1   0.0000
    41 C41     -3.3045   9.7886 -33.6790   C.2       1 RES1   0.0000
    42 C42     -2.4275  10.1851 -34.6761   C.2       1 RES1   0.0000
@<TRIPOS>BOND
     1     1     2    1
     2     2     3    1
     3     3     4    2
     4     3     5   am
     5     5     6    1
     6     6     7    2
     7     7     8    1
     8     8     9    2
     9     9    10    1
    10    10    11    2
    11    11    12    1
    12    12    13    2
    13    13    14    1
    14    14    15    1
    15    15    16    1
    16    16    17    1
    17    17    18    2
    18    18    19    1
    19    19    20    2
    20    20    21    1
    21    21    22    2
    22    15    23    1
    23    23    24   am
    24    24    25    2
    25    24    26    1
    26    26    27    2
    27    27    28    1
    28    28    29    2
    29    29    30    1
    30    30    31    1
    31    30    32    2
    32    32    33    1
    33    33    34    2
    34    34    35    1
    35    35    36    1
    36    36    37    2
    37    37    38    1
    38    38    39    2
    39    14    40    2
    40     9    41    1
    41    41    42    2
    42    42     6    1
    43    40    10    1
    44    22    17    1
    45    34    28    1
    46    39    35    1
@<TRIPOS>SUBSTRUCTURE
     1 RES1        1 GROUP             0 ****  ****    0  
@<TRIPOS>MOLECULE
ligand_15
    42    46     1     0     0
SMALL
NO_CHARGES
****
Generated from the CSD

@<TRIPOS>ATOM
     1 C1       0.9591  11.0795 -38.7731   C.3       1 RES1   0.0000
     2 O2       0.9946  10.7138 -37.3405   O.3       1 RES1   0.0000
     3 C3      -0.1963  10.5322 -36.7570   C.2       1 RES1   0.0000
     4 O4      -1.2734  10.6465 -37.3173   O.2       1 RES1   0.0000
     5 N5      -0.0072  10.2301 -35.4455   N.am      1 RES1   0.0000
     6 C6      -1.0149   9.9921 -34.4798   C.2       1 RES1   0.0000
     7 C7      -2.3968  10.0311 -34.7173   C.2       1 RES1   0.0000
     8 C8      -3.2912   9.7517 -33.6947   C.2       1 RES1   0.0000
     9 C9      -2.8486   9.3822 -32.4174   C.2       1 RES1   0.0000
    10 C10     -3.8065   8.9970 -31.3424   C.2       1 RES1   0.0000
    11 C11     -5.1904   8.9659 -31.5524   C.2       1 RES1   0.0000
    12 C12     -6.0192   8.6381 -30.4960   C.2       1 RES1   0.0000
    13 N13     -5.5728   8.3113 -29.2724   N.2       1 RES1   0.0000
    14 C14     -4.2442   8.3391 -29.0799   C.2       1 RES1   0.0000
    15 C15     -3.7602   7.9318 -27.7260   C.3       1 RES1   0.0000
    16 C16     -3.8327   6.4119 -27.5393   C.3       1 RES1   0.0000
    17 C17     -3.1369   5.8736 -26.3014   C.2       1 RES1   0.0000
    18 C18     -1.7773   5.4975 -26.3709   C.2       1 RES1   0.0000
    19 C19     -1.1154   4.9889 -25.2433   C.2       1 RES1   0.0000
    20 C20     -1.8027   4.8718 -24.0224   C.2       1 RES1   0.0000
    21 C21     -3.1313   5.2518 -23.9433   C.2       1 RES1   0.0000
    22 C22     -3.8015   5.7269 -25.0720   C.2       1 RES1   0.0000
    23 N23     -4.4365   8.6293 -26.6334   N.am      1 RES1   0.0000
    24 C24     -3.6718   9.4221 -25.7832   C.2       1 RES1   0.0000
    25 O25     -2.4435   9.5553 -25.9196   O.2       1 RES1   0.0000
    26 C26     -4.3837  10.2257 -24.7944   C.2       1 RES1   0.0000
    27 C27     -3.8746  11.1177 -23.9868   C.2       1 RES1   0.0000
    28 C28     -4.6660  11.8804 -23.0251   C.2       1 RES1   0.0000
    29 C29     -6.0240  11.5527 -22.8951   C.2       1 RES1   0.0000
    30 C30     -6.8086  12.2182 -21.9802   C.2       1 RES1   0.0000
    31 Cl31    -8.4989  11.8278 -21.8682   Cl        1 RES1   0.0000
    32 C32     -6.2948  13.1992 -21.1640   C.2       1 RES1   0.0000
    33 C33     -4.9545  13.5381 -21.2740   C.2       1 RES1   0.0000
    34 C34     -4.1336  12.8931 -22.2076   C.2       1 RES1   0.0000
    35 N35     -2.7741  13.3272 -22.3608   N.pl3     1 RES1   0.0000
    36 C36     -2.0128  13.5163 -23.4422   C.2       1 RES1   0.0000
    37 N37     -0.8185  13.8996 -23.0815   N.2       1 RES1   0.0000
    38 N38     -0.8465  13.9481 -21.7279   N.2       1 RES1   0.0000
    39 N39     -2.0172  13.6158 -21.2713   N.2       1 RES1   0.0000
    40 C40     -3.3545   8.6796 -30.0600   C.2       1 RES1   0.0000
    41 C41     -1.4648   9.3492 -32.1973   C.2       1 RES1   0.0000
    42 C42     -0.5614   9.6686 -33.1984   C.2       1 RES1   0.0000
@<TRIPOS>BOND
     1     1     2    1
     2     2     3    1
     3     3     4    2
     4     3     5   am
     5     5     6    1
     6     6     7    2
     7     7     8    1
     8     8     9    2
     9     9    10    1
    10    10    11    2
    11    11    12    1
    12    12    13    2
    13    13    14    1
    14    14    15    1
    15    15    16    1
    16    16    17    1
    17    17    18    2
    18    18    19    1
    19    19    20    2
    20    20    21    1
    21    21    22    2
    22    15    23    1
    23    23    24   am
    24    24    25    2
    25    24    26    1
    26    26    27    2
    27    27    28    1
    28    28    29    2
    29    29    30    1
    30    30    31    1
    31    30    32    2
    32    32    33    1
    33    33    34    2
    34    34    35    1
    35    35    36    1
    36    36    37    2
    37    37    38    1
    38    38    39    2
    39    14    40    2
    40     9    41    1
    41    41    42    2
    42    42     6    1
    43    40    10    1
    44    22    17    1
    45    34    28    1
    46    39    35    1
@<TRIPOS>SUBSTRUCTURE
     1 RES1        1 GROUP             0 ****  ****    0  
@<TRIPOS>MOLECULE
ligand_16
    42    46     1     0     0
SMALL
NO_CHARGES
****
Generated from the CSD

@<TRIPOS>ATOM
     1 C1      -5.9720   8.3422 -11.8339   C.3       1 RES1   0.0000
     2 O2      -5.3084   9.6452 -11.6123   O.3       1 RES1   0.0000
     3 C3      -5.5356  10.5794 -12.5435   C.2       1 RES1   0.0000
     4 O4      -6.2341  10.4258 -13.5313   O.2       1 RES1   0.0000
     5 N5      -4.8441  11.7044 -12.2225   N.am      1 RES1   0.0000
     6 C6      -4.7980  12.9086 -12.9659   C.2       1 RES1   0.0000
     7 C7      -5.4656  13.1449 -14.1767   C.2       1 RES1   0.0000
     8 C8      -5.3671  14.3793 -14.8013   C.2       1 RES1   0.0000
     9 C9      -4.6423  15.4327 -14.2278   C.2       1 RES1   0.0000
    10 C10     -4.6073  16.7853 -14.8531   C.2       1 RES1   0.0000
    11 C11     -3.8736  17.8429 -14.3024   C.2       1 RES1   0.0000
    12 C12     -3.9218  19.0803 -14.9162   C.2       1 RES1   0.0000
    13 N13     -4.6115  19.3273 -16.0417   N.2       1 RES1   0.0000
    14 C14     -5.3090  18.3070 -16.5664   C.2       1 RES1   0.0000
    15 C15     -6.0365  18.5856 -17.8417   C.3       1 RES1   0.0000
    16 C16     -7.3173  19.3902 -17.5914   C.3       1 RES1   0.0000
    17 C17     -7.9964  19.9372 -18.8347   C.2       1 RES1   0.0000
    18 C18     -7.6457  21.2173 -19.3176   C.2       1 RES1   0.0000
    19 C19     -8.2657  21.7480 -20.4587   C.2       1 RES1   0.0000
    20 C20     -9.2311  20.9914 -21.1459   C.2       1 RES1   0.0000
    21 C21     -9.5696  19.7304 -20.6866   C.2       1 RES1   0.0000
    22 C22     -8.9782  19.2136 -19.5324   C.2       1 RES1   0.0000
    23 N23     -6.3148  17.3835 -18.6260   N.am      1 RES1   0.0000
    24 C24     -5.3016  16.8711 -19.4303   C.2       1 RES1   0.0000
    25 O25     -4.1775  17.3965 -19.5038   O.2       1 RES1   0.0000
    26 C26     -5.5493  15.5918 -20.0878   C.2       1 RES1   0.0000
    27 C27     -4.6997  14.8836 -20.7834   C.2       1 RES1   0.0000
    28 C28     -5.0347  13.6067 -21.4081   C.2       1 RES1   0.0000
    29 C29     -6.3574  13.1532 -21.2921   C.2       1 RES1   0.0000
    30 C30     -6.7353  11.9717 -21.8895   C.2       1 RES1   0.0000
    31 Cl31    -8.3673  11.4057 -21.6943   Cl        1 RES1   0.0000
    32 C32     -5.8498  11.2155 -22.6220   C.2       1 RES1   0.0000
    33 C33     -4.5377  11.6457 -22.7514   C.2       1 RES1   0.0000
    34 C34     -4.1166  12.8335 -22.1406   C.2       1 RES1   0.0000
    35 N35     -2.7327  13.2063 -22.2167   N.pl3     1 RES1   0.0000
    36 C36     -1.8983  13.3380 -23.2517   C.2       1 RES1   0.0000
    37 N37     -0.7130  13.6787 -22.8244   N.2       1 RES1   0.0000
    38 N38     -0.8227  13.7596 -21.4764   N.2       1 RES1   0.0000
    39 N39     -2.0329  13.4876 -21.0878   N.2       1 RES1   0.0000
    40 C40     -5.3406  17.0592 -16.0094   C.2       1 RES1   0.0000
    41 C41     -3.9809  15.1791 -13.0184   C.2       1 RES1   0.0000
    42 C42     -4.0354  13.9370 -12.4063   C.2       1 RES1   0.0000
@<TRIPOS>BOND
     1     1     2    1
     2     2     3    1
     3     3     4    2
     4     3     5   am
     5     5     6    1
     6     6     7    2
     7     7     8    1
     8     8     9    2
     9     9    10    1
    10    10    11    2
    11    11    12    1
    12    12    13    2
    13    13    14    1
    14    14    15    1
    15    15    16    1
    16    16    17    1
    17    17    18    2
    18    18    19    1
    19    19    20    2
    20    20    21    1
    21    21    22    2
    22    15    23    1
    23    23    24   am
    24    24    25    2
    25    24    26    1
    26    26    27    2
    27    27    28    1
    28    28    29    2
    29    29    30    1
    30    30    31    1
    31    30    32    2
    32    32    33    1
    33    33    34    2
    34    34    35    1
    35    35    36    1
    36    36    37    2
    37    37    38    1
    38    38    39    2
    39    14    40    2
    40     9    41    1
    41    41    42    2
    42    42     6    1
    43    40    10    1
    44    22    17    1
    45    34    28    1
    46    39    35    1
@<TRIPOS>SUBSTRUCTURE
     1 RES1        1 GROUP             0 ****  ****    0  
@<TRIPOS>MOLECULE
ligand_17
    42    46     1     0     0
SMALL
NO_CHARGES
****
Generated from the CSD

@<TRIPOS>ATOM
     1 C1      -3.6637   8.9665 -10.3542   C.3       1 RES1   0.0000
     2 O2      -4.2755   9.6690 -11.5029   O.3       1 RES1   0.0000
     3 C3      -3.9902  10.9727 -11.6063   C.2       1 RES1   0.0000
     4 O4      -3.2795  11.5956 -10.8356   O.2       1 RES1   0.0000
     5 N5      -4.6394  11.4855 -12.6846   N.am      1 RES1   0.0000
     6 C6      -4.6194  12.8325 -13.1206   C.2       1 RES1   0.0000
     7 C7      -3.9185  13.8787 -12.5028   C.2       1 RES1   0.0000
     8 C8      -3.9519  15.1570 -13.0399   C.2       1 RES1   0.0000
     9 C9      -4.6423  15.4327 -14.2278   C.2       1 RES1   0.0000
    10 C10     -4.6073  16.7853 -14.8531   C.2       1 RES1   0.0000
    11 C11     -3.8736  17.8429 -14.3024   C.2       1 RES1   0.0000
    12 C12     -3.9218  19.0803 -14.9162   C.2       1 RES1   0.0000
    13 N13     -4.6115  19.3273 -16.0417   N.2       1 RES1   0.0000
    14 C14     -5.3090  18.3070 -16.5664   C.2       1 RES1   0.0000
    15 C15     -6.0365  18.5856 -17.8417   C.3       1 RES1   0.0000
    16 C16     -7.3173  19.3902 -17.5914   C.3       1 RES1   0.0000
    17 C17     -7.9964  19.9372 -18.8347   C.2       1 RES1   0.0000
    18 C18     -7.6457  21.2173 -19.3176   C.2       1 RES1   0.0000
    19 C19     -8.2657  21.7480 -20.4587   C.2       1 RES1   0.0000
    20 C20     -9.2311  20.9914 -21.1459   C.2       1 RES1   0.0000
    21 C21     -9.5696  19.7304 -20.6866   C.2       1 RES1   0.0000
    22 C22     -8.9782  19.2136 -19.5324   C.2       1 RES1   0.0000
    23 N23     -6.3148  17.3835 -18.6260   N.am      1 RES1   0.0000
    24 C24     -5.3016  16.8711 -19.4303   C.2       1 RES1   0.0000
    25 O25     -4.1775  17.3965 -19.5038   O.2       1 RES1   0.0000
    26 C26     -5.5493  15.5918 -20.0878   C.2       1 RES1   0.0000
    27 C27     -4.6997  14.8836 -20.7834   C.2       1 RES1   0.0000
    28 C28     -5.0347  13.6067 -21.4081   C.2       1 RES1   0.0000
    29 C29     -6.3574  13.1532 -21.2921   C.2       1 RES1   0.0000
    30 C30     -6.7353  11.9717 -21.8895   C.2       1 RES1   0.0000
    31 Cl31    -8.3674  11.4058 -21.6943   Cl        1 RES1   0.0000
    32 C32     -5.8498  11.2155 -22.6220   C.2       1 RES1   0.0000
    33 C33     -4.5377  11.6457 -22.7514   C.2       1 RES1   0.0000
    34 C34     -4.1166  12.8335 -22.1406   C.2       1 RES1   0.0000
    35 N35     -2.7326  13.2063 -22.2167   N.pl3     1 RES1   0.0000
    36 C36     -1.8982  13.3380 -23.2516   C.2       1 RES1   0.0000
    37 N37     -0.7130  13.6787 -22.8243   N.2       1 RES1   0.0000
    38 N38     -0.8227  13.7596 -21.4764   N.2       1 RES1   0.0000
    39 N39     -2.0329  13.4876 -21.0877   N.2       1 RES1   0.0000
    40 C40     -5.3406  17.0592 -16.0094   C.2       1 RES1   0.0000
    41 C41     -5.3379  14.3761 -14.8314   C.2       1 RES1   0.0000
    42 C42     -5.3484  13.1042 -14.2812   C.2       1 RES1   0.0000
@<TRIPOS>BOND
     1     1     2    1
     2     2     3    1
     3     3     4    2
     4     3     5   am
     5     5     6    1
     6     6     7    2
     7     7     8    1
     8     8     9    2
     9     9    10    1
    10    10    11    2
    11    11    12    1
    12    12    13    2
    13    13    14    1
    14    14    15    1
    15    15    16    1
    16    16    17    1
    17    17    18    2
    18    18    19    1
    19    19    20    2
    20    20    21    1
    21    21    22    2
    22    15    23    1
    23    23    24   am
    24    24    25    2
    25    24    26    1
    26    26    27    2
    27    27    28    1
    28    28    29    2
    29    29    30    1
    30    30    31    1
    31    30    32    2
    32    32    33    1
    33    33    34    2
    34    34    35    1
    35    35    36    1
    36    36    37    2
    37    37    38    1
    38    38    39    2
    39    14    40    2
    40     9    41    1
    41    41    42    2
    42    42     6    1
    43    40    10    1
    44    22    17    1
    45    34    28    1
    46    39    35    1
@<TRIPOS>SUBSTRUCTURE
     1 RES1        1 GROUP             0 ****  ****    0  
@<TRIPOS>MOLECULE
ligand_18
    42    46     1     0     0
SMALL
NO_CHARGES
****
Generated from the CSD

@<TRIPOS>ATOM
     1 C1      -9.8604  17.6557 -30.7685   C.3       1 RES1   0.0000
     2 O2      -8.6998  16.9642 -31.3703   O.3       1 RES1   0.0000
     3 C3      -8.2591  15.8861 -30.7108   C.2       1 RES1   0.0000
     4 O4      -8.7413  15.4538 -29.6774   O.2       1 RES1   0.0000
     5 N5      -7.1808  15.3765 -31.3623   N.am      1 RES1   0.0000
     6 C6      -6.4110  14.2540 -30.9722   C.2       1 RES1   0.0000
     7 C7      -6.6336  13.4702 -29.8305   C.2       1 RES1   0.0000
     8 C8      -5.8269  12.3734 -29.5659   C.2       1 RES1   0.0000
     9 C9      -4.8033  11.9906 -30.4431   C.2       1 RES1   0.0000
    10 C10     -3.9927  10.7625 -30.2055   C.2       1 RES1   0.0000
    11 C11     -2.9552  10.3763 -31.0626   C.2       1 RES1   0.0000
    12 C12     -2.2739   9.2027 -30.8002   C.2       1 RES1   0.0000
    13 N13     -2.5261   8.4154 -29.7420   N.2       1 RES1   0.0000
    14 C14     -3.5196   8.7947 -28.9221   C.2       1 RES1   0.0000
    15 C15     -3.7602   7.9318 -27.7260   C.3       1 RES1   0.0000
    16 C16     -4.5039   6.6456 -28.1039   C.3       1 RES1   0.0000
    17 C17     -4.5779   5.5914 -27.0132   C.2       1 RES1   0.0000
    18 C18     -3.5612   4.6163 -26.9125   C.2       1 RES1   0.0000
    19 C19     -3.6123   3.6268 -25.9193   C.2       1 RES1   0.0000
    20 C20     -4.6738   3.6154 -24.9974   C.2       1 RES1   0.0000
    21 C21     -5.6663   4.5764 -25.0813   C.2       1 RES1   0.0000
    22 C22     -5.6352   5.5420 -26.0890   C.2       1 RES1   0.0000
    23 N23     -4.4365   8.6293 -26.6334   N.am      1 RES1   0.0000
    24 C24     -3.6721   9.4238 -25.7845   C.2       1 RES1   0.0000
    25 O25     -2.4443   9.5594 -25.9227   O.2       1 RES1   0.0000
    26 C26     -4.3842  10.2264 -24.7951   C.2       1 RES1   0.0000
    27 C27     -3.8757  11.1197 -23.9885   C.2       1 RES1   0.0000
    28 C28     -4.6672  11.8812 -23.0259   C.2       1 RES1   0.0000
    29 C29     -6.0244  11.5510 -22.8939   C.2       1 RES1   0.0000
    30 C30     -6.8091  12.2153 -21.9782   C.2       1 RES1   0.0000
    31 Cl31    -8.4985  11.8217 -21.8638   Cl        1 RES1   0.0000
    32 C32     -6.2960  13.1976 -21.1630   C.2       1 RES1   0.0000
    33 C33     -4.9565  13.5390 -21.2751   C.2       1 RES1   0.0000
    34 C34     -4.1356  12.8952 -22.2095   C.2       1 RES1   0.0000
    35 N35     -2.7772  13.3319 -22.3648   N.pl3     1 RES1   0.0000
    36 C36     -2.0178  13.5220 -23.4473   C.2       1 RES1   0.0000
    37 N37     -0.8237  13.9078 -23.0884   N.2       1 RES1   0.0000
    38 N38     -0.8499  13.9567 -21.7348   N.2       1 RES1   0.0000
    39 N39     -2.0194  13.6223 -21.2764   N.2       1 RES1   0.0000
    40 C40     -4.2630   9.9240 -29.1222   C.2       1 RES1   0.0000
    41 C41     -4.5940  12.7854 -31.5784   C.2       1 RES1   0.0000
    42 C42     -5.3647  13.9090 -31.8316   C.2       1 RES1   0.0000
@<TRIPOS>BOND
     1     1     2    1
     2     2     3    1
     3     3     4    2
     4     3     5   am
     5     5     6    1
     6     6     7    2
     7     7     8    1
     8     8     9    2
     9     9    10    1
    10    10    11    2
    11    11    12    1
    12    12    13    2
    13    13    14    1
    14    14    15    1
    15    15    16    1
    16    16    17    1
    17    17    18    2
    18    18    19    1
    19    19    20    2
    20    20    21    1
    21    21    22    2
    22    15    23    1
    23    23    24   am
    24    24    25    2
    25    24    26    1
    26    26    27    2
    27    27    28    1
    28    28    29    2
    29    29    30    1
    30    30    31    1
    31    30    32    2
    32    32    33    1
    33    33    34    2
    34    34    35    1
    35    35    36    1
    36    36    37    2
    37    37    38    1
    38    38    39    2
    39    14    40    2
    40     9    41    1
    41    41    42    2
    42    42     6    1
    43    40    10    1
    44    22    17    1
    45    34    28    1
    46    39    35    1
@<TRIPOS>SUBSTRUCTURE
     1 RES1        1 GROUP             0 ****  ****    0  
@<TRIPOS>MOLECULE
ligand_19
    42    46     1     0     0
SMALL
NO_CHARGES
****
Generated from the CSD

@<TRIPOS>ATOM
     1 C1      -7.8712  18.6342 -32.4985   C.3       1 RES1   0.0000
     2 O2      -7.8299  17.5048 -31.5446   O.3       1 RES1   0.0000
     3 C3      -6.9293  16.5511 -31.8110   C.2       1 RES1   0.0000
     4 O4      -6.1658  16.5573 -32.7619   O.2       1 RES1   0.0000
     5 N5      -7.0261  15.5735 -30.8718   N.am      1 RES1   0.0000
     6 C6      -6.2669  14.3798 -30.8139   C.2       1 RES1   0.0000
     7 C7      -5.2755  13.9992 -31.7303   C.2       1 RES1   0.0000
     8 C8      -4.5762  12.8145 -31.5536   C.2       1 RES1   0.0000
     9 C9      -4.8033  11.9906 -30.4431   C.2       1 RES1   0.0000
    10 C10     -3.9927  10.7625 -30.2055   C.2       1 RES1   0.0000
    11 C11     -2.9552  10.3763 -31.0626   C.2       1 RES1   0.0000
    12 C12     -2.2739   9.2027 -30.8002   C.2       1 RES1   0.0000
    13 N13     -2.5261   8.4154 -29.7420   N.2       1 RES1   0.0000
    14 C14     -3.5196   8.7947 -28.9221   C.2       1 RES1   0.0000
    15 C15     -3.7602   7.9318 -27.7260   C.3       1 RES1   0.0000
    16 C16     -4.5039   6.6456 -28.1039   C.3       1 RES1   0.0000
    17 C17     -4.5779   5.5914 -27.0132   C.2       1 RES1   0.0000
    18 C18     -3.5612   4.6163 -26.9125   C.2       1 RES1   0.0000
    19 C19     -3.6123   3.6268 -25.9193   C.2       1 RES1   0.0000
    20 C20     -4.6738   3.6154 -24.9974   C.2       1 RES1   0.0000
    21 C21     -5.6663   4.5764 -25.0813   C.2       1 RES1   0.0000
    22 C22     -5.6352   5.5420 -26.0890   C.2       1 RES1   0.0000
    23 N23     -4.4365   8.6293 -26.6334   N.am      1 RES1   0.0000
    24 C24     -3.6721   9.4238 -25.7845   C.2       1 RES1   0.0000
    25 O25     -2.4443   9.5594 -25.9227   O.2       1 RES1   0.0000
    26 C26     -4.3842  10.2264 -24.7951   C.2       1 RES1   0.0000
    27 C27     -3.8757  11.1197 -23.9885   C.2       1 RES1   0.0000
    28 C28     -4.6672  11.8812 -23.0259   C.2       1 RES1   0.0000
    29 C29     -6.0244  11.5510 -22.8940   C.2       1 RES1   0.0000
    30 C30     -6.8091  12.2153 -21.9782   C.2       1 RES1   0.0000
    31 Cl31    -8.4985  11.8217 -21.8638   Cl        1 RES1   0.0000
    32 C32     -6.2960  13.1976 -21.1630   C.2       1 RES1   0.0000
    33 C33     -4.9565  13.5390 -21.2751   C.2       1 RES1   0.0000
    34 C34     -4.1356  12.8952 -22.2095   C.2       1 RES1   0.0000
    35 N35     -2.7772  13.3319 -22.3648   N.pl3     1 RES1   0.0000
    36 C36     -2.0178  13.5220 -23.4473   C.2       1 RES1   0.0000
    37 N37     -0.8237  13.9078 -23.0884   N.2       1 RES1   0.0000
    38 N38     -0.8499  13.9567 -21.7348   N.2       1 RES1   0.0000
    39 N39     -2.0194  13.6223 -21.2764   N.2       1 RES1   0.0000
    40 C40     -4.2630   9.9240 -29.1222   C.2       1 RES1   0.0000
    41 C41     -5.7979  12.3854 -29.5379   C.2       1 RES1   0.0000
    42 C42     -6.5340  13.5444 -29.7262   C.2       1 RES1   0.0000
@<TRIPOS>BOND
     1     1     2    1
     2     2     3    1
     3     3     4    2
     4     3     5   am
     5     5     6    1
     6     6     7    2
     7     7     8    1
     8     8     9    2
     9     9    10    1
    10    10    11    2
    11    11    12    1
    12    12    13    2
    13    13    14    1
    14    14    15    1
    15    15    16    1
    16    16    17    1
    17    17    18    2
    18    18    19    1
    19    19    20    2
    20    20    21    1
    21    21    22    2
    22    15    23    1
    23    23    24   am
    24    24    25    2
    25    24    26    1
    26    26    27    2
    27    27    28    1
    28    28    29    2
    29    29    30    1
    30    30    31    1
    31    30    32    2
    32    32    33    1
    33    33    34    2
    34    34    35    1
    35    35    36    1
    36    36    37    2
    37    37    38    1
    38    38    39    2
    39    14    40    2
    40     9    41    1
    41    41    42    2
    42    42     6    1
    43    40    10    1
    44    22    17    1
    45    34    28    1
    46    39    35    1
@<TRIPOS>SUBSTRUCTURE
     1 RES1        1 GROUP             0 ****  ****    0  
@<TRIPOS>MOLECULE
ligand_20
    42    46     1     0     0
SMALL
NO_CHARGES
****
Generated from the CSD

@<TRIPOS>ATOM
     1 C1       8.9086   5.9908 -19.8239   C.3       1 RES1   0.0000
     2 O2       7.6533   6.7714 -19.7788   O.3       1 RES1   0.0000
     3 C3       6.5430   6.0725 -19.5135   C.2       1 RES1   0.0000
     4 O4       6.5056   4.8701 -19.3133   O.2       1 RES1   0.0000
     5 N5       5.4744   6.9120 -19.5317   N.am      1 RES1   0.0000
     6 C6       4.1190   6.5585 -19.3248   C.2       1 RES1   0.0000
     7 C7       3.6449   5.2642 -19.0650   C.2       1 RES1   0.0000
     8 C8       2.2924   5.0438 -18.8506   C.2       1 RES1   0.0000
     9 C9       1.3721   6.1005 -18.8424   C.2       1 RES1   0.0000
    10 C10     -0.0672   5.8775 -18.5259   C.2       1 RES1   0.0000
    11 C11     -0.7269   4.6865 -18.8522   C.2       1 RES1   0.0000
    12 C12     -2.0734   4.5679 -18.5637   C.2       1 RES1   0.0000
    13 N13     -2.7912   5.5238 -17.9520   N.2       1 RES1   0.0000
    14 C14     -2.1507   6.6614 -17.6381   C.2       1 RES1   0.0000
    15 C15     -2.9515   7.6986 -16.9197   C.3       1 RES1   0.0000
    16 C16     -3.7768   7.0818 -15.7845   C.3       1 RES1   0.0000
    17 C17     -4.4292   8.0753 -14.8392   C.2       1 RES1   0.0000
    18 C18     -3.7316   8.5099 -13.6906   C.2       1 RES1   0.0000
    19 C19     -4.3168   9.4200 -12.7976   C.2       1 RES1   0.0000
    20 C20     -5.6030   9.9253 -13.0567   C.2       1 RES1   0.0000
    21 C21     -6.2869   9.5146 -14.1878   C.2       1 RES1   0.0000
    22 C22     -5.7203   8.5839 -15.0604   C.2       1 RES1   0.0000
    23 N23     -3.7930   8.5001 -17.8069   N.am      1 RES1   0.0000
    24 C24     -3.2086   9.5636 -18.4878   C.2       1 RES1   0.0000
    25 O25     -2.0056   9.8526 -18.3682   O.2       1 RES1   0.0000
    26 C26     -4.0266  10.2565 -19.4782   C.2       1 RES1   0.0000
    27 C27     -3.6426  11.1938 -20.3036   C.2       1 RES1   0.0000
    28 C28     -4.5332  11.8342 -21.2679   C.2       1 RES1   0.0000
    29 C29     -5.8751  11.4250 -21.2853   C.2       1 RES1   0.0000
    30 C30     -6.7649  12.0185 -22.1522   C.2       1 RES1   0.0000
    31 Cl31    -8.4122  11.4641 -22.1892   Cl        1 RES1   0.0000
    32 C32     -6.3809  13.0272 -23.0052   C.2       1 RES1   0.0000
    33 C33     -5.0597  13.4489 -23.0036   C.2       1 RES1   0.0000
    34 C34     -4.1255  12.8530 -22.1471   C.2       1 RES1   0.0000
    35 N35     -2.7482  13.2479 -22.2317   N.pl3     1 RES1   0.0000
    36 C36     -1.9062  13.3380 -23.2650   C.2       1 RES1   0.0000
    37 N37     -0.7320  13.7252 -22.8470   N.2       1 RES1   0.0000
    38 N38     -0.8566  13.8790 -21.5067   N.2       1 RES1   0.0000
    39 N39     -2.0652  13.6055 -21.1142   N.2       1 RES1   0.0000
    40 C40     -0.8287   6.8743 -17.9125   C.2       1 RES1   0.0000
    41 C41      1.8627   7.3870 -19.1046   C.2       1 RES1   0.0000
    42 C42      3.2050   7.6146 -19.3637   C.2       1 RES1   0.0000
@<TRIPOS>BOND
     1     1     2    1
     2     2     3    1
     3     3     4    2
     4     3     5   am
     5     5     6    1
     6     6     7    2
     7     7     8    1
     8     8     9    2
     9     9    10    1
    10    10    11    2
    11    11    12    1
    12    12    13    2
    13    13    14    1
    14    14    15    1
    15    15    16    1
    16    16    17    1
    17    17    18    2
    18    18    19    1
    19    19    20    2
    20    20    21    1
    21    21    22    2
    22    15    23    1
    23    23    24   am
    24    24    25    2
    25    24    26    1
    26    26    27    2
    27    27    28    1
    28    28    29    2
    29    29    30    1
    30    30    31    1
    31    30    32    2
    32    32    33    1
    33    33    34    2
    34    34    35    1
    35    35    36    1
    36    36    37    2
    37    37    38    1
    38    38    39    2
    39    14    40    2
    40     9    41    1
    41    41    42    2
    42    42     6    1
    43    40    10    1
    44    22    17    1
    45    34    28    1
    46    39    35    1
@<TRIPOS>SUBSTRUCTURE
     1 RES1        1 GROUP             0 ****  ****    0  
@<TRIPOS>MOLECULE
ligand_21
    42    46     1     0     0
SMALL
NO_CHARGES
****
Generated from the CSD

@<TRIPOS>ATOM
     1 C1       8.2623   8.4457 -21.0334   C.3       1 RES1   0.0000
     2 O2       7.3834   7.3344 -20.6092   O.3       1 RES1   0.0000
     3 C3       6.1122   7.6643 -20.3508   C.2       1 RES1   0.0000
     4 O4       5.6503   8.7893 -20.4412   O.2       1 RES1   0.0000
     5 N5       5.4379   6.5548 -19.9493   N.am      1 RES1   0.0000
     6 C6       4.0784   6.4876 -19.5592   C.2       1 RES1   0.0000
     7 C7       3.1877   7.5704 -19.5189   C.2       1 RES1   0.0000
     8 C8       1.8661   7.3765 -19.1453   C.2       1 RES1   0.0000
     9 C9       1.3721   6.1005 -18.8424   C.2       1 RES1   0.0000
    10 C10     -0.0672   5.8775 -18.5259   C.2       1 RES1   0.0000
    11 C11     -0.7269   4.6865 -18.8522   C.2       1 RES1   0.0000
    12 C12     -2.0734   4.5679 -18.5637   C.2       1 RES1   0.0000
    13 N13     -2.7912   5.5238 -17.9520   N.2       1 RES1   0.0000
    14 C14     -2.1507   6.6614 -17.6381   C.2       1 RES1   0.0000
    15 C15     -2.9515   7.6986 -16.9197   C.3       1 RES1   0.0000
    16 C16     -3.7768   7.0818 -15.7845   C.3       1 RES1   0.0000
    17 C17     -4.4292   8.0753 -14.8392   C.2       1 RES1   0.0000
    18 C18     -3.7316   8.5099 -13.6906   C.2       1 RES1   0.0000
    19 C19     -4.3168   9.4200 -12.7976   C.2       1 RES1   0.0000
    20 C20     -5.6030   9.9253 -13.0567   C.2       1 RES1   0.0000
    21 C21     -6.2869   9.5146 -14.1878   C.2       1 RES1   0.0000
    22 C22     -5.7203   8.5839 -15.0604   C.2       1 RES1   0.0000
    23 N23     -3.7930   8.5001 -17.8069   N.am      1 RES1   0.0000
    24 C24     -3.2086   9.5636 -18.4878   C.2       1 RES1   0.0000
    25 O25     -2.0056   9.8526 -18.3682   O.2       1 RES1   0.0000
    26 C26     -4.0266  10.2565 -19.4782   C.2       1 RES1   0.0000
    27 C27     -3.6426  11.1938 -20.3036   C.2       1 RES1   0.0000
    28 C28     -4.5332  11.8342 -21.2679   C.2       1 RES1   0.0000
    29 C29     -5.8751  11.4250 -21.2853   C.2       1 RES1   0.0000
    30 C30     -6.7649  12.0185 -22.1522   C.2       1 RES1   0.0000
    31 Cl31    -8.4122  11.4641 -22.1892   Cl        1 RES1   0.0000
    32 C32     -6.3809  13.0272 -23.0052   C.2       1 RES1   0.0000
    33 C33     -5.0597  13.4489 -23.0036   C.2       1 RES1   0.0000
    34 C34     -4.1255  12.8530 -22.1471   C.2       1 RES1   0.0000
    35 N35     -2.7482  13.2479 -22.2317   N.pl3     1 RES1   0.0000
    36 C36     -1.9062  13.3380 -23.2650   C.2       1 RES1   0.0000
    37 N37     -0.7320  13.7252 -22.8470   N.2       1 RES1   0.0000
    38 N38     -0.8566  13.8790 -21.5067   N.2       1 RES1   0.0000
    39 N39     -2.0652  13.6055 -21.1142   N.2       1 RES1   0.0000
    40 C40     -0.8287   6.8743 -17.9125   C.2       1 RES1   0.0000
    41 C41      2.2758   5.0301 -18.8868   C.2       1 RES1   0.0000
    42 C42      3.6089   5.2171 -19.2161   C.2       1 RES1   0.0000
@<TRIPOS>BOND
     1     1     2    1
     2     2     3    1
     3     3     4    2
     4     3     5   am
     5     5     6    1
     6     6     7    2
     7     7     8    1
     8     8     9    2
     9     9    10    1
    10    10    11    2
    11    11    12    1
    12    12    13    2
    13    13    14    1
    14    14    15    1
    15    15    16    1
    16    16    17    1
    17    17    18    2
    18    18    19    1
    19    19    20    2
    20    20    21    1
    21    21    22    2
    22    15    23    1
    23    23    24   am
    24    24    25    2
    25    24    26    1
    26    26    27    2
    27    27    28    1
    28    28    29    2
    29    29    30    1
    30    30    31    1
    31    30    32    2
    32    32    33    1
    33    33    34    2
    34    34    35    1
    35    35    36    1
    36    36    37    2
    37    37    38    1
    38    38    39    2
    39    14    40    2
    40     9    41    1
    41    41    42    2
    42    42     6    1
    43    40    10    1
    44    22    17    1
    45    34    28    1
    46    39    35    1
@<TRIPOS>SUBSTRUCTURE
     1 RES1        1 GROUP             0 ****  ****    0  
@<TRIPOS>MOLECULE
ligand_22
    42    46     1     0     0
SMALL
NO_CHARGES
****
Generated from the CSD

@<TRIPOS>ATOM
     1 C1      -5.2462  -0.5231 -25.9163   C.3       1 RES1   0.0000
     2 O2      -5.5839   0.7342 -25.2146   O.3       1 RES1   0.0000
     3 C3      -4.7179   1.1247 -24.2717   C.2       1 RES1   0.0000
     4 O4      -3.7005   0.5256 -23.9664   O.2       1 RES1   0.0000
     5 N5      -5.1708   2.2713 -23.6996   N.am      1 RES1   0.0000
     6 C6      -4.5562   2.9891 -22.6452   C.2       1 RES1   0.0000
     7 C7      -5.0442   4.1728 -22.0723   C.2       1 RES1   0.0000
     8 C8      -4.3670   4.7730 -21.0211   C.2       1 RES1   0.0000
     9 C9      -3.2112   4.1996 -20.4742   C.2       1 RES1   0.0000
    10 C10     -2.5319   4.7959 -19.2890   C.2       1 RES1   0.0000
    11 C11     -1.3670   4.2450 -18.7415   C.2       1 RES1   0.0000
    12 C12     -0.8163   4.8298 -17.6167   C.2       1 RES1   0.0000
    13 N13     -1.3165   5.9277 -17.0270   N.2       1 RES1   0.0000
    14 C14     -2.4312   6.4528 -17.5605   C.2       1 RES1   0.0000
    15 C15     -2.9515   7.6986 -16.9197   C.3       1 RES1   0.0000
    16 C16     -3.6737   7.3912 -15.6028   C.3       1 RES1   0.0000
    17 C17     -4.0205   8.6006 -14.7523   C.2       1 RES1   0.0000
    18 C18     -3.0985   9.0659 -13.7888   C.2       1 RES1   0.0000
    19 C19     -3.3999  10.1753 -12.9848   C.2       1 RES1   0.0000
    20 C20     -4.6228  10.8488 -13.1521   C.2       1 RES1   0.0000
    21 C21     -5.5251  10.4070 -14.1041   C.2       1 RES1   0.0000
    22 C22     -5.2417   9.2833 -14.8825   C.2       1 RES1   0.0000
    23 N23     -3.7930   8.5001 -17.8069   N.am      1 RES1   0.0000
    24 C24     -3.2038   9.5498 -18.5048   C.2       1 RES1   0.0000
    25 O25     -1.9947   9.8210 -18.4071   O.2       1 RES1   0.0000
    26 C26     -4.0274  10.2485 -19.4865   C.2       1 RES1   0.0000
    27 C27     -3.6428  11.1741 -20.3247   C.2       1 RES1   0.0000
    28 C28     -4.5394  11.8217 -21.2786   C.2       1 RES1   0.0000
    29 C29     -5.8874  11.4325 -21.2715   C.2       1 RES1   0.0000
    30 C30     -6.7824  12.0338 -22.1277   C.2       1 RES1   0.0000
    31 Cl31    -8.4381  11.5041 -22.1342   Cl        1 RES1   0.0000
    32 C32     -6.3973  13.0311 -22.9936   C.2       1 RES1   0.0000
    33 C33     -5.0701  13.4329 -23.0163   C.2       1 RES1   0.0000
    34 C34     -4.1310  12.8285 -22.1712   C.2       1 RES1   0.0000
    35 N35     -2.7495  13.2021 -22.2808   N.pl3     1 RES1   0.0000
    36 C36     -1.9233  13.2728 -23.3282   C.2       1 RES1   0.0000
    37 N37     -0.7367  13.6450 -22.9319   N.2       1 RES1   0.0000
    38 N38     -0.8371  13.8093 -21.5909   N.2       1 RES1   0.0000
    39 N39     -2.0431  13.5566 -21.1769   N.2       1 RES1   0.0000
    40 C40     -3.0576   5.9226 -18.6535   C.2       1 RES1   0.0000
    41 C41     -2.7370   3.0175 -21.0592   C.2       1 RES1   0.0000
    42 C42     -3.3798   2.4314 -22.1380   C.2       1 RES1   0.0000
@<TRIPOS>BOND
     1     1     2    1
     2     2     3    1
     3     3     4    2
     4     3     5   am
     5     5     6    1
     6     6     7    2
     7     7     8    1
     8     8     9    2
     9     9    10    1
    10    10    11    2
    11    11    12    1
    12    12    13    2
    13    13    14    1
    14    14    15    1
    15    15    16    1
    16    16    17    1
    17    17    18    2
    18    18    19    1
    19    19    20    2
    20    20    21    1
    21    21    22    2
    22    15    23    1
    23    23    24   am
    24    24    25    2
    25    24    26    1
    26    26    27    2
    27    27    28    1
    28    28    29    2
    29    29    30    1
    30    30    31    1
    31    30    32    2
    32    32    33    1
    33    33    34    2
    34    34    35    1
    35    35    36    1
    36    36    37    2
    37    37    38    1
    38    38    39    2
    39    14    40    2
    40     9    41    1
    41    41    42    2
    42    42     6    1
    43    40    10    1
    44    22    17    1
    45    34    28    1
    46    39    35    1
@<TRIPOS>SUBSTRUCTURE
     1 RES1        1 GROUP             0 ****  ****    0  
@<TRIPOS>MOLECULE
ligand_23
    42    46     1     0     0
SMALL
NO_CHARGES
****
Generated from the CSD

@<TRIPOS>ATOM
     1 C1       7.4073   3.5987 -22.4195   C.3       1 RES1   0.0000
     2 O2       6.6547   4.3420 -21.3859   O.3       1 RES1   0.0000
     3 C3       5.3376   4.1074 -21.3441   C.2       1 RES1   0.0000
     4 O4       4.7404   3.3427 -22.0829   O.2       1 RES1   0.0000
     5 N5       4.7800   4.8752 -20.3712   N.am      1 RES1   0.0000
     6 C6       3.4079   4.9385 -20.0276   C.2       1 RES1   0.0000
     7 C7       2.3791   4.2112 -20.6440   C.2       1 RES1   0.0000
     8 C8       1.0708   4.3357 -20.2007   C.2       1 RES1   0.0000
     9 C9       0.7441   5.1485 -19.1069   C.2       1 RES1   0.0000
    10 C10     -0.6464   5.2158 -18.5743   C.2       1 RES1   0.0000
    11 C11     -1.5154   4.1190 -18.6169   C.2       1 RES1   0.0000
    12 C12     -2.8042   4.2689 -18.1406   C.2       1 RES1   0.0000
    13 N13     -3.2718   5.4067 -17.6020   N.2       1 RES1   0.0000
    14 C14     -2.4312   6.4528 -17.5605   C.2       1 RES1   0.0000
    15 C15     -2.9515   7.6986 -16.9197   C.3       1 RES1   0.0000
    16 C16     -3.6737   7.3912 -15.6028   C.3       1 RES1   0.0000
    17 C17     -4.0205   8.6006 -14.7523   C.2       1 RES1   0.0000
    18 C18     -3.0985   9.0659 -13.7888   C.2       1 RES1   0.0000
    19 C19     -3.3999  10.1753 -12.9848   C.2       1 RES1   0.0000
    20 C20     -4.6228  10.8488 -13.1521   C.2       1 RES1   0.0000
    21 C21     -5.5251  10.4070 -14.1041   C.2       1 RES1   0.0000
    22 C22     -5.2417   9.2833 -14.8825   C.2       1 RES1   0.0000
    23 N23     -3.7930   8.5001 -17.8069   N.am      1 RES1   0.0000
    24 C24     -3.2038   9.5499 -18.5047   C.2       1 RES1   0.0000
    25 O25     -1.9948   9.8212 -18.4068   O.2       1 RES1   0.0000
    26 C26     -4.0274  10.2486 -19.4864   C.2       1 RES1   0.0000
    27 C27     -3.6428  11.1743 -20.3246   C.2       1 RES1   0.0000
    28 C28     -4.5394  11.8217 -21.2785   C.2       1 RES1   0.0000
    29 C29     -5.8874  11.4327 -21.2714   C.2       1 RES1   0.0000
    30 C30     -6.7823  12.0339 -22.1277   C.2       1 RES1   0.0000
    31 Cl31    -8.4380  11.5043 -22.1342   Cl        1 RES1   0.0000
    32 C32     -6.3972  13.0311 -22.9937   C.2       1 RES1   0.0000
    33 C33     -5.0700  13.4328 -23.0164   C.2       1 RES1   0.0000
    34 C34     -4.1309  12.8284 -22.1712   C.2       1 RES1   0.0000
    35 N35     -2.7494  13.2019 -22.2809   N.pl3     1 RES1   0.0000
    36 C36     -1.9231  13.2724 -23.3283   C.2       1 RES1   0.0000
    37 N37     -0.7365  13.6446 -22.9321   N.2       1 RES1   0.0000
    38 N38     -0.8370  13.8092 -21.5911   N.2       1 RES1   0.0000
    39 N39     -2.0430  13.5566 -21.1771   N.2       1 RES1   0.0000
    40 C40     -1.1504   6.4011 -18.0350   C.2       1 RES1   0.0000
    41 C41      1.7840   5.8688 -18.5034   C.2       1 RES1   0.0000
    42 C42      3.0884   5.7869 -18.9644   C.2       1 RES1   0.0000
@<TRIPOS>BOND
     1     1     2    1
     2     2     3    1
     3     3     4    2
     4     3     5   am
     5     5     6    1
     6     6     7    2
     7     7     8    1
     8     8     9    2
     9     9    10    1
    10    10    11    2
    11    11    12    1
    12    12    13    2
    13    13    14    1
    14    14    15    1
    15    15    16    1
    16    16    17    1
    17    17    18    2
    18    18    19    1
    19    19    20    2
    20    20    21    1
    21    21    22    2
    22    15    23    1
    23    23    24   am
    24    24    25    2
    25    24    26    1
    26    26    27    2
    27    27    28    1
    28    28    29    2
    29    29    30    1
    30    30    31    1
    31    30    32    2
    32    32    33    1
    33    33    34    2
    34    34    35    1
    35    35    36    1
    36    36    37    2
    37    37    38    1
    38    38    39    2
    39    14    40    2
    40     9    41    1
    41    41    42    2
    42    42     6    1
    43    40    10    1
    44    22    17    1
    45    34    28    1
    46    39    35    1
@<TRIPOS>SUBSTRUCTURE
     1 RES1        1 GROUP             0 ****  ****    0  
@<TRIPOS>MOLECULE
ligand_24
    42    46     1     0     0
SMALL
NO_CHARGES
****
Generated from the CSD

@<TRIPOS>ATOM
     1 C1       8.0179   6.0228 -21.1320   C.3       1 RES1   0.0000
     2 O2       6.7088   5.3795 -21.3760   O.3       1 RES1   0.0000
     3 C3       5.7253   5.7256 -20.5367   C.2       1 RES1   0.0000
     4 O4       5.8400   6.5137 -19.6131   O.2       1 RES1   0.0000
     5 N5       4.5990   5.0394 -20.8647   N.am      1 RES1   0.0000
     6 C6       3.3484   5.1031 -20.2038   C.2       1 RES1   0.0000
     7 C7       3.0587   5.8943 -19.0824   C.2       1 RES1   0.0000
     8 C8       1.7838   5.8951 -18.5364   C.2       1 RES1   0.0000
     9 C9       0.7441   5.1485 -19.1069   C.2       1 RES1   0.0000
    10 C10     -0.6464   5.2158 -18.5743   C.2       1 RES1   0.0000
    11 C11     -1.5154   4.1190 -18.6169   C.2       1 RES1   0.0000
    12 C12     -2.8042   4.2689 -18.1406   C.2       1 RES1   0.0000
    13 N13     -3.2718   5.4067 -17.6020   N.2       1 RES1   0.0000
    14 C14     -2.4312   6.4528 -17.5605   C.2       1 RES1   0.0000
    15 C15     -2.9515   7.6986 -16.9197   C.3       1 RES1   0.0000
    16 C16     -3.6737   7.3912 -15.6028   C.3       1 RES1   0.0000
    17 C17     -4.0205   8.6006 -14.7523   C.2       1 RES1   0.0000
    18 C18     -3.0985   9.0659 -13.7888   C.2       1 RES1   0.0000
    19 C19     -3.3999  10.1753 -12.9848   C.2       1 RES1   0.0000
    20 C20     -4.6228  10.8488 -13.1521   C.2       1 RES1   0.0000
    21 C21     -5.5251  10.4070 -14.1041   C.2       1 RES1   0.0000
    22 C22     -5.2417   9.2833 -14.8825   C.2       1 RES1   0.0000
    23 N23     -3.7930   8.5001 -17.8069   N.am      1 RES1   0.0000
    24 C24     -3.2038   9.5499 -18.5047   C.2       1 RES1   0.0000
    25 O25     -1.9948   9.8212 -18.4068   O.2       1 RES1   0.0000
    26 C26     -4.0274  10.2486 -19.4864   C.2       1 RES1   0.0000
    27 C27     -3.6428  11.1743 -20.3246   C.2       1 RES1   0.0000
    28 C28     -4.5394  11.8217 -21.2785   C.2       1 RES1   0.0000
    29 C29     -5.8874  11.4327 -21.2714   C.2       1 RES1   0.0000
    30 C30     -6.7823  12.0339 -22.1277   C.2       1 RES1   0.0000
    31 Cl31    -8.4380  11.5043 -22.1342   Cl        1 RES1   0.0000
    32 C32     -6.3972  13.0311 -22.9937   C.2       1 RES1   0.0000
    33 C33     -5.0700  13.4328 -23.0164   C.2       1 RES1   0.0000
    34 C34     -4.1309  12.8284 -22.1712   C.2       1 RES1   0.0000
    35 N35     -2.7494  13.2019 -22.2809   N.pl3     1 RES1   0.0000
    36 C36     -1.9231  13.2724 -23.3283   C.2       1 RES1   0.0000
    37 N37     -0.7365  13.6446 -22.9321   N.2       1 RES1   0.0000
    38 N38     -0.8370  13.8092 -21.5911   N.2       1 RES1   0.0000
    39 N39     -2.0430  13.5566 -21.1771   N.2       1 RES1   0.0000
    40 C40     -1.1504   6.4011 -18.0350   C.2       1 RES1   0.0000
    41 C41      1.0512   4.3629 -20.2263   C.2       1 RES1   0.0000
    42 C42      2.3314   4.3195 -20.7551   C.2       1 RES1   0.0000
@<TRIPOS>BOND
     1     1     2    1
     2     2     3    1
     3     3     4    2
     4     3     5   am
     5     5     6    1
     6     6     7    2
     7     7     8    1
     8     8     9    2
     9     9    10    1
    10    10    11    2
    11    11    12    1
    12    12    13    2
    13    13    14    1
    14    14    15    1
    15    15    16    1
    16    16    17    1
    17    17    18    2
    18    18    19    1
    19    19    20    2
    20    20    21    1
    21    21    22    2
    22    15    23    1
    23    23    24   am
    24    24    25    2
    25    24    26    1
    26    26    27    2
    27    27    28    1
    28    28    29    2
    29    29    30    1
    30    30    31    1
    31    30    32    2
    32    32    33    1
    33    33    34    2
    34    34    35    1
    35    35    36    1
    36    36    37    2
    37    37    38    1
    38    38    39    2
    39    14    40    2
    40     9    41    1
    41    41    42    2
    42    42     6    1
    43    40    10    1
    44    22    17    1
    45    34    28    1
    46    39    35    1
@<TRIPOS>SUBSTRUCTURE
     1 RES1        1 GROUP             0 ****  ****    0  
@<TRIPOS>MOLECULE
ligand_25
    42    46     1     0     0
SMALL
NO_CHARGES
****
Generated from the CSD

@<TRIPOS>ATOM
     1 C1       2.8689  16.4651 -10.2772   C.3       1 RES1   0.0000
     2 O2       1.4089  16.6186 -10.0981   O.3       1 RES1   0.0000
     3 C3       0.7118  16.8874 -11.2087   C.2       1 RES1   0.0000
     4 O4       1.1924  17.0093 -12.3228   O.2       1 RES1   0.0000
     5 N5      -0.6011  17.0274 -10.8865   N.am      1 RES1   0.0000
     6 C6      -1.6596  17.3408 -11.7731   C.2       1 RES1   0.0000
     7 C7      -1.5288  17.5651 -13.1515   C.2       1 RES1   0.0000
     8 C8      -2.6467  17.8380 -13.9257   C.2       1 RES1   0.0000
     9 C9      -3.9335  17.8547 -13.3710   C.2       1 RES1   0.0000
    10 C10     -5.1435  18.0612 -14.2164   C.2       1 RES1   0.0000
    11 C11     -6.4341  18.0984 -13.6750   C.2       1 RES1   0.0000
    12 C12     -7.5116  18.2530 -14.5268   C.2       1 RES1   0.0000
    13 N13     -7.3949  18.4048 -15.8559   N.2       1 RES1   0.0000
    14 C14     -6.1537  18.3726 -16.3672   C.2       1 RES1   0.0000
    15 C15     -6.0365  18.5856 -17.8417   C.3       1 RES1   0.0000
    16 C16     -6.9023  19.7617 -18.3080   C.3       1 RES1   0.0000
    17 C17     -6.6661  20.2180 -19.7371   C.2       1 RES1   0.0000
    18 C18     -5.7009  21.2143 -20.0030   C.2       1 RES1   0.0000
    19 C19     -5.4714  21.6589 -21.3136   C.2       1 RES1   0.0000
    20 C20     -6.1917  21.0931 -22.3803   C.2       1 RES1   0.0000
    21 C21     -7.1290  20.1064 -22.1289   C.2       1 RES1   0.0000
    22 C22     -7.3830  19.6857 -20.8222   C.2       1 RES1   0.0000
    23 N23     -6.3148  17.3835 -18.6260   N.am      1 RES1   0.0000
    24 C24     -5.3023  16.8725 -19.4321   C.2       1 RES1   0.0000
    25 O25     -4.1792  17.3996 -19.5080   O.2       1 RES1   0.0000
    26 C26     -5.5493  15.5926 -20.0887   C.2       1 RES1   0.0000
    27 C27     -4.6999  14.8855 -20.7857   C.2       1 RES1   0.0000
    28 C28     -5.0342  13.6079 -21.4094   C.2       1 RES1   0.0000
    29 C29     -6.3559  13.1523 -21.2907   C.2       1 RES1   0.0000
    30 C30     -6.7331  11.9701 -21.8870   C.2       1 RES1   0.0000
    31 Cl31    -8.3639  11.4016 -21.6885   Cl        1 RES1   0.0000
    32 C32     -5.8478  11.2150 -22.6210   C.2       1 RES1   0.0000
    33 C33     -4.5366  11.6472 -22.7531   C.2       1 RES1   0.0000
    34 C34     -4.1163  12.8359 -22.1434   C.2       1 RES1   0.0000
    35 N35     -2.7330  13.2108 -22.2223   N.pl3     1 RES1   0.0000
    36 C36     -1.9008  13.3435 -23.2589   C.2       1 RES1   0.0000
    37 N37     -0.7153  13.6863 -22.8341   N.2       1 RES1   0.0000
    38 N38     -0.8225  13.7673 -21.4859   N.2       1 RES1   0.0000
    39 N39     -2.0316  13.4936 -21.0948   N.2       1 RES1   0.0000
    40 C40     -5.0351  18.1952 -15.6020   C.2       1 RES1   0.0000
    41 C41     -4.0459  17.6295 -11.9921   C.2       1 RES1   0.0000
    42 C42     -2.9325  17.3989 -11.1998   C.2       1 RES1   0.0000
@<TRIPOS>BOND
     1     1     2    1
     2     2     3    1
     3     3     4    2
     4     3     5   am
     5     5     6    1
     6     6     7    2
     7     7     8    1
     8     8     9    2
     9     9    10    1
    10    10    11    2
    11    11    12    1
    12    12    13    2
    13    13    14    1
    14    14    15    1
    15    15    16    1
    16    16    17    1
    17    17    18    2
    18    18    19    1
    19    19    20    2
    20    20    21    1
    21    21    22    2
    22    15    23    1
    23    23    24   am
    24    24    25    2
    25    24    26    1
    26    26    27    2
    27    27    28    1
    28    28    29    2
    29    29    30    1
    30    30    31    1
    31    30    32    2
    32    32    33    1
    33    33    34    2
    34    34    35    1
    35    35    36    1
    36    36    37    2
    37    37    38    1
    38    38    39    2
    39    14    40    2
    40     9    41    1
    41    41    42    2
    42    42     6    1
    43    40    10    1
    44    22    17    1
    45    34    28    1
    46    39    35    1
@<TRIPOS>SUBSTRUCTURE
     1 RES1        1 GROUP             0 ****  ****    0  
@<TRIPOS>MOLECULE
ligand_26
    42    46     1     0     0
SMALL
NO_CHARGES
****
Generated from the CSD

@<TRIPOS>ATOM
     1 C1       1.3929  17.1747  -7.9912   C.3       1 RES1   0.0000
     2 O2       1.0587  17.3272  -9.4238   O.3       1 RES1   0.0000
     3 C3      -0.2464  17.4002  -9.7120   C.2       1 RES1   0.0000
     4 O4      -1.1469  17.3500  -8.8912   O.2       1 RES1   0.0000
     5 N5      -0.3989  17.5101 -11.0580   N.am      1 RES1   0.0000
     6 C6      -1.6227  17.5862 -11.7659   C.2       1 RES1   0.0000
     7 C7      -2.9010  17.5579 -11.1891   C.2       1 RES1   0.0000
     8 C8      -4.0311  17.6686 -11.9855   C.2       1 RES1   0.0000
     9 C9      -3.9335  17.8547 -13.3710   C.2       1 RES1   0.0000
    10 C10     -5.1435  18.0612 -14.2164   C.2       1 RES1   0.0000
    11 C11     -6.4341  18.0984 -13.6750   C.2       1 RES1   0.0000
    12 C12     -7.5116  18.2530 -14.5268   C.2       1 RES1   0.0000
    13 N13     -7.3949  18.4048 -15.8559   N.2       1 RES1   0.0000
    14 C14     -6.1537  18.3726 -16.3672   C.2       1 RES1   0.0000
    15 C15     -6.0365  18.5856 -17.8417   C.3       1 RES1   0.0000
    16 C16     -6.9023  19.7617 -18.3080   C.3       1 RES1   0.0000
    17 C17     -6.6661  20.2180 -19.7371   C.2       1 RES1   0.0000
    18 C18     -5.7009  21.2143 -20.0030   C.2       1 RES1   0.0000
    19 C19     -5.4714  21.6589 -21.3136   C.2       1 RES1   0.0000
    20 C20     -6.1917  21.0931 -22.3803   C.2       1 RES1   0.0000
    21 C21     -7.1290  20.1064 -22.1289   C.2       1 RES1   0.0000
    22 C22     -7.3830  19.6857 -20.8222   C.2       1 RES1   0.0000
    23 N23     -6.3148  17.3835 -18.6260   N.am      1 RES1   0.0000
    24 C24     -5.3023  16.8725 -19.4321   C.2       1 RES1   0.0000
    25 O25     -4.1792  17.3996 -19.5080   O.2       1 RES1   0.0000
    26 C26     -5.5493  15.5926 -20.0887   C.2       1 RES1   0.0000
    27 C27     -4.6999  14.8855 -20.7857   C.2       1 RES1   0.0000
    28 C28     -5.0342  13.6079 -21.4094   C.2       1 RES1   0.0000
    29 C29     -6.3559  13.1523 -21.2907   C.2       1 RES1   0.0000
    30 C30     -6.7331  11.9701 -21.8870   C.2       1 RES1   0.0000
    31 Cl31    -8.3639  11.4016 -21.6885   Cl        1 RES1   0.0000
    32 C32     -5.8478  11.2150 -22.6210   C.2       1 RES1   0.0000
    33 C33     -4.5366  11.6472 -22.7530   C.2       1 RES1   0.0000
    34 C34     -4.1163  12.8359 -22.1434   C.2       1 RES1   0.0000
    35 N35     -2.7330  13.2108 -22.2223   N.pl3     1 RES1   0.0000
    36 C36     -1.9008  13.3435 -23.2589   C.2       1 RES1   0.0000
    37 N37     -0.7153  13.6862 -22.8340   N.2       1 RES1   0.0000
    38 N38     -0.8225  13.7673 -21.4859   N.2       1 RES1   0.0000
    39 N39     -2.0316  13.4936 -21.0948   N.2       1 RES1   0.0000
    40 C40     -5.0351  18.1952 -15.6020   C.2       1 RES1   0.0000
    41 C41     -2.6488  17.8797 -13.9308   C.2       1 RES1   0.0000
    42 C42     -1.5129  17.7265 -13.1518   C.2       1 RES1   0.0000
@<TRIPOS>BOND
     1     1     2    1
     2     2     3    1
     3     3     4    2
     4     3     5   am
     5     5     6    1
     6     6     7    2
     7     7     8    1
     8     8     9    2
     9     9    10    1
    10    10    11    2
    11    11    12    1
    12    12    13    2
    13    13    14    1
    14    14    15    1
    15    15    16    1
    16    16    17    1
    17    17    18    2
    18    18    19    1
    19    19    20    2
    20    20    21    1
    21    21    22    2
    22    15    23    1
    23    23    24   am
    24    24    25    2
    25    24    26    1
    26    26    27    2
    27    27    28    1
    28    28    29    2
    29    29    30    1
    30    30    31    1
    31    30    32    2
    32    32    33    1
    33    33    34    2
    34    34    35    1
    35    35    36    1
    36    36    37    2
    37    37    38    1
    38    38    39    2
    39    14    40    2
    40     9    41    1
    41    41    42    2
    42    42     6    1
    43    40    10    1
    44    22    17    1
    45    34    28    1
    46    39    35    1
@<TRIPOS>SUBSTRUCTURE
     1 RES1        1 GROUP             0 ****  ****    0  
@<TRIPOS>MOLECULE
ligand_27
    42    46     1     0     0
SMALL
NO_CHARGES
****
Generated from the CSD

@<TRIPOS>ATOM
     1 C1       5.9136  -0.8430 -17.6008   C.3       1 RES1   0.0000
     2 O2       5.3278   0.4857 -17.8809   O.3       1 RES1   0.0000
     3 C3       4.0080   0.5924 -17.6851   C.2       1 RES1   0.0000
     4 O4       3.2833  -0.3106 -17.3021   O.2       1 RES1   0.0000
     5 N5       3.6112   1.8518 -18.0069   N.am      1 RES1   0.0000
     6 C6       2.2898   2.3584 -17.9624   C.2       1 RES1   0.0000
     7 C7       1.1522   1.6347 -17.5755   C.2       1 RES1   0.0000
     8 C8      -0.0911   2.2485 -17.5446   C.2       1 RES1   0.0000
     9 C9      -0.2432   3.6072 -17.8524   C.2       1 RES1   0.0000
    10 C10     -1.5633   4.2894 -17.7354   C.2       1 RES1   0.0000
    11 C11     -2.7715   3.6205 -17.9654   C.2       1 RES1   0.0000
    12 C12     -3.9547   4.3295 -17.8778   C.2       1 RES1   0.0000
    13 N13     -4.0216   5.6299 -17.5494   N.2       1 RES1   0.0000
    14 C14     -2.8590   6.2634 -17.3259   C.2       1 RES1   0.0000
    15 C15     -2.9515   7.6986 -16.9197   C.3       1 RES1   0.0000
    16 C16     -3.3974   7.8396 -15.4597   C.3       1 RES1   0.0000
    17 C17     -3.2839   9.2370 -14.8760   C.2       1 RES1   0.0000
    18 C18     -2.0894   9.6322 -14.2342   C.2       1 RES1   0.0000
    19 C19     -1.9638  10.9145 -13.6791   C.2       1 RES1   0.0000
    20 C20     -3.0281  11.8276 -13.7802   C.2       1 RES1   0.0000
    21 C21     -4.1965  11.4521 -14.4201   C.2       1 RES1   0.0000
    22 C22     -4.3362  10.1657 -14.9442   C.2       1 RES1   0.0000
    23 N23     -3.7930   8.5001 -17.8069   N.am      1 RES1   0.0000
    24 C24     -3.2091   9.5649 -18.4861   C.2       1 RES1   0.0000
    25 O25     -2.0068   9.8557 -18.3643   O.2       1 RES1   0.0000
    26 C26     -4.0265  10.2573 -19.4774   C.2       1 RES1   0.0000
    27 C27     -3.6425  11.1957 -20.3015   C.2       1 RES1   0.0000
    28 C28     -4.5325  11.8355 -21.2668   C.2       1 RES1   0.0000
    29 C29     -5.8737  11.4241 -21.2868   C.2       1 RES1   0.0000
    30 C30     -6.7631  12.0170 -22.1547   C.2       1 RES1   0.0000
    31 Cl31    -8.4094  11.4601 -22.1948   Cl        1 RES1   0.0000
    32 C32     -6.3792  13.0268 -23.0064   C.2       1 RES1   0.0000
    33 C33     -5.0587  13.4506 -23.0023   C.2       1 RES1   0.0000
    34 C34     -4.1249  12.8555 -22.1447   C.2       1 RES1   0.0000
    35 N35     -2.7481  13.2526 -22.2267   N.pl3     1 RES1   0.0000
    36 C36     -1.9045  13.3447 -23.2586   C.2       1 RES1   0.0000
    37 N37     -0.7316  13.7334 -22.8383   N.2       1 RES1   0.0000
    38 N38     -0.8587  13.8860 -21.4982   N.2       1 RES1   0.0000
    39 N39     -2.0675  13.6104 -21.1078   N.2       1 RES1   0.0000
    40 C40     -1.6426   5.6470 -17.4188   C.2       1 RES1   0.0000
    41 C41      0.9036   4.3150 -18.2378   C.2       1 RES1   0.0000
    42 C42      2.1444   3.7026 -18.3149   C.2       1 RES1   0.0000
@<TRIPOS>BOND
     1     1     2    1
     2     2     3    1
     3     3     4    2
     4     3     5   am
     5     5     6    1
     6     6     7    2
     7     7     8    1
     8     8     9    2
     9     9    10    1
    10    10    11    2
    11    11    12    1
    12    12    13    2
    13    13    14    1
    14    14    15    1
    15    15    16    1
    16    16    17    1
    17    17    18    2
    18    18    19    1
    19    19    20    2
    20    20    21    1
    21    21    22    2
    22    15    23    1
    23    23    24   am
    24    24    25    2
    25    24    26    1
    26    26    27    2
    27    27    28    1
    28    28    29    2
    29    29    30    1
    30    30    31    1
    31    30    32    2
    32    32    33    1
    33    33    34    2
    34    34    35    1
    35    35    36    1
    36    36    37    2
    37    37    38    1
    38    38    39    2
    39    14    40    2
    40     9    41    1
    41    41    42    2
    42    42     6    1
    43    40    10    1
    44    22    17    1
    45    34    28    1
    46    39    35    1
@<TRIPOS>SUBSTRUCTURE
     1 RES1        1 GROUP             0 ****  ****    0  
@<TRIPOS>MOLECULE
ligand_28
    42    46     1     0     0
SMALL
NO_CHARGES
****
Generated from the CSD

@<TRIPOS>ATOM
     1 C1       6.8311   1.2199 -19.2769   C.3       1 RES1   0.0000
     2 O2       5.4597   0.9027 -18.8233   O.3       1 RES1   0.0000
     3 C3       4.5954   1.9247 -18.8255   C.2       1 RES1   0.0000
     4 O4       4.8620   3.0644 -19.1679   O.2       1 RES1   0.0000
     5 N5       3.3935   1.4914 -18.3620   N.am      1 RES1   0.0000
     6 C6       2.2251   2.2715 -18.1858   C.2       1 RES1   0.0000
     7 C7       2.1110   3.6420 -18.4617   C.2       1 RES1   0.0000
     8 C8       0.9019   4.2955 -18.2752   C.2       1 RES1   0.0000
     9 C9      -0.2432   3.6072 -17.8524   C.2       1 RES1   0.0000
    10 C10     -1.5633   4.2894 -17.7354   C.2       1 RES1   0.0000
    11 C11     -2.7715   3.6205 -17.9654   C.2       1 RES1   0.0000
    12 C12     -3.9547   4.3295 -17.8778   C.2       1 RES1   0.0000
    13 N13     -4.0216   5.6299 -17.5494   N.2       1 RES1   0.0000
    14 C14     -2.8590   6.2634 -17.3259   C.2       1 RES1   0.0000
    15 C15     -2.9515   7.6986 -16.9197   C.3       1 RES1   0.0000
    16 C16     -3.3974   7.8396 -15.4597   C.3       1 RES1   0.0000
    17 C17     -3.2839   9.2370 -14.8760   C.2       1 RES1   0.0000
    18 C18     -2.0894   9.6322 -14.2342   C.2       1 RES1   0.0000
    19 C19     -1.9638  10.9145 -13.6791   C.2       1 RES1   0.0000
    20 C20     -3.0281  11.8276 -13.7802   C.2       1 RES1   0.0000
    21 C21     -4.1965  11.4521 -14.4201   C.2       1 RES1   0.0000
    22 C22     -4.3362  10.1657 -14.9442   C.2       1 RES1   0.0000
    23 N23     -3.7930   8.5001 -17.8069   N.am      1 RES1   0.0000
    24 C24     -3.2091   9.5649 -18.4861   C.2       1 RES1   0.0000
    25 O25     -2.0068   9.8557 -18.3643   O.2       1 RES1   0.0000
    26 C26     -4.0265  10.2573 -19.4774   C.2       1 RES1   0.0000
    27 C27     -3.6425  11.1957 -20.3015   C.2       1 RES1   0.0000
    28 C28     -4.5325  11.8355 -21.2668   C.2       1 RES1   0.0000
    29 C29     -5.8737  11.4241 -21.2868   C.2       1 RES1   0.0000
    30 C30     -6.7631  12.0170 -22.1547   C.2       1 RES1   0.0000
    31 Cl31    -8.4094  11.4601 -22.1948   Cl        1 RES1   0.0000
    32 C32     -6.3792  13.0268 -23.0064   C.2       1 RES1   0.0000
    33 C33     -5.0587  13.4506 -23.0023   C.2       1 RES1   0.0000
    34 C34     -4.1249  12.8555 -22.1447   C.2       1 RES1   0.0000
    35 N35     -2.7481  13.2526 -22.2267   N.pl3     1 RES1   0.0000
    36 C36     -1.9045  13.3447 -23.2586   C.2       1 RES1   0.0000
    37 N37     -0.7316  13.7334 -22.8383   N.2       1 RES1   0.0000
    38 N38     -0.8587  13.8860 -21.4982   N.2       1 RES1   0.0000
    39 N39     -2.0675  13.6104 -21.1078   N.2       1 RES1   0.0000
    40 C40     -1.6426   5.6470 -17.4188   C.2       1 RES1   0.0000
    41 C41     -0.1112   2.2386 -17.5804   C.2       1 RES1   0.0000
    42 C42      1.1017   1.5830 -17.7208   C.2       1 RES1   0.0000
@<TRIPOS>BOND
     1     1     2    1
     2     2     3    1
     3     3     4    2
     4     3     5   am
     5     5     6    1
     6     6     7    2
     7     7     8    1
     8     8     9    2
     9     9    10    1
    10    10    11    2
    11    11    12    1
    12    12    13    2
    13    13    14    1
    14    14    15    1
    15    15    16    1
    16    16    17    1
    17    17    18    2
    18    18    19    1
    19    19    20    2
    20    20    21    1
    21    21    22    2
    22    15    23    1
    23    23    24   am
    24    24    25    2
    25    24    26    1
    26    26    27    2
    27    27    28    1
    28    28    29    2
    29    29    30    1
    30    30    31    1
    31    30    32    2
    32    32    33    1
    33    33    34    2
    34    34    35    1
    35    35    36    1
    36    36    37    2
    37    37    38    1
    38    38    39    2
    39    14    40    2
    40     9    41    1
    41    41    42    2
    42    42     6    1
    43    40    10    1
    44    22    17    1
    45    34    28    1
    46    39    35    1
@<TRIPOS>SUBSTRUCTURE
     1 RES1        1 GROUP             0 ****  ****    0  
@<TRIPOS>MOLECULE
ligand_29
    42    46     1     0     0
SMALL
NO_CHARGES
****
Generated from the CSD

@<TRIPOS>ATOM
     1 C1       1.3441  15.8325 -34.9751   C.3       1 RES1   0.0000
     2 O2       0.1428  14.9789 -35.0996   O.3       1 RES1   0.0000
     3 C3      -0.1080  14.1727 -34.0611   C.2       1 RES1   0.0000
     4 O4       0.5722  14.1020 -33.0514   O.2       1 RES1   0.0000
     5 N5      -1.2180  13.4355 -34.3286   N.am      1 RES1   0.0000
     6 C6      -1.7970  12.4479 -33.4954   C.2       1 RES1   0.0000
     7 C7      -1.3142  12.0575 -32.2377   C.2       1 RES1   0.0000
     8 C8      -1.9850  11.0948 -31.4981   C.2       1 RES1   0.0000
     9 C9      -3.1772  10.5195 -31.9578   C.2       1 RES1   0.0000
    10 C10     -3.9454   9.5498 -31.1264   C.2       1 RES1   0.0000
    11 C11     -5.1284   8.9530 -31.5784   C.2       1 RES1   0.0000
    12 C12     -5.8080   8.0942 -30.7351   C.2       1 RES1   0.0000
    13 N13     -5.3819   7.7662 -29.5047   N.2       1 RES1   0.0000
    14 C14     -4.2442   8.3391 -29.0799   C.2       1 RES1   0.0000
    15 C15     -3.7602   7.9318 -27.7260   C.3       1 RES1   0.0000
    16 C16     -3.8327   6.4119 -27.5393   C.3       1 RES1   0.0000
    17 C17     -3.1369   5.8736 -26.3014   C.2       1 RES1   0.0000
    18 C18     -1.7773   5.4975 -26.3709   C.2       1 RES1   0.0000
    19 C19     -1.1154   4.9889 -25.2433   C.2       1 RES1   0.0000
    20 C20     -1.8027   4.8718 -24.0224   C.2       1 RES1   0.0000
    21 C21     -3.1313   5.2518 -23.9433   C.2       1 RES1   0.0000
    22 C22     -3.8015   5.7269 -25.0720   C.2       1 RES1   0.0000
    23 N23     -4.4365   8.6293 -26.6334   N.am      1 RES1   0.0000
    24 C24     -3.6718   9.4221 -25.7832   C.2       1 RES1   0.0000
    25 O25     -2.4435   9.5553 -25.9196   O.2       1 RES1   0.0000
    26 C26     -4.3837  10.2257 -24.7944   C.2       1 RES1   0.0000
    27 C27     -3.8746  11.1177 -23.9868   C.2       1 RES1   0.0000
    28 C28     -4.6660  11.8804 -23.0251   C.2       1 RES1   0.0000
    29 C29     -6.0240  11.5527 -22.8951   C.2       1 RES1   0.0000
    30 C30     -6.8086  12.2182 -21.9802   C.2       1 RES1   0.0000
    31 Cl31    -8.4989  11.8278 -21.8682   Cl        1 RES1   0.0000
    32 C32     -6.2948  13.1992 -21.1640   C.2       1 RES1   0.0000
    33 C33     -4.9545  13.5381 -21.2740   C.2       1 RES1   0.0000
    34 C34     -4.1336  12.8931 -22.2076   C.2       1 RES1   0.0000
    35 N35     -2.7741  13.3272 -22.3608   N.pl3     1 RES1   0.0000
    36 C36     -2.0129  13.5163 -23.4422   C.2       1 RES1   0.0000
    37 N37     -0.8185  13.8996 -23.0815   N.2       1 RES1   0.0000
    38 N38     -0.8465  13.9481 -21.7279   N.2       1 RES1   0.0000
    39 N39     -2.0172  13.6158 -21.2713   N.2       1 RES1   0.0000
    40 C40     -3.5244   9.2211 -29.8363   C.2       1 RES1   0.0000
    41 C41     -3.6449  10.9204 -33.2168   C.2       1 RES1   0.0000
    42 C42     -2.9607  11.8491 -33.9848   C.2       1 RES1   0.0000
@<TRIPOS>BOND
     1     1     2    1
     2     2     3    1
     3     3     4    2
     4     3     5   am
     5     5     6    1
     6     6     7    2
     7     7     8    1
     8     8     9    2
     9     9    10    1
    10    10    11    2
    11    11    12    1
    12    12    13    2
    13    13    14    1
    14    14    15    1
    15    15    16    1
    16    16    17    1
    17    17    18    2
    18    18    19    1
    19    19    20    2
    20    20    21    1
    21    21    22    2
    22    15    23    1
    23    23    24   am
    24    24    25    2
    25    24    26    1
    26    26    27    2
    27    27    28    1
    28    28    29    2
    29    29    30    1
    30    30    31    1
    31    30    32    2
    32    32    33    1
    33    33    34    2
    34    34    35    1
    35    35    36    1
    36    36    37    2
    37    37    38    1
    38    38    39    2
    39    14    40    2
    40     9    41    1
    41    41    42    2
    42    42     6    1
    43    40    10    1
    44    22    17    1
    45    34    28    1
    46    39    35    1
@<TRIPOS>SUBSTRUCTURE
     1 RES1        1 GROUP             0 ****  ****    0  
@<TRIPOS>MOLECULE
ligand_30
    42    46     1     0     0
SMALL
NO_CHARGES
****
Generated from the CSD

@<TRIPOS>ATOM
     1 C1       0.0014  14.9257 -37.2735   C.3       1 RES1   0.0000
     2 O2       0.0636  14.3415 -35.9162   O.3       1 RES1   0.0000
     3 C3      -0.9566  13.5433 -35.5793   C.2       1 RES1   0.0000
     4 O4      -1.9034  13.2775 -36.3005   O.2       1 RES1   0.0000
     5 N5      -0.7770  13.1063 -34.3050   N.am      1 RES1   0.0000
     6 C6      -1.6469  12.2649 -33.5701   C.2       1 RES1   0.0000
     7 C7      -2.8581  11.7358 -34.0395   C.2       1 RES1   0.0000
     8 C8      -3.6145  10.8970 -33.2345   C.2       1 RES1   0.0000
     9 C9      -3.1772  10.5195 -31.9578   C.2       1 RES1   0.0000
    10 C10     -3.9454   9.5498 -31.1264   C.2       1 RES1   0.0000
    11 C11     -5.1284   8.9530 -31.5784   C.2       1 RES1   0.0000
    12 C12     -5.8080   8.0942 -30.7351   C.2       1 RES1   0.0000
    13 N13     -5.3819   7.7662 -29.5047   N.2       1 RES1   0.0000
    14 C14     -4.2442   8.3391 -29.0799   C.2       1 RES1   0.0000
    15 C15     -3.7602   7.9318 -27.7260   C.3       1 RES1   0.0000
    16 C16     -3.8327   6.4119 -27.5393   C.3       1 RES1   0.0000
    17 C17     -3.1369   5.8736 -26.3014   C.2       1 RES1   0.0000
    18 C18     -1.7773   5.4975 -26.3709   C.2       1 RES1   0.0000
    19 C19     -1.1154   4.9889 -25.2433   C.2       1 RES1   0.0000
    20 C20     -1.8027   4.8718 -24.0224   C.2       1 RES1   0.0000
    21 C21     -3.1313   5.2518 -23.9433   C.2       1 RES1   0.0000
    22 C22     -3.8015   5.7269 -25.0720   C.2       1 RES1   0.0000
    23 N23     -4.4365   8.6293 -26.6334   N.am      1 RES1   0.0000
    24 C24     -3.6718   9.4221 -25.7832   C.2       1 RES1   0.0000
    25 O25     -2.4435   9.5553 -25.9196   O.2       1 RES1   0.0000
    26 C26     -4.3837  10.2257 -24.7944   C.2       1 RES1   0.0000
    27 C27     -3.8746  11.1177 -23.9868   C.2       1 RES1   0.0000
    28 C28     -4.6660  11.8804 -23.0251   C.2       1 RES1   0.0000
    29 C29     -6.0240  11.5527 -22.8951   C.2       1 RES1   0.0000
    30 C30     -6.8086  12.2182 -21.9802   C.2       1 RES1   0.0000
    31 Cl31    -8.4989  11.8278 -21.8682   Cl        1 RES1   0.0000
    32 C32     -6.2948  13.1992 -21.1640   C.2       1 RES1   0.0000
    33 C33     -4.9545  13.5381 -21.2740   C.2       1 RES1   0.0000
    34 C34     -4.1336  12.8931 -22.2076   C.2       1 RES1   0.0000
    35 N35     -2.7741  13.3272 -22.3608   N.pl3     1 RES1   0.0000
    36 C36     -2.0128  13.5163 -23.4422   C.2       1 RES1   0.0000
    37 N37     -0.8185  13.8996 -23.0815   N.2       1 RES1   0.0000
    38 N38     -0.8465  13.9481 -21.7279   N.2       1 RES1   0.0000
    39 N39     -2.0172  13.6158 -21.2713   N.2       1 RES1   0.0000
    40 C40     -3.5244   9.2211 -29.8363   C.2       1 RES1   0.0000
    41 C41     -1.9653  11.0580 -31.5042   C.2       1 RES1   0.0000
    42 C42     -1.2216  11.9317 -32.2815   C.2       1 RES1   0.0000
@<TRIPOS>BOND
     1     1     2    1
     2     2     3    1
     3     3     4    2
     4     3     5   am
     5     5     6    1
     6     6     7    2
     7     7     8    1
     8     8     9    2
     9     9    10    1
    10    10    11    2
    11    11    12    1
    12    12    13    2
    13    13    14    1
    14    14    15    1
    15    15    16    1
    16    16    17    1
    17    17    18    2
    18    18    19    1
    19    19    20    2
    20    20    21    1
    21    21    22    2
    22    15    23    1
    23    23    24   am
    24    24    25    2
    25    24    26    1
    26    26    27    2
    27    27    28    1
    28    28    29    2
    29    29    30    1
    30    30    31    1
    31    30    32    2
    32    32    33    1
    33    33    34    2
    34    34    35    1
    35    35    36    1
    36    36    37    2
    37    37    38    1
    38    38    39    2
    39    14    40    2
    40     9    41    1
    41    41    42    2
    42    42     6    1
    43    40    10    1
    44    22    17    1
    45    34    28    1
    46    39    35    1
@<TRIPOS>SUBSTRUCTURE
     1 RES1        1 GROUP             0 ****  ****    0  
@<TRIPOS>MOLECULE
ligand_31
    42    46     1     0     0
SMALL
NO_CHARGES
****
Generated from the CSD

@<TRIPOS>ATOM
     1 C1      10.0977   7.1766 -17.3351   C.3       1 RES1   0.0000
     2 O2       8.7861   7.4824 -16.7241   O.3       1 RES1   0.0000
     3 C3       7.7152   7.0372 -17.3924   C.2       1 RES1   0.0000
     4 O4       7.7548   6.4150 -18.4405   O.2       1 RES1   0.0000
     5 N5       6.5898   7.4138 -16.7302   N.am      1 RES1   0.0000
     6 C6       5.2534   7.1609 -17.1240   C.2       1 RES1   0.0000
     7 C7       4.1072   7.5599 -16.4208   C.2       1 RES1   0.0000
     8 C8       2.8449   7.2780 -16.9217   C.2       1 RES1   0.0000
     9 C9       2.6751   6.6321 -18.1537   C.2       1 RES1   0.0000
    10 C10      1.3212   6.4063 -18.7346   C.2       1 RES1   0.0000
    11 C11      1.1338   5.7473 -19.9556   C.2       1 RES1   0.0000
    12 C12     -0.1492   5.6108 -20.4511   C.2       1 RES1   0.0000
    13 N13     -1.2457   6.0477 -19.8106   N.2       1 RES1   0.0000
    14 C14     -1.0583   6.6748 -18.6381   C.2       1 RES1   0.0000
    15 C15     -2.2901   7.1172 -17.9168   C.3       1 RES1   0.0000
    16 C16     -3.0079   5.9341 -17.2570   C.3       1 RES1   0.0000
    17 C17     -4.1252   6.3033 -16.2969   C.2       1 RES1   0.0000
    18 C18     -3.8352   6.5014 -14.9289   C.2       1 RES1   0.0000
    19 C19     -4.8518   6.8338 -14.0211   C.2       1 RES1   0.0000
    20 C20     -6.1718   6.9950 -14.4775   C.2       1 RES1   0.0000
    21 C21     -6.4609   6.8163 -15.8192   C.2       1 RES1   0.0000
    22 C22     -5.4571   6.4529 -16.7188   C.2       1 RES1   0.0000
    23 N23     -3.2074   7.8893 -18.7535   N.am      1 RES1   0.0000
    24 C24     -2.9487   9.2436 -18.9403   C.2       1 RES1   0.0000
    25 O25     -1.9725   9.8143 -18.4242   O.2       1 RES1   0.0000
    26 C26     -3.7877   9.9613 -19.8949   C.2       1 RES1   0.0000
    27 C27     -3.6426  11.1938 -20.3036   C.2       1 RES1   0.0000
    28 C28     -4.5332  11.8342 -21.2679   C.2       1 RES1   0.0000
    29 C29     -5.8835  11.4534 -21.2587   C.2       1 RES1   0.0000
    30 C30     -6.7730  12.0489 -22.1246   C.2       1 RES1   0.0000
    31 Cl31    -8.4318  11.5291 -22.1279   Cl        1 RES1   0.0000
    32 C32     -6.3800  13.0324 -23.0026   C.2       1 RES1   0.0000
    33 C33     -5.0504  13.4258 -23.0276   C.2       1 RES1   0.0000
    34 C34     -4.1167  12.8268 -22.1726   C.2       1 RES1   0.0000
    35 N35     -2.7328  13.1906 -22.2840   N.pl3     1 RES1   0.0000
    36 C36     -1.9059  13.2500 -23.3317   C.2       1 RES1   0.0000
    37 N37     -0.7170  13.6164 -22.9373   N.2       1 RES1   0.0000
    38 N38     -0.8165  13.7889 -21.5972   N.2       1 RES1   0.0000
    39 N39     -2.0242  13.5465 -21.1820   N.2       1 RES1   0.0000
    40 C40      0.1767   6.8784 -18.0889   C.2       1 RES1   0.0000
    41 C41      3.8309   6.2396 -18.8425   C.2       1 RES1   0.0000
    42 C42      5.0974   6.4764 -18.3320   C.2       1 RES1   0.0000
@<TRIPOS>BOND
     1     1     2    1
     2     2     3    1
     3     3     4    2
     4     3     5   am
     5     5     6    1
     6     6     7    2
     7     7     8    1
     8     8     9    2
     9     9    10    1
    10    10    11    2
    11    11    12    1
    12    12    13    2
    13    13    14    1
    14    14    15    1
    15    15    16    1
    16    16    17    1
    17    17    18    2
    18    18    19    1
    19    19    20    2
    20    20    21    1
    21    21    22    2
    22    15    23    1
    23    23    24   am
    24    24    25    2
    25    24    26    1
    26    26    27    2
    27    27    28    1
    28    28    29    2
    29    29    30    1
    30    30    31    1
    31    30    32    2
    32    32    33    1
    33    33    34    2
    34    34    35    1
    35    35    36    1
    36    36    37    2
    37    37    38    1
    38    38    39    2
    39    14    40    2
    40     9    41    1
    41    41    42    2
    42    42     6    1
    43    40    10    1
    44    22    17    1
    45    34    28    1
    46    39    35    1
@<TRIPOS>SUBSTRUCTURE
     1 RES1        1 GROUP             0 ****  ****    0  
@<TRIPOS>MOLECULE
ligand_32
    42    46     1     0     0
SMALL
NO_CHARGES
****
Generated from the CSD

@<TRIPOS>ATOM
     1 C1       8.2312   8.2522 -13.4032   C.3       1 RES1   0.0000
     2 O2       7.8951   7.6716 -14.7213   O.3       1 RES1   0.0000
     3 C3       6.6030   7.7227 -15.0669   C.2       1 RES1   0.0000
     4 O4       5.7154   8.2035 -14.3827   O.2       1 RES1   0.0000
     5 N5       6.4438   7.1317 -16.2803   N.am      1 RES1   0.0000
     6 C6       5.2264   6.9588 -16.9823   C.2       1 RES1   0.0000
     7 C7       5.0887   6.3456 -18.2363   C.2       1 RES1   0.0000
     8 C8       3.8357   6.2080 -18.8148   C.2       1 RES1   0.0000
     9 C9       2.6751   6.6321 -18.1537   C.2       1 RES1   0.0000
    10 C10      1.3212   6.4063 -18.7346   C.2       1 RES1   0.0000
    11 C11      1.1338   5.7473 -19.9556   C.2       1 RES1   0.0000
    12 C12     -0.1492   5.6108 -20.4511   C.2       1 RES1   0.0000
    13 N13     -1.2457   6.0477 -19.8106   N.2       1 RES1   0.0000
    14 C14     -1.0583   6.6748 -18.6381   C.2       1 RES1   0.0000
    15 C15     -2.2901   7.1172 -17.9168   C.3       1 RES1   0.0000
    16 C16     -3.0079   5.9341 -17.2570   C.3       1 RES1   0.0000
    17 C17     -4.1252   6.3033 -16.2969   C.2       1 RES1   0.0000
    18 C18     -3.8352   6.5014 -14.9289   C.2       1 RES1   0.0000
    19 C19     -4.8518   6.8338 -14.0211   C.2       1 RES1   0.0000
    20 C20     -6.1718   6.9950 -14.4775   C.2       1 RES1   0.0000
    21 C21     -6.4609   6.8163 -15.8192   C.2       1 RES1   0.0000
    22 C22     -5.4571   6.4529 -16.7188   C.2       1 RES1   0.0000
    23 N23     -3.2074   7.8893 -18.7535   N.am      1 RES1   0.0000
    24 C24     -2.9487   9.2436 -18.9403   C.2       1 RES1   0.0000
    25 O25     -1.9725   9.8143 -18.4242   O.2       1 RES1   0.0000
    26 C26     -3.7877   9.9613 -19.8949   C.2       1 RES1   0.0000
    27 C27     -3.6426  11.1938 -20.3036   C.2       1 RES1   0.0000
    28 C28     -4.5332  11.8342 -21.2679   C.2       1 RES1   0.0000
    29 C29     -5.8835  11.4534 -21.2587   C.2       1 RES1   0.0000
    30 C30     -6.7730  12.0489 -22.1246   C.2       1 RES1   0.0000
    31 Cl31    -8.4318  11.5291 -22.1279   Cl        1 RES1   0.0000
    32 C32     -6.3800  13.0324 -23.0026   C.2       1 RES1   0.0000
    33 C33     -5.0504  13.4258 -23.0276   C.2       1 RES1   0.0000
    34 C34     -4.1167  12.8268 -22.1726   C.2       1 RES1   0.0000
    35 N35     -2.7328  13.1906 -22.2840   N.pl3     1 RES1   0.0000
    36 C36     -1.9059  13.2500 -23.3317   C.2       1 RES1   0.0000
    37 N37     -0.7170  13.6164 -22.9373   N.2       1 RES1   0.0000
    38 N38     -0.8165  13.7889 -21.5972   N.2       1 RES1   0.0000
    39 N39     -2.0242  13.5465 -21.1820   N.2       1 RES1   0.0000
    40 C40      0.1767   6.8784 -18.0889   C.2       1 RES1   0.0000
    41 C41      2.8309   7.2435 -16.9021   C.2       1 RES1   0.0000
    42 C42      4.0811   7.4263 -16.3327   C.2       1 RES1   0.0000
@<TRIPOS>BOND
     1     1     2    1
     2     2     3    1
     3     3     4    2
     4     3     5   am
     5     5     6    1
     6     6     7    2
     7     7     8    1
     8     8     9    2
     9     9    10    1
    10    10    11    2
    11    11    12    1
    12    12    13    2
    13    13    14    1
    14    14    15    1
    15    15    16    1
    16    16    17    1
    17    17    18    2
    18    18    19    1
    19    19    20    2
    20    20    21    1
    21    21    22    2
    22    15    23    1
    23    23    24   am
    24    24    25    2
    25    24    26    1
    26    26    27    2
    27    27    28    1
    28    28    29    2
    29    29    30    1
    30    30    31    1
    31    30    32    2
    32    32    33    1
    33    33    34    2
    34    34    35    1
    35    35    36    1
    36    36    37    2
    37    37    38    1
    38    38    39    2
    39    14    40    2
    40     9    41    1
    41    41    42    2
    42    42     6    1
    43    40    10    1
    44    22    17    1
    45    34    28    1
    46    39    35    1
@<TRIPOS>SUBSTRUCTURE
     1 RES1        1 GROUP             0 ****  ****    0  
@<TRIPOS>MOLECULE
ligand_33
    42    46     1     0     0
SMALL
NO_CHARGES
****
Generated from the CSD

@<TRIPOS>ATOM
     1 C1       4.3882  20.5486 -32.9024   C.3       1 RES1   0.0000
     2 O2       3.5992  21.1234 -31.7914   O.3       1 RES1   0.0000
     3 C3       2.4580  20.4881 -31.4990   C.2       1 RES1   0.0000
     4 O4       2.0433  19.4963 -32.0747   O.2       1 RES1   0.0000
     5 N5       1.8331  21.1414 -30.4842   N.am      1 RES1   0.0000
     6 C6       0.5878  20.8025 -29.9018   C.2       1 RES1   0.0000
     7 C7      -0.2223  19.7222 -30.2813   C.2       1 RES1   0.0000
     8 C8      -1.4132  19.4722 -29.6156   C.2       1 RES1   0.0000
     9 C9      -1.8197  20.2546 -28.5264   C.2       1 RES1   0.0000
    10 C10     -3.0544  19.9347 -27.7552   C.2       1 RES1   0.0000
    11 C11     -3.4833  20.7164 -26.6759   C.2       1 RES1   0.0000
    12 C12     -4.6163  20.3341 -25.9826   C.2       1 RES1   0.0000
    13 N13     -5.3605  19.2636 -26.3039   N.2       1 RES1   0.0000
    14 C14     -4.9454  18.5213 -27.3430   C.2       1 RES1   0.0000
    15 C15     -5.8069  17.3583 -27.7152   C.3       1 RES1   0.0000
    16 C16     -7.0749  17.8125 -28.4474   C.3       1 RES1   0.0000
    17 C17     -7.8917  16.7024 -29.0854   C.2       1 RES1   0.0000
    18 C18     -7.6248  16.3141 -30.4169   C.2       1 RES1   0.0000
    19 C19     -8.3719  15.2979 -31.0310   C.2       1 RES1   0.0000
    20 C20     -9.3835  14.6400 -30.3095   C.2       1 RES1   0.0000
    21 C21     -9.6411  15.0056 -28.9997   C.2       1 RES1   0.0000
    22 C22     -8.9216  16.0391 -28.3971   C.2       1 RES1   0.0000
    23 N23     -6.1340  16.4922 -26.5836   N.am      1 RES1   0.0000
    24 C24     -5.1962  15.5446 -26.1852   C.2       1 RES1   0.0000
    25 O25     -4.0992  15.4108 -26.7541   O.2       1 RES1   0.0000
    26 C26     -5.4780  14.7936 -24.9658   C.2       1 RES1   0.0000
    27 C27     -4.6868  13.9509 -24.3566   C.2       1 RES1   0.0000
    28 C28     -5.0521  13.2413 -23.1335   C.2       1 RES1   0.0000
    29 C29     -6.3968  12.8753 -22.9709   C.2       1 RES1   0.0000
    30 C30     -6.7898  12.1763 -21.8517   C.2       1 RES1   0.0000
    31 Cl31    -8.4687  11.7733 -21.6486   Cl        1 RES1   0.0000
    32 C32     -5.8917  11.8042 -20.8783   C.2       1 RES1   0.0000
    33 C33     -4.5571  12.1539 -21.0193   C.2       1 RES1   0.0000
    34 C34     -4.1280  12.8808 -22.1369   C.2       1 RES1   0.0000
    35 N35     -2.7589  13.3055 -22.2109   N.pl3     1 RES1   0.0000
    36 C36     -1.8802  13.3177 -23.2172   C.2       1 RES1   0.0000
    37 N37     -0.7333  13.7784 -22.7980   N.2       1 RES1   0.0000
    38 N38     -0.9135  14.0600 -21.4851   N.2       1 RES1   0.0000
    39 N39     -2.1290  13.7914 -21.1108   N.2       1 RES1   0.0000
    40 C40     -3.8216  18.8100 -28.0654   C.2       1 RES1   0.0000
    41 C41     -0.9989  21.3305 -28.1612   C.2       1 RES1   0.0000
    42 C42      0.1714  21.6173 -28.8458   C.2       1 RES1   0.0000
@<TRIPOS>BOND
     1     1     2    1
     2     2     3    1
     3     3     4    2
     4     3     5   am
     5     5     6    1
     6     6     7    2
     7     7     8    1
     8     8     9    2
     9     9    10    1
    10    10    11    2
    11    11    12    1
    12    12    13    2
    13    13    14    1
    14    14    15    1
    15    15    16    1
    16    16    17    1
    17    17    18    2
    18    18    19    1
    19    19    20    2
    20    20    21    1
    21    21    22    2
    22    15    23    1
    23    23    24   am
    24    24    25    2
    25    24    26    1
    26    26    27    2
    27    27    28    1
    28    28    29    2
    29    29    30    1
    30    30    31    1
    31    30    32    2
    32    32    33    1
    33    33    34    2
    34    34    35    1
    35    35    36    1
    36    36    37    2
    37    37    38    1
    38    38    39    2
    39    14    40    2
    40     9    41    1
    41    41    42    2
    42    42     6    1
    43    40    10    1
    44    22    17    1
    45    34    28    1
    46    39    35    1
@<TRIPOS>SUBSTRUCTURE
     1 RES1        1 GROUP             0 ****  ****    0  
@<TRIPOS>MOLECULE
ligand_34
    42    46     1     0     0
SMALL
NO_CHARGES
****
Generated from the CSD

@<TRIPOS>ATOM
     1 C1       4.3479  23.1679 -31.8802   C.3       1 RES1   0.0000
     2 O2       3.3062  22.1186 -31.8477   O.3       1 RES1   0.0000
     3 C3       2.4045  22.2245 -30.8642   C.2       1 RES1   0.0000
     4 O4       2.3907  23.1054 -30.0210   O.2       1 RES1   0.0000
     5 N5       1.5343  21.1837 -30.9450   N.am      1 RES1   0.0000
     6 C6       0.4507  20.9190 -30.0728   C.2       1 RES1   0.0000
     7 C7       0.0900  21.6960 -28.9622   C.2       1 RES1   0.0000
     8 C8      -1.0130  21.3515 -28.1951   C.2       1 RES1   0.0000
     9 C9      -1.8197  20.2546 -28.5264   C.2       1 RES1   0.0000
    10 C10     -3.0544  19.9347 -27.7552   C.2       1 RES1   0.0000
    11 C11     -3.4833  20.7164 -26.6759   C.2       1 RES1   0.0000
    12 C12     -4.6163  20.3341 -25.9826   C.2       1 RES1   0.0000
    13 N13     -5.3605  19.2636 -26.3039   N.2       1 RES1   0.0000
    14 C14     -4.9454  18.5213 -27.3430   C.2       1 RES1   0.0000
    15 C15     -5.8069  17.3583 -27.7152   C.3       1 RES1   0.0000
    16 C16     -7.0749  17.8125 -28.4474   C.3       1 RES1   0.0000
    17 C17     -7.8917  16.7024 -29.0854   C.2       1 RES1   0.0000
    18 C18     -7.6248  16.3141 -30.4169   C.2       1 RES1   0.0000
    19 C19     -8.3719  15.2979 -31.0310   C.2       1 RES1   0.0000
    20 C20     -9.3835  14.6400 -30.3095   C.2       1 RES1   0.0000
    21 C21     -9.6411  15.0056 -28.9997   C.2       1 RES1   0.0000
    22 C22     -8.9216  16.0391 -28.3971   C.2       1 RES1   0.0000
    23 N23     -6.1340  16.4922 -26.5836   N.am      1 RES1   0.0000
    24 C24     -5.1962  15.5446 -26.1852   C.2       1 RES1   0.0000
    25 O25     -4.0992  15.4108 -26.7541   O.2       1 RES1   0.0000
    26 C26     -5.4780  14.7936 -24.9658   C.2       1 RES1   0.0000
    27 C27     -4.6868  13.9509 -24.3566   C.2       1 RES1   0.0000
    28 C28     -5.0521  13.2413 -23.1335   C.2       1 RES1   0.0000
    29 C29     -6.3968  12.8753 -22.9709   C.2       1 RES1   0.0000
    30 C30     -6.7898  12.1764 -21.8517   C.2       1 RES1   0.0000
    31 Cl31    -8.4687  11.7734 -21.6486   Cl        1 RES1   0.0000
    32 C32     -5.8917  11.8042 -20.8783   C.2       1 RES1   0.0000
    33 C33     -4.5571  12.1538 -21.0193   C.2       1 RES1   0.0000
    34 C34     -4.1280  12.8808 -22.1369   C.2       1 RES1   0.0000
    35 N35     -2.7589  13.3055 -22.2110   N.pl3     1 RES1   0.0000
    36 C36     -1.8802  13.3176 -23.2172   C.2       1 RES1   0.0000
    37 N37     -0.7333  13.7783 -22.7980   N.2       1 RES1   0.0000
    38 N38     -0.9135  14.0600 -21.4851   N.2       1 RES1   0.0000
    39 N39     -2.1290  13.7914 -21.1109   N.2       1 RES1   0.0000
    40 C40     -3.8216  18.8100 -28.0654   C.2       1 RES1   0.0000
    41 C41     -1.4444  19.4887 -29.6386   C.2       1 RES1   0.0000
    42 C42     -0.3197  19.7967 -30.3875   C.2       1 RES1   0.0000
@<TRIPOS>BOND
     1     1     2    1
     2     2     3    1
     3     3     4    2
     4     3     5   am
     5     5     6    1
     6     6     7    2
     7     7     8    1
     8     8     9    2
     9     9    10    1
    10    10    11    2
    11    11    12    1
    12    12    13    2
    13    13    14    1
    14    14    15    1
    15    15    16    1
    16    16    17    1
    17    17    18    2
    18    18    19    1
    19    19    20    2
    20    20    21    1
    21    21    22    2
    22    15    23    1
    23    23    24   am
    24    24    25    2
    25    24    26    1
    26    26    27    2
    27    27    28    1
    28    28    29    2
    29    29    30    1
    30    30    31    1
    31    30    32    2
    32    32    33    1
    33    33    34    2
    34    34    35    1
    35    35    36    1
    36    36    37    2
    37    37    38    1
    38    38    39    2
    39    14    40    2
    40     9    41    1
    41    41    42    2
    42    42     6    1
    43    40    10    1
    44    22    17    1
    45    34    28    1
    46    39    35    1
@<TRIPOS>SUBSTRUCTURE
     1 RES1        1 GROUP             0 ****  ****    0  
@<TRIPOS>MOLECULE
ligand_35
    42    46     1     0     0
SMALL
NO_CHARGES
****
Generated from the CSD

@<TRIPOS>ATOM
     1 C1      -2.9223   2.6289 -28.1585   C.3       1 RES1   0.0000
     2 O2      -3.5623   3.0367 -26.8891   O.3       1 RES1   0.0000
     3 C3      -2.7275   3.3271 -25.8840   C.2       1 RES1   0.0000
     4 O4      -1.5108   3.2773 -25.9498   O.2       1 RES1   0.0000
     5 N5      -3.4542   3.6558 -24.7835   N.am      1 RES1   0.0000
     6 C6      -2.9459   4.0009 -23.5079   C.2       1 RES1   0.0000
     7 C7      -1.5883   4.0601 -23.1602   C.2       1 RES1   0.0000
     8 C8      -1.2089   4.4396 -21.8813   C.2       1 RES1   0.0000
     9 C9      -2.1561   4.8148 -20.9191   C.2       1 RES1   0.0000
    10 C10     -1.7464   5.3062 -19.5729   C.2       1 RES1   0.0000
    11 C11     -0.5868   4.8512 -18.9339   C.2       1 RES1   0.0000
    12 C12     -0.2929   5.3223 -17.6681   C.2       1 RES1   0.0000
    13 N13     -1.0426   6.2263 -17.0170   N.2       1 RES1   0.0000
    14 C14     -2.1507   6.6614 -17.6381   C.2       1 RES1   0.0000
    15 C15     -2.9515   7.6986 -16.9197   C.3       1 RES1   0.0000
    16 C16     -3.7768   7.0818 -15.7845   C.3       1 RES1   0.0000
    17 C17     -4.4292   8.0753 -14.8392   C.2       1 RES1   0.0000
    18 C18     -3.7316   8.5099 -13.6906   C.2       1 RES1   0.0000
    19 C19     -4.3168   9.4200 -12.7976   C.2       1 RES1   0.0000
    20 C20     -5.6030   9.9253 -13.0567   C.2       1 RES1   0.0000
    21 C21     -6.2869   9.5146 -14.1878   C.2       1 RES1   0.0000
    22 C22     -5.7203   8.5839 -15.0604   C.2       1 RES1   0.0000
    23 N23     -3.7930   8.5001 -17.8069   N.am      1 RES1   0.0000
    24 C24     -3.2086   9.5636 -18.4878   C.2       1 RES1   0.0000
    25 O25     -2.0056   9.8526 -18.3682   O.2       1 RES1   0.0000
    26 C26     -4.0266  10.2565 -19.4782   C.2       1 RES1   0.0000
    27 C27     -3.6426  11.1938 -20.3036   C.2       1 RES1   0.0000
    28 C28     -4.5332  11.8342 -21.2679   C.2       1 RES1   0.0000
    29 C29     -5.8751  11.4250 -21.2853   C.2       1 RES1   0.0000
    30 C30     -6.7649  12.0185 -22.1522   C.2       1 RES1   0.0000
    31 Cl31    -8.4122  11.4641 -22.1892   Cl        1 RES1   0.0000
    32 C32     -6.3809  13.0272 -23.0052   C.2       1 RES1   0.0000
    33 C33     -5.0597  13.4489 -23.0036   C.2       1 RES1   0.0000
    34 C34     -4.1255  12.8530 -22.1471   C.2       1 RES1   0.0000
    35 N35     -2.7482  13.2479 -22.2317   N.pl3     1 RES1   0.0000
    36 C36     -1.9062  13.3380 -23.2650   C.2       1 RES1   0.0000
    37 N37     -0.7320  13.7252 -22.8470   N.2       1 RES1   0.0000
    38 N38     -0.8566  13.8790 -21.5067   N.2       1 RES1   0.0000
    39 N39     -2.0652  13.6055 -21.1142   N.2       1 RES1   0.0000
    40 C40     -2.5318   6.2273 -18.8769   C.2       1 RES1   0.0000
    41 C41     -3.5081   4.7490 -21.2830   C.2       1 RES1   0.0000
    42 C42     -3.9022   4.3296 -22.5437   C.2       1 RES1   0.0000
@<TRIPOS>BOND
     1     1     2    1
     2     2     3    1
     3     3     4    2
     4     3     5   am
     5     5     6    1
     6     6     7    2
     7     7     8    1
     8     8     9    2
     9     9    10    1
    10    10    11    2
    11    11    12    1
    12    12    13    2
    13    13    14    1
    14    14    15    1
    15    15    16    1
    16    16    17    1
    17    17    18    2
    18    18    19    1
    19    19    20    2
    20    20    21    1
    21    21    22    2
    22    15    23    1
    23    23    24   am
    24    24    25    2
    25    24    26    1
    26    26    27    2
    27    27    28    1
    28    28    29    2
    29    29    30    1
    30    30    31    1
    31    30    32    2
    32    32    33    1
    33    33    34    2
    34    34    35    1
    35    35    36    1
    36    36    37    2
    37    37    38    1
    38    38    39    2
    39    14    40    2
    40     9    41    1
    41    41    42    2
    42    42     6    1
    43    40    10    1
    44    22    17    1
    45    34    28    1
    46    39    35    1
@<TRIPOS>SUBSTRUCTURE
     1 RES1        1 GROUP             0 ****  ****    0  
@<TRIPOS>MOLECULE
ligand_36
    42    46     1     0     0
SMALL
NO_CHARGES
****
Generated from the CSD

@<TRIPOS>ATOM
     1 C1      -5.4967   2.0745 -27.1726   C.3       1 RES1   0.0000
     2 O2      -4.2492   2.3954 -26.4460   O.3       1 RES1   0.0000
     3 C3      -4.4061   2.9182 -25.2238   C.2       1 RES1   0.0000
     4 O4      -5.4806   3.1385 -24.6909   O.2       1 RES1   0.0000
     5 N5      -3.1832   3.1847 -24.6940   N.am      1 RES1   0.0000
     6 C6      -2.9186   3.7666 -23.4306   C.2       1 RES1   0.0000
     7 C7      -3.8877   4.1734 -22.5018   C.2       1 RES1   0.0000
     8 C8      -3.5060   4.7070 -21.2797   C.2       1 RES1   0.0000
     9 C9      -2.1561   4.8148 -20.9191   C.2       1 RES1   0.0000
    10 C10     -1.7464   5.3062 -19.5729   C.2       1 RES1   0.0000
    11 C11     -0.5868   4.8512 -18.9339   C.2       1 RES1   0.0000
    12 C12     -0.2929   5.3223 -17.6681   C.2       1 RES1   0.0000
    13 N13     -1.0426   6.2263 -17.0170   N.2       1 RES1   0.0000
    14 C14     -2.1507   6.6614 -17.6381   C.2       1 RES1   0.0000
    15 C15     -2.9515   7.6986 -16.9197   C.3       1 RES1   0.0000
    16 C16     -3.7768   7.0818 -15.7845   C.3       1 RES1   0.0000
    17 C17     -4.4292   8.0753 -14.8392   C.2       1 RES1   0.0000
    18 C18     -3.7316   8.5099 -13.6906   C.2       1 RES1   0.0000
    19 C19     -4.3168   9.4200 -12.7976   C.2       1 RES1   0.0000
    20 C20     -5.6030   9.9253 -13.0567   C.2       1 RES1   0.0000
    21 C21     -6.2869   9.5146 -14.1878   C.2       1 RES1   0.0000
    22 C22     -5.7203   8.5839 -15.0604   C.2       1 RES1   0.0000
    23 N23     -3.7930   8.5001 -17.8069   N.am      1 RES1   0.0000
    24 C24     -3.2086   9.5636 -18.4878   C.2       1 RES1   0.0000
    25 O25     -2.0056   9.8526 -18.3682   O.2       1 RES1   0.0000
    26 C26     -4.0266  10.2565 -19.4782   C.2       1 RES1   0.0000
    27 C27     -3.6426  11.1938 -20.3036   C.2       1 RES1   0.0000
    28 C28     -4.5332  11.8342 -21.2679   C.2       1 RES1   0.0000
    29 C29     -5.8751  11.4250 -21.2853   C.2       1 RES1   0.0000
    30 C30     -6.7649  12.0185 -22.1522   C.2       1 RES1   0.0000
    31 Cl31    -8.4122  11.4641 -22.1892   Cl        1 RES1   0.0000
    32 C32     -6.3809  13.0272 -23.0052   C.2       1 RES1   0.0000
    33 C33     -5.0597  13.4489 -23.0036   C.2       1 RES1   0.0000
    34 C34     -4.1255  12.8530 -22.1471   C.2       1 RES1   0.0000
    35 N35     -2.7482  13.2479 -22.2317   N.pl3     1 RES1   0.0000
    36 C36     -1.9062  13.3380 -23.2650   C.2       1 RES1   0.0000
    37 N37     -0.7320  13.7252 -22.8470   N.2       1 RES1   0.0000
    38 N38     -0.8566  13.8790 -21.5067   N.2       1 RES1   0.0000
    39 N39     -2.0652  13.6055 -21.1142   N.2       1 RES1   0.0000
    40 C40     -2.5318   6.2273 -18.8769   C.2       1 RES1   0.0000
    41 C41     -1.2011   4.4044 -21.8593   C.2       1 RES1   0.0000
    42 C42     -1.5685   3.9103 -23.1009   C.2       1 RES1   0.0000
@<TRIPOS>BOND
     1     1     2    1
     2     2     3    1
     3     3     4    2
     4     3     5   am
     5     5     6    1
     6     6     7    2
     7     7     8    1
     8     8     9    2
     9     9    10    1
    10    10    11    2
    11    11    12    1
    12    12    13    2
    13    13    14    1
    14    14    15    1
    15    15    16    1
    16    16    17    1
    17    17    18    2
    18    18    19    1
    19    19    20    2
    20    20    21    1
    21    21    22    2
    22    15    23    1
    23    23    24   am
    24    24    25    2
    25    24    26    1
    26    26    27    2
    27    27    28    1
    28    28    29    2
    29    29    30    1
    30    30    31    1
    31    30    32    2
    32    32    33    1
    33    33    34    2
    34    34    35    1
    35    35    36    1
    36    36    37    2
    37    37    38    1
    38    38    39    2
    39    14    40    2
    40     9    41    1
    41    41    42    2
    42    42     6    1
    43    40    10    1
    44    22    17    1
    45    34    28    1
    46    39    35    1
@<TRIPOS>SUBSTRUCTURE
     1 RES1        1 GROUP             0 ****  ****    0  
@<TRIPOS>MOLECULE
ligand_37
    42    46     1     0     0
SMALL
NO_CHARGES
****
Generated from the CSD

@<TRIPOS>ATOM
     1 C1       0.5127  26.2887 -11.6132   C.3       1 RES1   0.0000
     2 O2       0.1518  24.8701 -11.4016   O.3       1 RES1   0.0000
     3 C3      -0.6501  24.3297 -12.3271   C.2       1 RES1   0.0000
     4 O4      -1.0867  24.9175 -13.3023   O.2       1 RES1   0.0000
     5 N5      -0.9154  23.0408 -11.9875   N.am      1 RES1   0.0000
     6 C6      -1.7446  22.1351 -12.6924   C.2       1 RES1   0.0000
     7 C7      -2.4432  22.4210 -13.8746   C.2       1 RES1   0.0000
     8 C8      -3.2051  21.4403 -14.4923   C.2       1 RES1   0.0000
     9 C9      -3.2656  20.1349 -13.9861   C.2       1 RES1   0.0000
    10 C10     -4.0126  19.0580 -14.6959   C.2       1 RES1   0.0000
    11 C11     -4.0976  17.7538 -14.1941   C.2       1 RES1   0.0000
    12 C12     -4.7738  16.7981 -14.9287   C.2       1 RES1   0.0000
    13 N13     -5.3910  17.0529 -16.0938   N.2       1 RES1   0.0000
    14 C14     -5.3090  18.3070 -16.5664   C.2       1 RES1   0.0000
    15 C15     -6.0365  18.5856 -17.8417   C.3       1 RES1   0.0000
    16 C16     -7.3173  19.3902 -17.5914   C.3       1 RES1   0.0000
    17 C17     -7.9964  19.9372 -18.8347   C.2       1 RES1   0.0000
    18 C18     -7.6457  21.2173 -19.3176   C.2       1 RES1   0.0000
    19 C19     -8.2657  21.7480 -20.4587   C.2       1 RES1   0.0000
    20 C20     -9.2311  20.9914 -21.1459   C.2       1 RES1   0.0000
    21 C21     -9.5696  19.7304 -20.6866   C.2       1 RES1   0.0000
    22 C22     -8.9782  19.2136 -19.5324   C.2       1 RES1   0.0000
    23 N23     -6.3148  17.3835 -18.6260   N.am      1 RES1   0.0000
    24 C24     -5.3016  16.8711 -19.4303   C.2       1 RES1   0.0000
    25 O25     -4.1775  17.3965 -19.5038   O.2       1 RES1   0.0000
    26 C26     -5.5493  15.5918 -20.0878   C.2       1 RES1   0.0000
    27 C27     -4.6997  14.8836 -20.7834   C.2       1 RES1   0.0000
    28 C28     -5.0347  13.6067 -21.4081   C.2       1 RES1   0.0000
    29 C29     -6.3574  13.1532 -21.2921   C.2       1 RES1   0.0000
    30 C30     -6.7353  11.9717 -21.8895   C.2       1 RES1   0.0000
    31 Cl31    -8.3673  11.4057 -21.6943   Cl        1 RES1   0.0000
    32 C32     -5.8498  11.2155 -22.6220   C.2       1 RES1   0.0000
    33 C33     -4.5377  11.6457 -22.7514   C.2       1 RES1   0.0000
    34 C34     -4.1166  12.8335 -22.1406   C.2       1 RES1   0.0000
    35 N35     -2.7327  13.2063 -22.2167   N.pl3     1 RES1   0.0000
    36 C36     -1.8983  13.3380 -23.2517   C.2       1 RES1   0.0000
    37 N37     -0.7130  13.6787 -22.8244   N.2       1 RES1   0.0000
    38 N38     -0.8227  13.7596 -21.4764   N.2       1 RES1   0.0000
    39 N39     -2.0329  13.4876 -21.0878   N.2       1 RES1   0.0000
    40 C40     -4.6368  19.3063 -15.9200   C.2       1 RES1   0.0000
    41 C41     -2.5623  19.8669 -12.8037   C.2       1 RES1   0.0000
    42 C42     -1.8328  20.8493 -12.1530   C.2       1 RES1   0.0000
@<TRIPOS>BOND
     1     1     2    1
     2     2     3    1
     3     3     4    2
     4     3     5   am
     5     5     6    1
     6     6     7    2
     7     7     8    1
     8     8     9    2
     9     9    10    1
    10    10    11    2
    11    11    12    1
    12    12    13    2
    13    13    14    1
    14    14    15    1
    15    15    16    1
    16    16    17    1
    17    17    18    2
    18    18    19    1
    19    19    20    2
    20    20    21    1
    21    21    22    2
    22    15    23    1
    23    23    24   am
    24    24    25    2
    25    24    26    1
    26    26    27    2
    27    27    28    1
    28    28    29    2
    29    29    30    1
    30    30    31    1
    31    30    32    2
    32    32    33    1
    33    33    34    2
    34    34    35    1
    35    35    36    1
    36    36    37    2
    37    37    38    1
    38    38    39    2
    39    14    40    2
    40     9    41    1
    41    41    42    2
    42    42     6    1
    43    40    10    1
    44    22    17    1
    45    34    28    1
    46    39    35    1
@<TRIPOS>SUBSTRUCTURE
     1 RES1        1 GROUP             0 ****  ****    0  
@<TRIPOS>MOLECULE
ligand_38
    42    46     1     0     0
SMALL
NO_CHARGES
****
Generated from the CSD

@<TRIPOS>ATOM
     1 C1       0.4436  24.7751  -9.2442   C.3       1 RES1   0.0000
     2 O2      -0.3031  24.5968 -10.5083   O.3       1 RES1   0.0000
     3 C3      -0.7372  23.3554 -10.7573   C.2       1 RES1   0.0000
     4 O4      -0.5600  22.3940 -10.0283   O.2       1 RES1   0.0000
     5 N5      -1.3765  23.3403 -11.9565   N.am      1 RES1   0.0000
     6 C6      -1.9564  22.2148 -12.5904   C.2       1 RES1   0.0000
     7 C7      -1.9662  20.9078 -12.0812   C.2       1 RES1   0.0000
     8 C8      -2.5922  19.8879 -12.7822   C.2       1 RES1   0.0000
     9 C9      -3.2656  20.1349 -13.9861   C.2       1 RES1   0.0000
    10 C10     -4.0126  19.0580 -14.6959   C.2       1 RES1   0.0000
    11 C11     -4.0976  17.7538 -14.1941   C.2       1 RES1   0.0000
    12 C12     -4.7738  16.7981 -14.9287   C.2       1 RES1   0.0000
    13 N13     -5.3910  17.0529 -16.0938   N.2       1 RES1   0.0000
    14 C14     -5.3090  18.3070 -16.5664   C.2       1 RES1   0.0000
    15 C15     -6.0365  18.5856 -17.8417   C.3       1 RES1   0.0000
    16 C16     -7.3173  19.3902 -17.5914   C.3       1 RES1   0.0000
    17 C17     -7.9964  19.9372 -18.8347   C.2       1 RES1   0.0000
    18 C18     -7.6457  21.2173 -19.3176   C.2       1 RES1   0.0000
    19 C19     -8.2657  21.7480 -20.4587   C.2       1 RES1   0.0000
    20 C20     -9.2311  20.9914 -21.1459   C.2       1 RES1   0.0000
    21 C21     -9.5696  19.7304 -20.6866   C.2       1 RES1   0.0000
    22 C22     -8.9782  19.2136 -19.5324   C.2       1 RES1   0.0000
    23 N23     -6.3148  17.3835 -18.6260   N.am      1 RES1   0.0000
    24 C24     -5.3016  16.8711 -19.4303   C.2       1 RES1   0.0000
    25 O25     -4.1775  17.3965 -19.5038   O.2       1 RES1   0.0000
    26 C26     -5.5493  15.5918 -20.0878   C.2       1 RES1   0.0000
    27 C27     -4.6997  14.8836 -20.7834   C.2       1 RES1   0.0000
    28 C28     -5.0347  13.6067 -21.4081   C.2       1 RES1   0.0000
    29 C29     -6.3574  13.1532 -21.2921   C.2       1 RES1   0.0000
    30 C30     -6.7353  11.9717 -21.8895   C.2       1 RES1   0.0000
    31 Cl31    -8.3674  11.4058 -21.6943   Cl        1 RES1   0.0000
    32 C32     -5.8498  11.2155 -22.6220   C.2       1 RES1   0.0000
    33 C33     -4.5377  11.6457 -22.7514   C.2       1 RES1   0.0000
    34 C34     -4.1166  12.8335 -22.1406   C.2       1 RES1   0.0000
    35 N35     -2.7326  13.2063 -22.2167   N.pl3     1 RES1   0.0000
    36 C36     -1.8982  13.3380 -23.2516   C.2       1 RES1   0.0000
    37 N37     -0.7130  13.6787 -22.8243   N.2       1 RES1   0.0000
    38 N38     -0.8227  13.7596 -21.4764   N.2       1 RES1   0.0000
    39 N39     -2.0329  13.4876 -21.0877   N.2       1 RES1   0.0000
    40 C40     -4.6368  19.3063 -15.9200   C.2       1 RES1   0.0000
    41 C41     -3.2451  21.4461 -14.4809   C.2       1 RES1   0.0000
    42 C42     -2.5861  22.4655 -13.8122   C.2       1 RES1   0.0000
@<TRIPOS>BOND
     1     1     2    1
     2     2     3    1
     3     3     4    2
     4     3     5   am
     5     5     6    1
     6     6     7    2
     7     7     8    1
     8     8     9    2
     9     9    10    1
    10    10    11    2
    11    11    12    1
    12    12    13    2
    13    13    14    1
    14    14    15    1
    15    15    16    1
    16    16    17    1
    17    17    18    2
    18    18    19    1
    19    19    20    2
    20    20    21    1
    21    21    22    2
    22    15    23    1
    23    23    24   am
    24    24    25    2
    25    24    26    1
    26    26    27    2
    27    27    28    1
    28    28    29    2
    29    29    30    1
    30    30    31    1
    31    30    32    2
    32    32    33    1
    33    33    34    2
    34    34    35    1
    35    35    36    1
    36    36    37    2
    37    37    38    1
    38    38    39    2
    39    14    40    2
    40     9    41    1
    41    41    42    2
    42    42     6    1
    43    40    10    1
    44    22    17    1
    45    34    28    1
    46    39    35    1
@<TRIPOS>SUBSTRUCTURE
     1 RES1        1 GROUP             0 ****  ****    0  
@<TRIPOS>MOLECULE
ligand_39
    42    46     1     0     0
SMALL
NO_CHARGES
****
Generated from the CSD

@<TRIPOS>ATOM
     1 C1      -7.3918   2.3753 -26.5544   C.3       1 RES1   0.0000
     2 O2      -6.5380   1.9321 -25.4311   O.3       1 RES1   0.0000
     3 C3      -6.0771   2.9025 -24.6327   C.2       1 RES1   0.0000
     4 O4      -6.3113   4.0913 -24.7714   O.2       1 RES1   0.0000
     5 N5      -5.2919   2.3510 -23.6703   N.am      1 RES1   0.0000
     6 C6      -4.5964   3.0422 -22.6489   C.2       1 RES1   0.0000
     7 C7      -4.5992   4.4317 -22.4577   C.2       1 RES1   0.0000
     8 C8      -3.8994   4.9945 -21.4007   C.2       1 RES1   0.0000
     9 C9      -3.2112   4.1996 -20.4742   C.2       1 RES1   0.0000
    10 C10     -2.5319   4.7959 -19.2890   C.2       1 RES1   0.0000
    11 C11     -1.3670   4.2450 -18.7415   C.2       1 RES1   0.0000
    12 C12     -0.8163   4.8298 -17.6167   C.2       1 RES1   0.0000
    13 N13     -1.3165   5.9277 -17.0270   N.2       1 RES1   0.0000
    14 C14     -2.4312   6.4528 -17.5605   C.2       1 RES1   0.0000
    15 C15     -2.9515   7.6986 -16.9197   C.3       1 RES1   0.0000
    16 C16     -3.6737   7.3912 -15.6028   C.3       1 RES1   0.0000
    17 C17     -4.0205   8.6006 -14.7523   C.2       1 RES1   0.0000
    18 C18     -3.0985   9.0659 -13.7888   C.2       1 RES1   0.0000
    19 C19     -3.3999  10.1753 -12.9848   C.2       1 RES1   0.0000
    20 C20     -4.6228  10.8488 -13.1521   C.2       1 RES1   0.0000
    21 C21     -5.5251  10.4070 -14.1041   C.2       1 RES1   0.0000
    22 C22     -5.2417   9.2833 -14.8825   C.2       1 RES1   0.0000
    23 N23     -3.7930   8.5001 -17.8069   N.am      1 RES1   0.0000
    24 C24     -3.2038   9.5499 -18.5047   C.2       1 RES1   0.0000
    25 O25     -1.9948   9.8212 -18.4068   O.2       1 RES1   0.0000
    26 C26     -4.0274  10.2486 -19.4864   C.2       1 RES1   0.0000
    27 C27     -3.6428  11.1743 -20.3246   C.2       1 RES1   0.0000
    28 C28     -4.5394  11.8217 -21.2785   C.2       1 RES1   0.0000
    29 C29     -5.8874  11.4327 -21.2714   C.2       1 RES1   0.0000
    30 C30     -6.7823  12.0339 -22.1277   C.2       1 RES1   0.0000
    31 Cl31    -8.4380  11.5043 -22.1342   Cl        1 RES1   0.0000
    32 C32     -6.3972  13.0311 -22.9937   C.2       1 RES1   0.0000
    33 C33     -5.0700  13.4328 -23.0164   C.2       1 RES1   0.0000
    34 C34     -4.1309  12.8284 -22.1712   C.2       1 RES1   0.0000
    35 N35     -2.7494  13.2019 -22.2809   N.pl3     1 RES1   0.0000
    36 C36     -1.9231  13.2724 -23.3283   C.2       1 RES1   0.0000
    37 N37     -0.7365  13.6446 -22.9321   N.2       1 RES1   0.0000
    38 N38     -0.8370  13.8092 -21.5911   N.2       1 RES1   0.0000
    39 N39     -2.0430  13.5566 -21.1771   N.2       1 RES1   0.0000
    40 C40     -3.0576   5.9226 -18.6535   C.2       1 RES1   0.0000
    41 C41     -3.2181   2.8133 -20.6807   C.2       1 RES1   0.0000
    42 C42     -3.8771   2.2419 -21.7577   C.2       1 RES1   0.0000
@<TRIPOS>BOND
     1     1     2    1
     2     2     3    1
     3     3     4    2
     4     3     5   am
     5     5     6    1
     6     6     7    2
     7     7     8    1
     8     8     9    2
     9     9    10    1
    10    10    11    2
    11    11    12    1
    12    12    13    2
    13    13    14    1
    14    14    15    1
    15    15    16    1
    16    16    17    1
    17    17    18    2
    18    18    19    1
    19    19    20    2
    20    20    21    1
    21    21    22    2
    22    15    23    1
    23    23    24   am
    24    24    25    2
    25    24    26    1
    26    26    27    2
    27    27    28    1
    28    28    29    2
    29    29    30    1
    30    30    31    1
    31    30    32    2
    32    32    33    1
    33    33    34    2
    34    34    35    1
    35    35    36    1
    36    36    37    2
    37    37    38    1
    38    38    39    2
    39    14    40    2
    40     9    41    1
    41    41    42    2
    42    42     6    1
    43    40    10    1
    44    22    17    1
    45    34    28    1
    46    39    35    1
@<TRIPOS>SUBSTRUCTURE
     1 RES1        1 GROUP             0 ****  ****    0  
@<TRIPOS>MOLECULE
ligand_40
    42    46     1     0     0
SMALL
NO_CHARGES
****
Generated from the CSD

@<TRIPOS>ATOM
     1 C1      -8.1996  10.4154  -8.9284   C.3       1 RES1   0.0000
     2 O2      -7.8458  10.6518 -10.3448   O.3       1 RES1   0.0000
     3 C3      -7.4111  11.8833 -10.6379   C.2       1 RES1   0.0000
     4 O4      -7.2932  12.7924  -9.8337   O.2       1 RES1   0.0000
     5 N5      -7.1528  11.9581 -11.9701   N.am      1 RES1   0.0000
     6 C6      -6.7006  13.0965 -12.6802   C.2       1 RES1   0.0000
     7 C7      -6.4398  13.1474 -14.0575   C.2       1 RES1   0.0000
     8 C8      -6.0260  14.3320 -14.6485   C.2       1 RES1   0.0000
     9 C9      -5.8992  15.5137 -13.9060   C.2       1 RES1   0.0000
    10 C10     -5.5394  16.8065 -14.5549   C.2       1 RES1   0.0000
    11 C11     -4.7926  17.7898 -13.8951   C.2       1 RES1   0.0000
    12 C12     -4.5323  18.9806 -14.5468   C.2       1 RES1   0.0000
    13 N13     -4.9281  19.2446 -15.8026   N.2       1 RES1   0.0000
    14 C14     -5.6400  18.2949 -16.4305   C.2       1 RES1   0.0000
    15 C15     -6.0365  18.5856 -17.8417   C.3       1 RES1   0.0000
    16 C16     -7.2116  19.5683 -17.9020   C.3       1 RES1   0.0000
    17 C17     -7.5293  20.1201 -19.2808   C.2       1 RES1   0.0000
    18 C18     -6.9045  21.3082 -19.7199   C.2       1 RES1   0.0000
    19 C19     -7.1888  21.8425 -20.9856   C.2       1 RES1   0.0000
    20 C20     -8.0877  21.1789 -21.8390   C.2       1 RES1   0.0000
    21 C21     -8.6930  20.0065 -21.4209   C.2       1 RES1   0.0000
    22 C22     -8.4372  19.4907 -20.1491   C.2       1 RES1   0.0000
    23 N23     -6.3148  17.3835 -18.6260   N.am      1 RES1   0.0000
    24 C24     -5.2947  16.8584 -19.4133   C.2       1 RES1   0.0000
    25 O25     -4.1619  17.3674 -19.4648   O.2       1 RES1   0.0000
    26 C26     -5.5491  15.5846 -20.0789   C.2       1 RES1   0.0000
    27 C27     -4.6974  14.8658 -20.7609   C.2       1 RES1   0.0000
    28 C28     -5.0398  13.5957 -21.3953   C.2       1 RES1   0.0000
    29 C29     -6.3707  13.1610 -21.3042   C.2       1 RES1   0.0000
    30 C30     -6.7549  11.9868 -21.9118   C.2       1 RES1   0.0000
    31 Cl31    -8.3982  11.4440 -21.7472   Cl        1 RES1   0.0000
    32 C32     -5.8676  11.2199 -22.6308   C.2       1 RES1   0.0000
    33 C33     -4.5473  11.6314 -22.7356   C.2       1 RES1   0.0000
    34 C34     -4.1201  12.8113 -22.1138   C.2       1 RES1   0.0000
    35 N35     -2.7297  13.1642 -22.1643   N.pl3     1 RES1   0.0000
    36 C36     -1.8753  13.2867 -23.1839   C.2       1 RES1   0.0000
    37 N37     -0.6930  13.6090 -22.7347   N.2       1 RES1   0.0000
    38 N38     -0.8254  13.6877 -21.3887   N.2       1 RES1   0.0000
    39 N39     -2.0461  13.4321 -21.0223   N.2       1 RES1   0.0000
    40 C40     -5.9670  17.1010 -15.8511   C.2       1 RES1   0.0000
    41 C41     -6.1628  15.4448 -12.5311   C.2       1 RES1   0.0000
    42 C42     -6.5347  14.2575 -11.9207   C.2       1 RES1   0.0000
@<TRIPOS>BOND
     1     1     2    1
     2     2     3    1
     3     3     4    2
     4     3     5   am
     5     5     6    1
     6     6     7    2
     7     7     8    1
     8     8     9    2
     9     9    10    1
    10    10    11    2
    11    11    12    1
    12    12    13    2
    13    13    14    1
    14    14    15    1
    15    15    16    1
    16    16    17    1
    17    17    18    2
    18    18    19    1
    19    19    20    2
    20    20    21    1
    21    21    22    2
    22    15    23    1
    23    23    24   am
    24    24    25    2
    25    24    26    1
    26    26    27    2
    27    27    28    1
    28    28    29    2
    29    29    30    1
    30    30    31    1
    31    30    32    2
    32    32    33    1
    33    33    34    2
    34    34    35    1
    35    35    36    1
    36    36    37    2
    37    37    38    1
    38    38    39    2
    39    14    40    2
    40     9    41    1
    41    41    42    2
    42    42     6    1
    43    40    10    1
    44    22    17    1
    45    34    28    1
    46    39    35    1
@<TRIPOS>SUBSTRUCTURE
     1 RES1        1 GROUP             0 ****  ****    0  
@<TRIPOS>MOLECULE
ligand_41
    42    46     1     0     0
SMALL
NO_CHARGES
****
Generated from the CSD

@<TRIPOS>ATOM
     1 C1     -12.4635  10.2135 -12.3986   C.3       1 RES1   0.0000
     2 O2     -11.5720  11.2831 -11.9004   O.3       1 RES1   0.0000
     3 C3     -10.9824  12.0332 -12.8392   C.2       1 RES1   0.0000
     4 O4     -11.1313  11.8922 -14.0413   O.2       1 RES1   0.0000
     5 N5     -10.1787  12.9487 -12.2367   N.am      1 RES1   0.0000
     6 C6      -9.3623  13.9097 -12.8808   C.2       1 RES1   0.0000
     7 C7      -9.2424  14.0788 -14.2680   C.2       1 RES1   0.0000
     8 C8      -8.4294  15.0770 -14.7841   C.2       1 RES1   0.0000
     9 C9      -7.7440  15.9672 -13.9464   C.2       1 RES1   0.0000
    10 C10     -6.9400  17.0941 -14.4988   C.2       1 RES1   0.0000
    11 C11     -6.2351  17.9810 -13.6762   C.2       1 RES1   0.0000
    12 C12     -5.5443  19.0269 -14.2587   C.2       1 RES1   0.0000
    13 N13     -5.4788  19.2298 -15.5845   N.2       1 RES1   0.0000
    14 C14     -6.1537  18.3726 -16.3672   C.2       1 RES1   0.0000
    15 C15     -6.0365  18.5856 -17.8417   C.3       1 RES1   0.0000
    16 C16     -6.9023  19.7617 -18.3080   C.3       1 RES1   0.0000
    17 C17     -6.6661  20.2180 -19.7371   C.2       1 RES1   0.0000
    18 C18     -5.7009  21.2143 -20.0030   C.2       1 RES1   0.0000
    19 C19     -5.4714  21.6589 -21.3136   C.2       1 RES1   0.0000
    20 C20     -6.1917  21.0931 -22.3803   C.2       1 RES1   0.0000
    21 C21     -7.1290  20.1064 -22.1289   C.2       1 RES1   0.0000
    22 C22     -7.3830  19.6857 -20.8222   C.2       1 RES1   0.0000
    23 N23     -6.3148  17.3835 -18.6260   N.am      1 RES1   0.0000
    24 C24     -5.3023  16.8725 -19.4321   C.2       1 RES1   0.0000
    25 O25     -4.1792  17.3996 -19.5080   O.2       1 RES1   0.0000
    26 C26     -5.5493  15.5926 -20.0887   C.2       1 RES1   0.0000
    27 C27     -4.6999  14.8855 -20.7857   C.2       1 RES1   0.0000
    28 C28     -5.0342  13.6079 -21.4094   C.2       1 RES1   0.0000
    29 C29     -6.3559  13.1523 -21.2907   C.2       1 RES1   0.0000
    30 C30     -6.7331  11.9701 -21.8870   C.2       1 RES1   0.0000
    31 Cl31    -8.3639  11.4016 -21.6885   Cl        1 RES1   0.0000
    32 C32     -5.8478  11.2150 -22.6210   C.2       1 RES1   0.0000
    33 C33     -4.5366  11.6472 -22.7531   C.2       1 RES1   0.0000
    34 C34     -4.1163  12.8359 -22.1434   C.2       1 RES1   0.0000
    35 N35     -2.7330  13.2108 -22.2223   N.pl3     1 RES1   0.0000
    36 C36     -1.9008  13.3435 -23.2589   C.2       1 RES1   0.0000
    37 N37     -0.7153  13.6863 -22.8341   N.2       1 RES1   0.0000
    38 N38     -0.8225  13.7673 -21.4859   N.2       1 RES1   0.0000
    39 N39     -2.0316  13.4936 -21.0948   N.2       1 RES1   0.0000
    40 C40     -6.8855  17.3287 -15.8742   C.2       1 RES1   0.0000
    41 C41     -7.8743  15.7834 -12.5630   C.2       1 RES1   0.0000
    42 C42     -8.6488  14.7626 -12.0349   C.2       1 RES1   0.0000
@<TRIPOS>BOND
     1     1     2    1
     2     2     3    1
     3     3     4    2
     4     3     5   am
     5     5     6    1
     6     6     7    2
     7     7     8    1
     8     8     9    2
     9     9    10    1
    10    10    11    2
    11    11    12    1
    12    12    13    2
    13    13    14    1
    14    14    15    1
    15    15    16    1
    16    16    17    1
    17    17    18    2
    18    18    19    1
    19    19    20    2
    20    20    21    1
    21    21    22    2
    22    15    23    1
    23    23    24   am
    24    24    25    2
    25    24    26    1
    26    26    27    2
    27    27    28    1
    28    28    29    2
    29    29    30    1
    30    30    31    1
    31    30    32    2
    32    32    33    1
    33    33    34    2
    34    34    35    1
    35    35    36    1
    36    36    37    2
    37    37    38    1
    38    38    39    2
    39    14    40    2
    40     9    41    1
    41    41    42    2
    42    42     6    1
    43    40    10    1
    44    22    17    1
    45    34    28    1
    46    39    35    1
@<TRIPOS>SUBSTRUCTURE
     1 RES1        1 GROUP             0 ****  ****    0  
@<TRIPOS>MOLECULE
ligand_42
    42    46     1     0     0
SMALL
NO_CHARGES
****
Generated from the CSD

@<TRIPOS>ATOM
     1 C1       4.4013   6.1858 -36.1739   C.3       1 RES1   0.0000
     2 O2       3.3595   7.2168 -35.9761   O.3       1 RES1   0.0000
     3 C3       2.5884   7.0641 -34.8928   C.2       1 RES1   0.0000
     4 O4       2.6899   6.1558 -34.0854   O.2       1 RES1   0.0000
     5 N5       1.6671   8.0626 -34.8586   N.am      1 RES1   0.0000
     6 C6       0.6520   8.2425 -33.8880   C.2       1 RES1   0.0000
     7 C7       0.4220   7.4072 -32.7850   C.2       1 RES1   0.0000
     8 C8      -0.5891   7.7016 -31.8824   C.2       1 RES1   0.0000
     9 C9      -1.3758   8.8535 -32.0166   C.2       1 RES1   0.0000
    10 C10     -2.4039   9.2173 -31.0006   C.2       1 RES1   0.0000
    11 C11     -3.2099  10.3548 -31.1293   C.2       1 RES1   0.0000
    12 C12     -4.1137  10.6501 -30.1261   C.2       1 RES1   0.0000
    13 N13     -4.2930   9.8863 -29.0363   N.2       1 RES1   0.0000
    14 C14     -3.5196   8.7947 -28.9221   C.2       1 RES1   0.0000
    15 C15     -3.7602   7.9318 -27.7260   C.3       1 RES1   0.0000
    16 C16     -4.5039   6.6456 -28.1039   C.3       1 RES1   0.0000
    17 C17     -4.5779   5.5914 -27.0132   C.2       1 RES1   0.0000
    18 C18     -3.5612   4.6163 -26.9125   C.2       1 RES1   0.0000
    19 C19     -3.6123   3.6268 -25.9193   C.2       1 RES1   0.0000
    20 C20     -4.6738   3.6154 -24.9974   C.2       1 RES1   0.0000
    21 C21     -5.6663   4.5764 -25.0813   C.2       1 RES1   0.0000
    22 C22     -5.6352   5.5420 -26.0890   C.2       1 RES1   0.0000
    23 N23     -4.4365   8.6293 -26.6334   N.am      1 RES1   0.0000
    24 C24     -3.6721   9.4238 -25.7845   C.2       1 RES1   0.0000
    25 O25     -2.4443   9.5594 -25.9227   O.2       1 RES1   0.0000
    26 C26     -4.3842  10.2264 -24.7951   C.2       1 RES1   0.0000
    27 C27     -3.8757  11.1197 -23.9885   C.2       1 RES1   0.0000
    28 C28     -4.6672  11.8812 -23.0259   C.2       1 RES1   0.0000
    29 C29     -6.0244  11.5510 -22.8939   C.2       1 RES1   0.0000
    30 C30     -6.8091  12.2153 -21.9782   C.2       1 RES1   0.0000
    31 Cl31    -8.4985  11.8217 -21.8638   Cl        1 RES1   0.0000
    32 C32     -6.2960  13.1976 -21.1630   C.2       1 RES1   0.0000
    33 C33     -4.9565  13.5390 -21.2751   C.2       1 RES1   0.0000
    34 C34     -4.1356  12.8952 -22.2095   C.2       1 RES1   0.0000
    35 N35     -2.7772  13.3319 -22.3648   N.pl3     1 RES1   0.0000
    36 C36     -2.0178  13.5220 -23.4473   C.2       1 RES1   0.0000
    37 N37     -0.8237  13.9078 -23.0884   N.2       1 RES1   0.0000
    38 N38     -0.8499  13.9567 -21.7348   N.2       1 RES1   0.0000
    39 N39     -2.0194  13.6223 -21.2764   N.2       1 RES1   0.0000
    40 C40     -2.5811   8.4436 -29.8518   C.2       1 RES1   0.0000
    41 C41     -1.1332   9.6765 -33.1249   C.2       1 RES1   0.0000
    42 C42     -0.1551   9.3703 -34.0578   C.2       1 RES1   0.0000
@<TRIPOS>BOND
     1     1     2    1
     2     2     3    1
     3     3     4    2
     4     3     5   am
     5     5     6    1
     6     6     7    2
     7     7     8    1
     8     8     9    2
     9     9    10    1
    10    10    11    2
    11    11    12    1
    12    12    13    2
    13    13    14    1
    14    14    15    1
    15    15    16    1
    16    16    17    1
    17    17    18    2
    18    18    19    1
    19    19    20    2
    20    20    21    1
    21    21    22    2
    22    15    23    1
    23    23    24   am
    24    24    25    2
    25    24    26    1
    26    26    27    2
    27    27    28    1
    28    28    29    2
    29    29    30    1
    30    30    31    1
    31    30    32    2
    32    32    33    1
    33    33    34    2
    34    34    35    1
    35    35    36    1
    36    36    37    2
    37    37    38    1
    38    38    39    2
    39    14    40    2
    40     9    41    1
    41    41    42    2
    42    42     6    1
    43    40    10    1
    44    22    17    1
    45    34    28    1
    46    39    35    1
@<TRIPOS>SUBSTRUCTURE
     1 RES1        1 GROUP             0 ****  ****    0  
@<TRIPOS>MOLECULE
ligand_43
    42    46     1     0     0
SMALL
NO_CHARGES
****
Generated from the CSD

@<TRIPOS>ATOM
     1 C1       3.1515   7.8744 -38.0431   C.3       1 RES1   0.0000
     2 O2       2.6690   7.3830 -36.7344   O.3       1 RES1   0.0000
     3 C3       1.7390   8.1376 -36.1367   C.2       1 RES1   0.0000
     4 O4       1.2807   9.1721 -36.5915   O.2       1 RES1   0.0000
     5 N5       1.4154   7.5797 -34.9404   N.am      1 RES1   0.0000
     6 C6       0.4914   8.0861 -33.9946   C.2       1 RES1   0.0000
     7 C7      -0.2535   9.2664 -34.1343   C.2       1 RES1   0.0000
     8 C8      -1.1524   9.6478 -33.1493   C.2       1 RES1   0.0000
     9 C9      -1.3758   8.8535 -32.0166   C.2       1 RES1   0.0000
    10 C10     -2.4039   9.2173 -31.0006   C.2       1 RES1   0.0000
    11 C11     -3.2099  10.3548 -31.1293   C.2       1 RES1   0.0000
    12 C12     -4.1137  10.6501 -30.1261   C.2       1 RES1   0.0000
    13 N13     -4.2930   9.8863 -29.0363   N.2       1 RES1   0.0000
    14 C14     -3.5196   8.7947 -28.9221   C.2       1 RES1   0.0000
    15 C15     -3.7602   7.9318 -27.7260   C.3       1 RES1   0.0000
    16 C16     -4.5039   6.6456 -28.1039   C.3       1 RES1   0.0000
    17 C17     -4.5779   5.5914 -27.0132   C.2       1 RES1   0.0000
    18 C18     -3.5612   4.6163 -26.9125   C.2       1 RES1   0.0000
    19 C19     -3.6123   3.6268 -25.9193   C.2       1 RES1   0.0000
    20 C20     -4.6738   3.6154 -24.9974   C.2       1 RES1   0.0000
    21 C21     -5.6663   4.5764 -25.0813   C.2       1 RES1   0.0000
    22 C22     -5.6352   5.5420 -26.0890   C.2       1 RES1   0.0000
    23 N23     -4.4365   8.6293 -26.6334   N.am      1 RES1   0.0000
    24 C24     -3.6721   9.4238 -25.7845   C.2       1 RES1   0.0000
    25 O25     -2.4443   9.5594 -25.9227   O.2       1 RES1   0.0000
    26 C26     -4.3842  10.2264 -24.7951   C.2       1 RES1   0.0000
    27 C27     -3.8757  11.1197 -23.9885   C.2       1 RES1   0.0000
    28 C28     -4.6672  11.8812 -23.0259   C.2       1 RES1   0.0000
    29 C29     -6.0244  11.5510 -22.8940   C.2       1 RES1   0.0000
    30 C30     -6.8091  12.2153 -21.9782   C.2       1 RES1   0.0000
    31 Cl31    -8.4985  11.8217 -21.8638   Cl        1 RES1   0.0000
    32 C32     -6.2960  13.1976 -21.1630   C.2       1 RES1   0.0000
    33 C33     -4.9565  13.5390 -21.2751   C.2       1 RES1   0.0000
    34 C34     -4.1356  12.8952 -22.2095   C.2       1 RES1   0.0000
    35 N35     -2.7772  13.3319 -22.3648   N.pl3     1 RES1   0.0000
    36 C36     -2.0178  13.5220 -23.4473   C.2       1 RES1   0.0000
    37 N37     -0.8237  13.9078 -23.0884   N.2       1 RES1   0.0000
    38 N38     -0.8499  13.9567 -21.7348   N.2       1 RES1   0.0000
    39 N39     -2.0194  13.6223 -21.2764   N.2       1 RES1   0.0000
    40 C40     -2.5811   8.4436 -29.8518   C.2       1 RES1   0.0000
    41 C41     -0.6225   7.6781 -31.8926   C.2       1 RES1   0.0000
    42 C42      0.3104   7.3080 -32.8483   C.2       1 RES1   0.0000
@<TRIPOS>BOND
     1     1     2    1
     2     2     3    1
     3     3     4    2
     4     3     5   am
     5     5     6    1
     6     6     7    2
     7     7     8    1
     8     8     9    2
     9     9    10    1
    10    10    11    2
    11    11    12    1
    12    12    13    2
    13    13    14    1
    14    14    15    1
    15    15    16    1
    16    16    17    1
    17    17    18    2
    18    18    19    1
    19    19    20    2
    20    20    21    1
    21    21    22    2
    22    15    23    1
    23    23    24   am
    24    24    25    2
    25    24    26    1
    26    26    27    2
    27    27    28    1
    28    28    29    2
    29    29    30    1
    30    30    31    1
    31    30    32    2
    32    32    33    1
    33    33    34    2
    34    34    35    1
    35    35    36    1
    36    36    37    2
    37    37    38    1
    38    38    39    2
    39    14    40    2
    40     9    41    1
    41    41    42    2
    42    42     6    1
    43    40    10    1
    44    22    17    1
    45    34    28    1
    46    39    35    1
@<TRIPOS>SUBSTRUCTURE
     1 RES1        1 GROUP             0 ****  ****    0  
@<TRIPOS>MOLECULE
ligand_44
    42    46     1     0     0
SMALL
NO_CHARGES
****
Generated from the CSD

@<TRIPOS>ATOM
     1 C1     -11.2930  15.3483 -33.9814   C.3       1 RES1   0.0000
     2 O2     -10.6074  15.0562 -32.7040   O.3       1 RES1   0.0000
     3 C3      -9.5787  14.2031 -32.7778   C.2       1 RES1   0.0000
     4 O4      -9.1856  13.6696 -33.8016   O.2       1 RES1   0.0000
     5 N5      -9.0695  14.0119 -31.5324   N.am      1 RES1   0.0000
     6 C6      -7.9925  13.1623 -31.1814   C.2       1 RES1   0.0000
     7 C7      -7.4840  12.9836 -29.8864   C.2       1 RES1   0.0000
     8 C8      -6.4398  12.0993 -29.6600   C.2       1 RES1   0.0000
     9 C9      -5.8944  11.3315 -30.6977   C.2       1 RES1   0.0000
    10 C10     -4.8322  10.3178 -30.4413   C.2       1 RES1   0.0000
    11 C11     -3.8406  10.0216 -31.3842   C.2       1 RES1   0.0000
    12 C12     -2.9124   9.0401 -31.0917   C.2       1 RES1   0.0000
    13 N13     -2.8815   8.3662 -29.9306   N.2       1 RES1   0.0000
    14 C14     -3.8330   8.6589 -29.0295   C.2       1 RES1   0.0000
    15 C15     -3.7602   7.9318 -27.7260   C.3       1 RES1   0.0000
    16 C16     -4.2677   6.4913 -27.8593   C.3       1 RES1   0.0000
    17 C17     -4.0061   5.5950 -26.6616   C.2       1 RES1   0.0000
    18 C18     -2.8094   4.8478 -26.5950   C.2       1 RES1   0.0000
    19 C19     -2.5495   4.0058 -25.5034   C.2       1 RES1   0.0000
    20 C20     -3.4773   3.9189 -24.4506   C.2       1 RES1   0.0000
    21 C21     -4.6457   4.6591 -24.5024   C.2       1 RES1   0.0000
    22 C22     -4.9220   5.4722 -25.6030   C.2       1 RES1   0.0000
    23 N23     -4.4365   8.6293 -26.6334   N.am      1 RES1   0.0000
    24 C24     -3.6756   9.4408 -25.7975   C.2       1 RES1   0.0000
    25 O25     -2.4524   9.5983 -25.9525   O.2       1 RES1   0.0000
    26 C26     -4.3892  10.2340 -24.8016   C.2       1 RES1   0.0000
    27 C27     -3.8864  11.1395 -24.0050   C.2       1 RES1   0.0000
    28 C28     -4.6790  11.8900 -23.0346   C.2       1 RES1   0.0000
    29 C29     -6.0280  11.5355 -22.8834   C.2       1 RES1   0.0000
    30 C30     -6.8125  12.1888 -21.9596   C.2       1 RES1   0.0000
    31 Cl31    -8.4928  11.7648 -21.8213   Cl        1 RES1   0.0000
    32 C32     -6.3068  13.1834 -21.1549   C.2       1 RES1   0.0000
    33 C33     -4.9754  13.5489 -21.2860   C.2       1 RES1   0.0000
    34 C34     -4.1553  12.9167 -22.2290   C.2       1 RES1   0.0000
    35 N35     -2.8073  13.3776 -22.4039   N.pl3     1 RES1   0.0000
    36 C36     -2.0660  13.5777 -23.4972   C.2       1 RES1   0.0000
    37 N37     -0.8745  13.9864 -23.1556   N.2       1 RES1   0.0000
    38 N38     -0.8835  14.0397 -21.8019   N.2       1 RES1   0.0000
    39 N39     -2.0405  13.6857 -21.3268   N.2       1 RES1   0.0000
    40 C40     -4.8058   9.5940 -29.2475   C.2       1 RES1   0.0000
    41 C41     -6.4136  11.5232 -31.9854   C.2       1 RES1   0.0000
    42 C42     -7.4273  12.4355 -32.2324   C.2       1 RES1   0.0000
@<TRIPOS>BOND
     1     1     2    1
     2     2     3    1
     3     3     4    2
     4     3     5   am
     5     5     6    1
     6     6     7    2
     7     7     8    1
     8     8     9    2
     9     9    10    1
    10    10    11    2
    11    11    12    1
    12    12    13    2
    13    13    14    1
    14    14    15    1
    15    15    16    1
    16    16    17    1
    17    17    18    2
    18    18    19    1
    19    19    20    2
    20    20    21    1
    21    21    22    2
    22    15    23    1
    23    23    24   am
    24    24    25    2
    25    24    26    1
    26    26    27    2
    27    27    28    1
    28    28    29    2
    29    29    30    1
    30    30    31    1
    31    30    32    2
    32    32    33    1
    33    33    34    2
    34    34    35    1
    35    35    36    1
    36    36    37    2
    37    37    38    1
    38    38    39    2
    39    14    40    2
    40     9    41    1
    41    41    42    2
    42    42     6    1
    43    40    10    1
    44    22    17    1
    45    34    28    1
    46    39    35    1
@<TRIPOS>SUBSTRUCTURE
     1 RES1        1 GROUP             0 ****  ****    0  
@<TRIPOS>MOLECULE
ligand_45
    42    46     1     0     0
SMALL
NO_CHARGES
****
Generated from the CSD

@<TRIPOS>ATOM
     1 C1     -14.3619  12.6054 -30.3309   C.3       1 RES1   0.0000
     2 O2     -13.1742  12.2812 -31.1502   O.3       1 RES1   0.0000
     3 C3     -12.1270  11.7803 -30.4839   C.2       1 RES1   0.0000
     4 O4     -12.0945  11.5817 -29.2811   O.2       1 RES1   0.0000
     5 N5     -11.1092  11.5589 -31.3569   N.am      1 RES1   0.0000
     6 C6      -9.8217  11.0596 -31.0441   C.2       1 RES1   0.0000
     7 C7      -9.3735  10.7072 -29.7626   C.2       1 RES1   0.0000
     8 C8      -8.0949  10.2006 -29.5827   C.2       1 RES1   0.0000
     9 C9      -7.2349   9.9851 -30.6679   C.2       1 RES1   0.0000
    10 C10     -5.8940   9.3598 -30.4869   C.2       1 RES1   0.0000
    11 C11     -5.0163   9.1540 -31.5581   C.2       1 RES1   0.0000
    12 C12     -3.8058   8.5309 -31.3196   C.2       1 RES1   0.0000
    13 N13     -3.3989   8.1344 -30.1028   N.2       1 RES1   0.0000
    14 C14     -4.2442   8.3391 -29.0799   C.2       1 RES1   0.0000
    15 C15     -3.7602   7.9318 -27.7260   C.3       1 RES1   0.0000
    16 C16     -3.8327   6.4119 -27.5393   C.3       1 RES1   0.0000
    17 C17     -3.1369   5.8736 -26.3014   C.2       1 RES1   0.0000
    18 C18     -1.7773   5.4975 -26.3709   C.2       1 RES1   0.0000
    19 C19     -1.1154   4.9889 -25.2433   C.2       1 RES1   0.0000
    20 C20     -1.8027   4.8718 -24.0224   C.2       1 RES1   0.0000
    21 C21     -3.1313   5.2518 -23.9433   C.2       1 RES1   0.0000
    22 C22     -3.8015   5.7269 -25.0720   C.2       1 RES1   0.0000
    23 N23     -4.4365   8.6293 -26.6334   N.am      1 RES1   0.0000
    24 C24     -3.6718   9.4221 -25.7832   C.2       1 RES1   0.0000
    25 O25     -2.4435   9.5553 -25.9196   O.2       1 RES1   0.0000
    26 C26     -4.3837  10.2257 -24.7944   C.2       1 RES1   0.0000
    27 C27     -3.8746  11.1177 -23.9868   C.2       1 RES1   0.0000
    28 C28     -4.6660  11.8804 -23.0251   C.2       1 RES1   0.0000
    29 C29     -6.0240  11.5527 -22.8951   C.2       1 RES1   0.0000
    30 C30     -6.8086  12.2182 -21.9802   C.2       1 RES1   0.0000
    31 Cl31    -8.4989  11.8278 -21.8682   Cl        1 RES1   0.0000
    32 C32     -6.2948  13.1992 -21.1640   C.2       1 RES1   0.0000
    33 C33     -4.9545  13.5381 -21.2740   C.2       1 RES1   0.0000
    34 C34     -4.1336  12.8931 -22.2076   C.2       1 RES1   0.0000
    35 N35     -2.7741  13.3272 -22.3608   N.pl3     1 RES1   0.0000
    36 C36     -2.0129  13.5163 -23.4422   C.2       1 RES1   0.0000
    37 N37     -0.8185  13.8996 -23.0815   N.2       1 RES1   0.0000
    38 N38     -0.8465  13.9481 -21.7279   N.2       1 RES1   0.0000
    39 N39     -2.0172  13.6158 -21.2713   N.2       1 RES1   0.0000
    40 C40     -5.4716   8.9214 -29.2303   C.2       1 RES1   0.0000
    41 C41     -7.6984  10.3435 -31.9412   C.2       1 RES1   0.0000
    42 C42     -8.9575  10.8913 -32.1290   C.2       1 RES1   0.0000
@<TRIPOS>BOND
     1     1     2    1
     2     2     3    1
     3     3     4    2
     4     3     5   am
     5     5     6    1
     6     6     7    2
     7     7     8    1
     8     8     9    2
     9     9    10    1
    10    10    11    2
    11    11    12    1
    12    12    13    2
    13    13    14    1
    14    14    15    1
    15    15    16    1
    16    16    17    1
    17    17    18    2
    18    18    19    1
    19    19    20    2
    20    20    21    1
    21    21    22    2
    22    15    23    1
    23    23    24   am
    24    24    25    2
    25    24    26    1
    26    26    27    2
    27    27    28    1
    28    28    29    2
    29    29    30    1
    30    30    31    1
    31    30    32    2
    32    32    33    1
    33    33    34    2
    34    34    35    1
    35    35    36    1
    36    36    37    2
    37    37    38    1
    38    38    39    2
    39    14    40    2
    40     9    41    1
    41    41    42    2
    42    42     6    1
    43    40    10    1
    44    22    17    1
    45    34    28    1
    46    39    35    1
@<TRIPOS>SUBSTRUCTURE
     1 RES1        1 GROUP             0 ****  ****    0  
@<TRIPOS>MOLECULE
ligand_46
    42    46     1     0     0
SMALL
NO_CHARGES
****
Generated from the CSD

@<TRIPOS>ATOM
     1 C1     -10.6511  18.7068  -6.9002   C.3       1 RES1   0.0000
     2 O2      -9.2978  18.4150  -7.4205   O.3       1 RES1   0.0000
     3 C3      -9.1607  18.4748  -8.7506   C.2       1 RES1   0.0000
     4 O4     -10.0553  18.7465  -9.5336   O.2       1 RES1   0.0000
     5 N5      -7.8806  18.1589  -9.0801   N.am      1 RES1   0.0000
     6 C6      -7.3389  18.0826 -10.3861   C.2       1 RES1   0.0000
     7 C7      -8.0429  18.3211 -11.5756   C.2       1 RES1   0.0000
     8 C8      -7.3958  18.2433 -12.7999   C.2       1 RES1   0.0000
     9 C9      -6.0238  17.9709 -12.8852   C.2       1 RES1   0.0000
    10 C10     -5.3092  17.9731 -14.1932   C.2       1 RES1   0.0000
    11 C11     -3.9429  17.6859 -14.2972   C.2       1 RES1   0.0000
    12 C12     -3.3399  17.7473 -15.5394   C.2       1 RES1   0.0000
    13 N13     -3.9980  18.0371 -16.6735   N.2       1 RES1   0.0000
    14 C14     -5.3090  18.3070 -16.5664   C.2       1 RES1   0.0000
    15 C15     -6.0365  18.5856 -17.8417   C.3       1 RES1   0.0000
    16 C16     -7.2941  19.4274 -17.5965   C.3       1 RES1   0.0000
    17 C17     -7.9659  19.9735 -18.8442   C.2       1 RES1   0.0000
    18 C18     -7.5846  21.2365 -19.3483   C.2       1 RES1   0.0000
    19 C19     -8.1971  21.7663 -20.4938   C.2       1 RES1   0.0000
    20 C20     -9.1863  21.0252 -21.1641   C.2       1 RES1   0.0000
    21 C21     -9.5551  19.7806 -20.6839   C.2       1 RES1   0.0000
    22 C22     -8.9707  19.2657 -19.5253   C.2       1 RES1   0.0000
    23 N23     -6.3511  17.3796 -18.6061   N.am      1 RES1   0.0000
    24 C24     -5.3565  16.8287 -19.4083   C.2       1 RES1   0.0000
    25 O25     -4.2194  17.3230 -19.4960   O.2       1 RES1   0.0000
    26 C26     -5.6418  15.5467 -20.0449   C.2       1 RES1   0.0000
    27 C27     -4.8153  14.8059 -20.7344   C.2       1 RES1   0.0000
    28 C28     -5.1876  13.5291 -21.3378   C.2       1 RES1   0.0000
    29 C29     -6.5208  13.1121 -21.2069   C.2       1 RES1   0.0000
    30 C30     -6.9333  11.9322 -21.7842   C.2       1 RES1   0.0000
    31 Cl31    -8.5782  11.4120 -21.5705   Cl        1 RES1   0.0000
    32 C32     -6.0726  11.1423 -22.5108   C.2       1 RES1   0.0000
    33 C33     -4.7507  11.5361 -22.6547   C.2       1 RES1   0.0000
    34 C34     -4.2948  12.7214 -22.0643   C.2       1 RES1   0.0000
    35 N35     -2.9021  13.0567 -22.1546   N.pl3     1 RES1   0.0000
    36 C36     -2.0714  13.1514 -23.1966   C.2       1 RES1   0.0000
    37 N37     -0.8749  13.4672 -22.7818   N.2       1 RES1   0.0000
    38 N38     -0.9735  13.5705 -21.4345   N.2       1 RES1   0.0000
    39 N39     -2.1878  13.3360 -21.0343   N.2       1 RES1   0.0000
    40 C40     -5.9787  18.2974 -15.3749   C.2       1 RES1   0.0000
    41 C41     -5.3360  17.7342 -11.6871   C.2       1 RES1   0.0000
    42 C42     -5.9801  17.7659 -10.4604   C.2       1 RES1   0.0000
@<TRIPOS>BOND
     1     1     2    1
     2     2     3    1
     3     3     4    2
     4     3     5   am
     5     5     6    1
     6     6     7    2
     7     7     8    1
     8     8     9    2
     9     9    10    1
    10    10    11    2
    11    11    12    1
    12    12    13    2
    13    13    14    1
    14    14    15    1
    15    15    16    1
    16    16    17    1
    17    17    18    2
    18    18    19    1
    19    19    20    2
    20    20    21    1
    21    21    22    2
    22    15    23    1
    23    23    24   am
    24    24    25    2
    25    24    26    1
    26    26    27    2
    27    27    28    1
    28    28    29    2
    29    29    30    1
    30    30    31    1
    31    30    32    2
    32    32    33    1
    33    33    34    2
    34    34    35    1
    35    35    36    1
    36    36    37    2
    37    37    38    1
    38    38    39    2
    39    14    40    2
    40     9    41    1
    41    41    42    2
    42    42     6    1
    43    40    10    1
    44    22    17    1
    45    34    28    1
    46    39    35    1
@<TRIPOS>SUBSTRUCTURE
     1 RES1        1 GROUP             0 ****  ****    0  
@<TRIPOS>MOLECULE
ligand_47
    42    46     1     0     0
SMALL
NO_CHARGES
****
Generated from the CSD

@<TRIPOS>ATOM
     1 C1      -8.5598  17.2122  -5.7601   C.3       1 RES1   0.0000
     2 O2      -8.8534  17.5074  -7.1792   O.3       1 RES1   0.0000
     3 C3      -7.8080  17.4513  -8.0133   C.2       1 RES1   0.0000
     4 O4      -6.6655  17.1803  -7.6841   O.2       1 RES1   0.0000
     5 N5      -8.2227  17.7701  -9.2677   N.am      1 RES1   0.0000
     6 C6      -7.4164  17.8506 -10.4288   C.2       1 RES1   0.0000
     7 C7      -6.0348  17.6141 -10.4796   C.2       1 RES1   0.0000
     8 C8      -5.3542  17.6960 -11.6853   C.2       1 RES1   0.0000
     9 C9      -6.0238  17.9709 -12.8852   C.2       1 RES1   0.0000
    10 C10     -5.3092  17.9731 -14.1932   C.2       1 RES1   0.0000
    11 C11     -3.9429  17.6859 -14.2972   C.2       1 RES1   0.0000
    12 C12     -3.3399  17.7473 -15.5394   C.2       1 RES1   0.0000
    13 N13     -3.9980  18.0371 -16.6735   N.2       1 RES1   0.0000
    14 C14     -5.3090  18.3070 -16.5664   C.2       1 RES1   0.0000
    15 C15     -6.0365  18.5856 -17.8417   C.3       1 RES1   0.0000
    16 C16     -7.2941  19.4274 -17.5965   C.3       1 RES1   0.0000
    17 C17     -7.9659  19.9735 -18.8442   C.2       1 RES1   0.0000
    18 C18     -7.5846  21.2365 -19.3483   C.2       1 RES1   0.0000
    19 C19     -8.1972  21.7663 -20.4938   C.2       1 RES1   0.0000
    20 C20     -9.1863  21.0252 -21.1641   C.2       1 RES1   0.0000
    21 C21     -9.5551  19.7806 -20.6839   C.2       1 RES1   0.0000
    22 C22     -8.9707  19.2657 -19.5253   C.2       1 RES1   0.0000
    23 N23     -6.3511  17.3796 -18.6061   N.am      1 RES1   0.0000
    24 C24     -5.3565  16.8287 -19.4083   C.2       1 RES1   0.0000
    25 O25     -4.2194  17.3230 -19.4960   O.2       1 RES1   0.0000
    26 C26     -5.6418  15.5467 -20.0449   C.2       1 RES1   0.0000
    27 C27     -4.8152  14.8059 -20.7344   C.2       1 RES1   0.0000
    28 C28     -5.1876  13.5291 -21.3378   C.2       1 RES1   0.0000
    29 C29     -6.5208  13.1121 -21.2069   C.2       1 RES1   0.0000
    30 C30     -6.9333  11.9322 -21.7842   C.2       1 RES1   0.0000
    31 Cl31    -8.5782  11.4120 -21.5705   Cl        1 RES1   0.0000
    32 C32     -6.0726  11.1423 -22.5108   C.2       1 RES1   0.0000
    33 C33     -4.7506  11.5361 -22.6547   C.2       1 RES1   0.0000
    34 C34     -4.2948  12.7214 -22.0643   C.2       1 RES1   0.0000
    35 N35     -2.9021  13.0566 -22.1545   N.pl3     1 RES1   0.0000
    36 C36     -2.0714  13.1514 -23.1965   C.2       1 RES1   0.0000
    37 N37     -0.8749  13.4672 -22.7817   N.2       1 RES1   0.0000
    38 N38     -0.9735  13.5705 -21.4345   N.2       1 RES1   0.0000
    39 N39     -2.1878  13.3360 -21.0343   N.2       1 RES1   0.0000
    40 C40     -5.9787  18.2974 -15.3749   C.2       1 RES1   0.0000
    41 C41     -7.4039  18.2055 -12.8162   C.2       1 RES1   0.0000
    42 C42     -8.0883  18.1696 -11.6116   C.2       1 RES1   0.0000
@<TRIPOS>BOND
     1     1     2    1
     2     2     3    1
     3     3     4    2
     4     3     5   am
     5     5     6    1
     6     6     7    2
     7     7     8    1
     8     8     9    2
     9     9    10    1
    10    10    11    2
    11    11    12    1
    12    12    13    2
    13    13    14    1
    14    14    15    1
    15    15    16    1
    16    16    17    1
    17    17    18    2
    18    18    19    1
    19    19    20    2
    20    20    21    1
    21    21    22    2
    22    15    23    1
    23    23    24   am
    24    24    25    2
    25    24    26    1
    26    26    27    2
    27    27    28    1
    28    28    29    2
    29    29    30    1
    30    30    31    1
    31    30    32    2
    32    32    33    1
    33    33    34    2
    34    34    35    1
    35    35    36    1
    36    36    37    2
    37    37    38    1
    38    38    39    2
    39    14    40    2
    40     9    41    1
    41    41    42    2
    42    42     6    1
    43    40    10    1
    44    22    17    1
    45    34    28    1
    46    39    35    1
@<TRIPOS>SUBSTRUCTURE
     1 RES1        1 GROUP             0 ****  ****    0  
@<TRIPOS>MOLECULE
ligand_48
    42    46     1     0     0
SMALL
NO_CHARGES
****
Generated from the CSD

@<TRIPOS>ATOM
     1 C1       5.6339   0.3352 -21.8273   C.3       1 RES1   0.0000
     2 O2       4.8011   1.5566 -21.7847   O.3       1 RES1   0.0000
     3 C3       3.7357   1.5063 -20.9761   C.2       1 RES1   0.0000
     4 O4       3.4207   0.5452 -20.2947   O.2       1 RES1   0.0000
     5 N5       3.0569   2.6806 -21.0615   N.am      1 RES1   0.0000
     6 C6       1.8603   3.0158 -20.3830   C.2       1 RES1   0.0000
     7 C7       1.1635   2.1796 -19.4982   C.2       1 RES1   0.0000
     8 C8       0.0125   2.6300 -18.8688   C.2       1 RES1   0.0000
     9 C9      -0.4618   3.9348 -19.0597   C.2       1 RES1   0.0000
    10 C10     -1.6479   4.4487 -18.3176   C.2       1 RES1   0.0000
    11 C11     -2.7086   3.6171 -17.9388   C.2       1 RES1   0.0000
    12 C12     -3.7940   4.1731 -17.2884   C.2       1 RES1   0.0000
    13 N13     -3.8821   5.4730 -16.9633   N.2       1 RES1   0.0000
    14 C14     -2.8590   6.2634 -17.3259   C.2       1 RES1   0.0000
    15 C15     -2.9515   7.6986 -16.9197   C.3       1 RES1   0.0000
    16 C16     -3.3974   7.8396 -15.4597   C.3       1 RES1   0.0000
    17 C17     -3.2839   9.2370 -14.8760   C.2       1 RES1   0.0000
    18 C18     -2.0894   9.6322 -14.2342   C.2       1 RES1   0.0000
    19 C19     -1.9638  10.9145 -13.6791   C.2       1 RES1   0.0000
    20 C20     -3.0281  11.8276 -13.7802   C.2       1 RES1   0.0000
    21 C21     -4.1965  11.4521 -14.4201   C.2       1 RES1   0.0000
    22 C22     -4.3362  10.1657 -14.9442   C.2       1 RES1   0.0000
    23 N23     -3.7930   8.5001 -17.8069   N.am      1 RES1   0.0000
    24 C24     -3.2091   9.5649 -18.4861   C.2       1 RES1   0.0000
    25 O25     -2.0068   9.8557 -18.3643   O.2       1 RES1   0.0000
    26 C26     -4.0265  10.2573 -19.4774   C.2       1 RES1   0.0000
    27 C27     -3.6425  11.1957 -20.3015   C.2       1 RES1   0.0000
    28 C28     -4.5325  11.8355 -21.2668   C.2       1 RES1   0.0000
    29 C29     -5.8737  11.4241 -21.2868   C.2       1 RES1   0.0000
    30 C30     -6.7631  12.0170 -22.1547   C.2       1 RES1   0.0000
    31 Cl31    -8.4094  11.4601 -22.1948   Cl        1 RES1   0.0000
    32 C32     -6.3792  13.0268 -23.0064   C.2       1 RES1   0.0000
    33 C33     -5.0587  13.4506 -23.0023   C.2       1 RES1   0.0000
    34 C34     -4.1249  12.8555 -22.1447   C.2       1 RES1   0.0000
    35 N35     -2.7481  13.2526 -22.2267   N.pl3     1 RES1   0.0000
    36 C36     -1.9045  13.3447 -23.2586   C.2       1 RES1   0.0000
    37 N37     -0.7316  13.7334 -22.8383   N.2       1 RES1   0.0000
    38 N38     -0.8587  13.8860 -21.4982   N.2       1 RES1   0.0000
    39 N39     -2.0675  13.6104 -21.1078   N.2       1 RES1   0.0000
    40 C40     -1.7607   5.8029 -17.9966   C.2       1 RES1   0.0000
    41 C41      0.2459   4.7565 -19.9476   C.2       1 RES1   0.0000
    42 C42      1.3724   4.3041 -20.6162   C.2       1 RES1   0.0000
@<TRIPOS>BOND
     1     1     2    1
     2     2     3    1
     3     3     4    2
     4     3     5   am
     5     5     6    1
     6     6     7    2
     7     7     8    1
     8     8     9    2
     9     9    10    1
    10    10    11    2
    11    11    12    1
    12    12    13    2
    13    13    14    1
    14    14    15    1
    15    15    16    1
    16    16    17    1
    17    17    18    2
    18    18    19    1
    19    19    20    2
    20    20    21    1
    21    21    22    2
    22    15    23    1
    23    23    24   am
    24    24    25    2
    25    24    26    1
    26    26    27    2
    27    27    28    1
    28    28    29    2
    29    29    30    1
    30    30    31    1
    31    30    32    2
    32    32    33    1
    33    33    34    2
    34    34    35    1
    35    35    36    1
    36    36    37    2
    37    37    38    1
    38    38    39    2
    39    14    40    2
    40     9    41    1
    41    41    42    2
    42    42     6    1
    43    40    10    1
    44    22    17    1
    45    34    28    1
    46    39    35    1
@<TRIPOS>SUBSTRUCTURE
     1 RES1        1 GROUP             0 ****  ****    0  
@<TRIPOS>MOLECULE
ligand_49
    42    46     1     0     0
SMALL
NO_CHARGES
****
Generated from the CSD

@<TRIPOS>ATOM
     1 C1       5.3310   2.3835 -23.7299   C.3       1 RES1   0.0000
     2 O2       4.4051   1.9240 -22.6722   O.3       1 RES1   0.0000
     3 C3       3.5080   2.8246 -22.2531   C.2       1 RES1   0.0000
     4 O4       3.4115   3.9640 -22.6770   O.2       1 RES1   0.0000
     5 N5       2.7504   2.2727 -21.2689   N.am      1 RES1   0.0000
     6 C6       1.7099   2.9068 -20.5478   C.2       1 RES1   0.0000
     7 C7       1.2820   4.2302 -20.7289   C.2       1 RES1   0.0000
     8 C8       0.2294   4.7346 -19.9797   C.2       1 RES1   0.0000
     9 C9      -0.4618   3.9348 -19.0597   C.2       1 RES1   0.0000
    10 C10     -1.6479   4.4487 -18.3176   C.2       1 RES1   0.0000
    11 C11     -2.7086   3.6171 -17.9388   C.2       1 RES1   0.0000
    12 C12     -3.7940   4.1731 -17.2884   C.2       1 RES1   0.0000
    13 N13     -3.8821   5.4730 -16.9633   N.2       1 RES1   0.0000
    14 C14     -2.8590   6.2634 -17.3259   C.2       1 RES1   0.0000
    15 C15     -2.9515   7.6986 -16.9197   C.3       1 RES1   0.0000
    16 C16     -3.3974   7.8396 -15.4597   C.3       1 RES1   0.0000
    17 C17     -3.2839   9.2370 -14.8760   C.2       1 RES1   0.0000
    18 C18     -2.0894   9.6322 -14.2342   C.2       1 RES1   0.0000
    19 C19     -1.9638  10.9145 -13.6791   C.2       1 RES1   0.0000
    20 C20     -3.0281  11.8276 -13.7802   C.2       1 RES1   0.0000
    21 C21     -4.1965  11.4521 -14.4201   C.2       1 RES1   0.0000
    22 C22     -4.3362  10.1657 -14.9442   C.2       1 RES1   0.0000
    23 N23     -3.7930   8.5001 -17.8069   N.am      1 RES1   0.0000
    24 C24     -3.2091   9.5649 -18.4861   C.2       1 RES1   0.0000
    25 O25     -2.0068   9.8557 -18.3643   O.2       1 RES1   0.0000
    26 C26     -4.0265  10.2573 -19.4774   C.2       1 RES1   0.0000
    27 C27     -3.6425  11.1957 -20.3015   C.2       1 RES1   0.0000
    28 C28     -4.5325  11.8355 -21.2668   C.2       1 RES1   0.0000
    29 C29     -5.8737  11.4241 -21.2868   C.2       1 RES1   0.0000
    30 C30     -6.7631  12.0170 -22.1547   C.2       1 RES1   0.0000
    31 Cl31    -8.4094  11.4601 -22.1948   Cl        1 RES1   0.0000
    32 C32     -6.3792  13.0268 -23.0064   C.2       1 RES1   0.0000
    33 C33     -5.0587  13.4506 -23.0023   C.2       1 RES1   0.0000
    34 C34     -4.1249  12.8555 -22.1447   C.2       1 RES1   0.0000
    35 N35     -2.7481  13.2526 -22.2267   N.pl3     1 RES1   0.0000
    36 C36     -1.9045  13.3447 -23.2586   C.2       1 RES1   0.0000
    37 N37     -0.7316  13.7334 -22.8383   N.2       1 RES1   0.0000
    38 N38     -0.8587  13.8860 -21.4982   N.2       1 RES1   0.0000
    39 N39     -2.0675  13.6104 -21.1078   N.2       1 RES1   0.0000
    40 C40     -1.7607   5.8029 -17.9966   C.2       1 RES1   0.0000
    41 C41     -0.0205   2.6152 -18.8906   C.2       1 RES1   0.0000
    42 C42      1.0577   2.1124 -19.6013   C.2       1 RES1   0.0000
@<TRIPOS>BOND
     1     1     2    1
     2     2     3    1
     3     3     4    2
     4     3     5   am
     5     5     6    1
     6     6     7    2
     7     7     8    1
     8     8     9    2
     9     9    10    1
    10    10    11    2
    11    11    12    1
    12    12    13    2
    13    13    14    1
    14    14    15    1
    15    15    16    1
    16    16    17    1
    17    17    18    2
    18    18    19    1
    19    19    20    2
    20    20    21    1
    21    21    22    2
    22    15    23    1
    23    23    24   am
    24    24    25    2
    25    24    26    1
    26    26    27    2
    27    27    28    1
    28    28    29    2
    29    29    30    1
    30    30    31    1
    31    30    32    2
    32    32    33    1
    33    33    34    2
    34    34    35    1
    35    35    36    1
    36    36    37    2
    37    37    38    1
    38    38    39    2
    39    14    40    2
    40     9    41    1
    41    41    42    2
    42    42     6    1
    43    40    10    1
    44    22    17    1
    45    34    28    1
    46    39    35    1
@<TRIPOS>SUBSTRUCTURE
     1 RES1        1 GROUP             0 ****  ****    0  
@<TRIPOS>MOLECULE
ligand_50
    42    46     1     0     0
SMALL
NO_CHARGES
****
Generated from the CSD

@<TRIPOS>ATOM
     1 C1       4.1964  -1.6282 -18.6351   C.3       1 RES1   0.0000
     2 O2       2.7592  -1.5060 -18.3086   O.3       1 RES1   0.0000
     3 C3       2.3007  -0.2574 -18.1596   C.2       1 RES1   0.0000
     4 O4       2.9748   0.7525 -18.2732   O.2       1 RES1   0.0000
     5 N5       0.9812  -0.3039 -17.8374   N.am      1 RES1   0.0000
     6 C6       0.1373   0.8015 -17.5712   C.2       1 RES1   0.0000
     7 C7       0.5275   2.1486 -17.5933   C.2       1 RES1   0.0000
     8 C8      -0.3987   3.1501 -17.3423   C.2       1 RES1   0.0000
     9 C9      -1.7479   2.8549 -17.1050   C.2       1 RES1   0.0000
    10 C10     -2.7606   3.9331 -16.9217   C.2       1 RES1   0.0000
    11 C11     -4.1087   3.6547 -16.6664   C.2       1 RES1   0.0000
    12 C12     -4.9974   4.7066 -16.5483   C.2       1 RES1   0.0000
    13 N13     -4.6386   5.9980 -16.6317   N.2       1 RES1   0.0000
    14 C14     -3.3432   6.2572 -16.8722   C.2       1 RES1   0.0000
    15 C15     -2.9515   7.6986 -16.9197   C.3       1 RES1   0.0000
    16 C16     -2.8921   8.3092 -15.5147   C.3       1 RES1   0.0000
    17 C17     -2.2650   9.6897 -15.4305   C.2       1 RES1   0.0000
    18 C18     -0.8746   9.8147 -15.2161   C.2       1 RES1   0.0000
    19 C19     -0.2737  11.0791 -15.1253   C.2       1 RES1   0.0000
    20 C20     -1.0567  12.2377 -15.2713   C.2       1 RES1   0.0000
    21 C21     -2.4176  12.1228 -15.4957   C.2       1 RES1   0.0000
    22 C22     -3.0233  10.8663 -15.5534   C.2       1 RES1   0.0000
    23 N23     -3.7930   8.5001 -17.8069   N.am      1 RES1   0.0000
    24 C24     -3.2058   9.5558 -18.4974   C.2       1 RES1   0.0000
    25 O25     -1.9994   9.8349 -18.3901   O.2       1 RES1   0.0000
    26 C26     -4.0270  10.2520 -19.4829   C.2       1 RES1   0.0000
    27 C27     -3.6427  11.1827 -20.3155   C.2       1 RES1   0.0000
    28 C28     -4.5367  11.8271 -21.2740   C.2       1 RES1   0.0000
    29 C29     -5.8818  11.4283 -21.2783   C.2       1 RES1   0.0000
    30 C30     -6.7746  12.0262 -22.1392   C.2       1 RES1   0.0000
    31 Cl31    -8.4264  11.4846 -22.1600   Cl        1 RES1   0.0000
    32 C32     -6.3903  13.0291 -22.9989   C.2       1 RES1   0.0000
    33 C33     -5.0658  13.4404 -23.0102   C.2       1 RES1   0.0000
    34 C34     -4.1288  12.8398 -22.1601   C.2       1 RES1   0.0000
    35 N35     -2.7492  13.2236 -22.2581   N.pl3     1 RES1   0.0000
    36 C36     -1.9156  13.3037 -23.2990   C.2       1 RES1   0.0000
    37 N37     -0.7348  13.6830 -22.8925   N.2       1 RES1   0.0000
    38 N38     -0.8465  13.8422 -21.5517   N.2       1 RES1   0.0000
    39 N39     -2.0537  13.5794 -21.1477   N.2       1 RES1   0.0000
    40 C40     -2.4026   5.2783 -17.0311   C.2       1 RES1   0.0000
    41 C41     -2.1203   1.5038 -17.0856   C.2       1 RES1   0.0000
    42 C42     -1.1962   0.4918 -17.2916   C.2       1 RES1   0.0000
@<TRIPOS>BOND
     1     1     2    1
     2     2     3    1
     3     3     4    2
     4     3     5   am
     5     5     6    1
     6     6     7    2
     7     7     8    1
     8     8     9    2
     9     9    10    1
    10    10    11    2
    11    11    12    1
    12    12    13    2
    13    13    14    1
    14    14    15    1
    15    15    16    1
    16    16    17    1
    17    17    18    2
    18    18    19    1
    19    19    20    2
    20    20    21    1
    21    21    22    2
    22    15    23    1
    23    23    24   am
    24    24    25    2
    25    24    26    1
    26    26    27    2
    27    27    28    1
    28    28    29    2
    29    29    30    1
    30    30    31    1
    31    30    32    2
    32    32    33    1
    33    33    34    2
    34    34    35    1
    35    35    36    1
    36    36    37    2
    37    37    38    1
    38    38    39    2
    39    14    40    2
    40     9    41    1
    41    41    42    2
    42    42     6    1
    43    40    10    1
    44    22    17    1
    45    34    28    1
    46    39    35    1
@<TRIPOS>SUBSTRUCTURE
     1 RES1        1 GROUP             0 ****  ****    0  
@<TRIPOS>MOLECULE
ligand_51
    42    46     1     0     0
SMALL
NO_CHARGES
****
Generated from the CSD

@<TRIPOS>ATOM
     1 C1       2.4580  -3.4689 -17.4116   C.3       1 RES1   0.0000
     2 O2       2.3937  -1.9924 -17.4664   O.3       1 RES1   0.0000
     3 C3       1.1767  -1.4571 -17.3121   C.2       1 RES1   0.0000
     4 O4       0.1512  -2.0929 -17.1349   O.2       1 RES1   0.0000
     5 N5       1.2698  -0.1050 -17.4125   N.am      1 RES1   0.0000
     6 C6       0.2036   0.8233 -17.3330   C.2       1 RES1   0.0000
     7 C7      -1.1468   0.4986 -17.1371   C.2       1 RES1   0.0000
     8 C8      -2.1020   1.5002 -17.0477   C.2       1 RES1   0.0000
     9 C9      -1.7479   2.8549 -17.1050   C.2       1 RES1   0.0000
    10 C10     -2.7606   3.9331 -16.9217   C.2       1 RES1   0.0000
    11 C11     -4.1087   3.6547 -16.6664   C.2       1 RES1   0.0000
    12 C12     -4.9974   4.7066 -16.5483   C.2       1 RES1   0.0000
    13 N13     -4.6386   5.9980 -16.6317   N.2       1 RES1   0.0000
    14 C14     -3.3432   6.2572 -16.8722   C.2       1 RES1   0.0000
    15 C15     -2.9515   7.6986 -16.9197   C.3       1 RES1   0.0000
    16 C16     -2.8921   8.3092 -15.5147   C.3       1 RES1   0.0000
    17 C17     -2.2650   9.6897 -15.4305   C.2       1 RES1   0.0000
    18 C18     -0.8746   9.8147 -15.2161   C.2       1 RES1   0.0000
    19 C19     -0.2737  11.0791 -15.1253   C.2       1 RES1   0.0000
    20 C20     -1.0567  12.2377 -15.2713   C.2       1 RES1   0.0000
    21 C21     -2.4176  12.1228 -15.4957   C.2       1 RES1   0.0000
    22 C22     -3.0233  10.8663 -15.5534   C.2       1 RES1   0.0000
    23 N23     -3.7930   8.5001 -17.8069   N.am      1 RES1   0.0000
    24 C24     -3.2058   9.5558 -18.4974   C.2       1 RES1   0.0000
    25 O25     -1.9994   9.8349 -18.3901   O.2       1 RES1   0.0000
    26 C26     -4.0270  10.2520 -19.4829   C.2       1 RES1   0.0000
    27 C27     -3.6427  11.1827 -20.3155   C.2       1 RES1   0.0000
    28 C28     -4.5367  11.8271 -21.2740   C.2       1 RES1   0.0000
    29 C29     -5.8818  11.4283 -21.2784   C.2       1 RES1   0.0000
    30 C30     -6.7746  12.0261 -22.1393   C.2       1 RES1   0.0000
    31 Cl31    -8.4264  11.4846 -22.1601   Cl        1 RES1   0.0000
    32 C32     -6.3903  13.0291 -22.9989   C.2       1 RES1   0.0000
    33 C33     -5.0658  13.4404 -23.0102   C.2       1 RES1   0.0000
    34 C34     -4.1288  12.8398 -22.1601   C.2       1 RES1   0.0000
    35 N35     -2.7492  13.2237 -22.2580   N.pl3     1 RES1   0.0000
    36 C36     -1.9156  13.3038 -23.2989   C.2       1 RES1   0.0000
    37 N37     -0.7348  13.6831 -22.8925   N.2       1 RES1   0.0000
    38 N38     -0.8465  13.8422 -21.5517   N.2       1 RES1   0.0000
    39 N39     -2.0537  13.5795 -21.1477   N.2       1 RES1   0.0000
    40 C40     -2.4026   5.2783 -17.0311   C.2       1 RES1   0.0000
    41 C41     -0.3945   3.1615 -17.3020   C.2       1 RES1   0.0000
    42 C42      0.5637   2.1694 -17.4366   C.2       1 RES1   0.0000
@<TRIPOS>BOND
     1     1     2    1
     2     2     3    1
     3     3     4    2
     4     3     5   am
     5     5     6    1
     6     6     7    2
     7     7     8    1
     8     8     9    2
     9     9    10    1
    10    10    11    2
    11    11    12    1
    12    12    13    2
    13    13    14    1
    14    14    15    1
    15    15    16    1
    16    16    17    1
    17    17    18    2
    18    18    19    1
    19    19    20    2
    20    20    21    1
    21    21    22    2
    22    15    23    1
    23    23    24   am
    24    24    25    2
    25    24    26    1
    26    26    27    2
    27    27    28    1
    28    28    29    2
    29    29    30    1
    30    30    31    1
    31    30    32    2
    32    32    33    1
    33    33    34    2
    34    34    35    1
    35    35    36    1
    36    36    37    2
    37    37    38    1
    38    38    39    2
    39    14    40    2
    40     9    41    1
    41    41    42    2
    42    42     6    1
    43    40    10    1
    44    22    17    1
    45    34    28    1
    46    39    35    1
@<TRIPOS>SUBSTRUCTURE
     1 RES1        1 GROUP             0 ****  ****    0  
@<TRIPOS>MOLECULE
ligand_52
    42    46     1     0     0
SMALL
NO_CHARGES
****
Generated from the CSD

@<TRIPOS>ATOM
     1 C1      -9.7070   7.5891 -37.9993   C.3       1 RES1   0.0000
     2 O2      -8.5989   8.4338 -37.5035   O.3       1 RES1   0.0000
     3 C3      -8.2004   8.1928 -36.2487   C.2       1 RES1   0.0000
     4 O4      -8.6803   7.3462 -35.5138   O.2       1 RES1   0.0000
     5 N5      -7.2027   9.0571 -35.9254   N.am      1 RES1   0.0000
     6 C6      -6.5309   9.1447 -34.6820   C.2       1 RES1   0.0000
     7 C7      -6.7878   8.3448 -33.5588   C.2       1 RES1   0.0000
     8 C8      -6.0426   8.5047 -32.4001   C.2       1 RES1   0.0000
     9 C9      -4.9917   9.4290 -32.3288   C.2       1 RES1   0.0000
    10 C10     -4.1339   9.5411 -31.1150   C.2       1 RES1   0.0000
    11 C11     -3.0919  10.4715 -31.0214   C.2       1 RES1   0.0000
    12 C12     -2.3128  10.4893 -29.8799   C.2       1 RES1   0.0000
    13 N13     -2.5156   9.6812 -28.8267   N.2       1 RES1   0.0000
    14 C14     -3.5196   8.7947 -28.9221   C.2       1 RES1   0.0000
    15 C15     -3.7602   7.9318 -27.7260   C.3       1 RES1   0.0000
    16 C16     -4.4660   6.6263 -28.1102   C.3       1 RES1   0.0000
    17 C17     -4.5337   5.5757 -27.0156   C.2       1 RES1   0.0000
    18 C18     -3.4957   4.6259 -26.8924   C.2       1 RES1   0.0000
    19 C19     -3.5404   3.6400 -25.8953   C.2       1 RES1   0.0000
    20 C20     -4.6172   3.6073 -24.9919   C.2       1 RES1   0.0000
    21 C21     -5.6309   4.5437 -25.0978   C.2       1 RES1   0.0000
    22 C22     -5.6055   5.5051 -26.1097   C.2       1 RES1   0.0000
    23 N23     -4.4720   8.6178 -26.6488   N.am      1 RES1   0.0000
    24 C24     -3.7418   9.4345 -25.7908   C.2       1 RES1   0.0000
    25 O25     -2.5154   9.5990 -25.9084   O.2       1 RES1   0.0000
    26 C26     -4.4902  10.2243 -24.8179   C.2       1 RES1   0.0000
    27 C27     -4.0174  11.1333 -24.0072   C.2       1 RES1   0.0000
    28 C28     -4.8437  11.8800 -23.0623   C.2       1 RES1   0.0000
    29 C29     -6.1947  11.5178 -22.9524   C.2       1 RES1   0.0000
    30 C30     -7.0109  12.1673 -22.0537   C.2       1 RES1   0.0000
    31 Cl31    -8.6922  11.7338 -21.9668   Cl        1 RES1   0.0000
    32 C32     -6.5358  13.1653 -21.2346   C.2       1 RES1   0.0000
    33 C33     -5.2031  13.5382 -21.3250   C.2       1 RES1   0.0000
    34 C34     -4.3508  12.9101 -22.2418   C.2       1 RES1   0.0000
    35 N35     -3.0007  13.3786 -22.3756   N.pl3     1 RES1   0.0000
    36 C36     -2.2274  13.5824 -23.4457   C.2       1 RES1   0.0000
    37 N37     -1.0492  13.9980 -23.0680   N.2       1 RES1   0.0000
    38 N38     -1.1001  14.0518 -21.7152   N.2       1 RES1   0.0000
    39 N39     -2.2690  13.6914 -21.2756   N.2       1 RES1   0.0000
    40 C40     -4.3205   8.6891 -30.0247   C.2       1 RES1   0.0000
    41 C41     -4.7493  10.2206 -33.4598   C.2       1 RES1   0.0000
    42 C42     -5.5150  10.1011 -34.6087   C.2       1 RES1   0.0000
@<TRIPOS>BOND
     1     1     2    1
     2     2     3    1
     3     3     4    2
     4     3     5   am
     5     5     6    1
     6     6     7    2
     7     7     8    1
     8     8     9    2
     9     9    10    1
    10    10    11    2
    11    11    12    1
    12    12    13    2
    13    13    14    1
    14    14    15    1
    15    15    16    1
    16    16    17    1
    17    17    18    2
    18    18    19    1
    19    19    20    2
    20    20    21    1
    21    21    22    2
    22    15    23    1
    23    23    24   am
    24    24    25    2
    25    24    26    1
    26    26    27    2
    27    27    28    1
    28    28    29    2
    29    29    30    1
    30    30    31    1
    31    30    32    2
    32    32    33    1
    33    33    34    2
    34    34    35    1
    35    35    36    1
    36    36    37    2
    37    37    38    1
    38    38    39    2
    39    14    40    2
    40     9    41    1
    41    41    42    2
    42    42     6    1
    43    40    10    1
    44    22    17    1
    45    34    28    1
    46    39    35    1
@<TRIPOS>SUBSTRUCTURE
     1 RES1        1 GROUP             0 ****  ****    0  
@<TRIPOS>MOLECULE
ligand_53
    42    46     1     0     0
SMALL
NO_CHARGES
****
Generated from the CSD

@<TRIPOS>ATOM
     1 C1      -8.8740  10.1452 -38.8241   C.3       1 RES1   0.0000
     2 O2      -8.7102   9.4667 -37.5203   O.3       1 RES1   0.0000
     3 C3      -7.6895   9.8933 -36.7668   C.2       1 RES1   0.0000
     4 O4      -6.9120  10.7788 -37.0805   O.2       1 RES1   0.0000
     5 N5      -7.6484   9.1647 -35.6203   N.am      1 RES1   0.0000
     6 C6      -6.7022   9.2885 -34.5743   C.2       1 RES1   0.0000
     7 C7      -5.6320  10.1948 -34.5465   C.2       1 RES1   0.0000
     8 C8      -4.7837  10.2432 -33.4503   C.2       1 RES1   0.0000
     9 C9      -4.9917   9.4290 -32.3288   C.2       1 RES1   0.0000
    10 C10     -4.1339   9.5411 -31.1150   C.2       1 RES1   0.0000
    11 C11     -3.0919  10.4715 -31.0214   C.2       1 RES1   0.0000
    12 C12     -2.3128  10.4893 -29.8799   C.2       1 RES1   0.0000
    13 N13     -2.5156   9.6812 -28.8267   N.2       1 RES1   0.0000
    14 C14     -3.5196   8.7947 -28.9221   C.2       1 RES1   0.0000
    15 C15     -3.7602   7.9318 -27.7260   C.3       1 RES1   0.0000
    16 C16     -4.4660   6.6263 -28.1102   C.3       1 RES1   0.0000
    17 C17     -4.5337   5.5757 -27.0156   C.2       1 RES1   0.0000
    18 C18     -3.4958   4.6259 -26.8924   C.2       1 RES1   0.0000
    19 C19     -3.5404   3.6400 -25.8953   C.2       1 RES1   0.0000
    20 C20     -4.6172   3.6073 -24.9919   C.2       1 RES1   0.0000
    21 C21     -5.6309   4.5437 -25.0978   C.2       1 RES1   0.0000
    22 C22     -5.6055   5.5051 -26.1097   C.2       1 RES1   0.0000
    23 N23     -4.4720   8.6178 -26.6488   N.am      1 RES1   0.0000
    24 C24     -3.7418   9.4345 -25.7908   C.2       1 RES1   0.0000
    25 O25     -2.5154   9.5990 -25.9084   O.2       1 RES1   0.0000
    26 C26     -4.4902  10.2243 -24.8179   C.2       1 RES1   0.0000
    27 C27     -4.0173  11.1333 -24.0072   C.2       1 RES1   0.0000
    28 C28     -4.8436  11.8800 -23.0623   C.2       1 RES1   0.0000
    29 C29     -6.1947  11.5178 -22.9524   C.2       1 RES1   0.0000
    30 C30     -7.0109  12.1673 -22.0537   C.2       1 RES1   0.0000
    31 Cl31    -8.6921  11.7338 -21.9668   Cl        1 RES1   0.0000
    32 C32     -6.5358  13.1653 -21.2346   C.2       1 RES1   0.0000
    33 C33     -5.2031  13.5382 -21.3250   C.2       1 RES1   0.0000
    34 C34     -4.3508  12.9101 -22.2418   C.2       1 RES1   0.0000
    35 N35     -3.0007  13.3786 -22.3756   N.pl3     1 RES1   0.0000
    36 C36     -2.2274  13.5824 -23.4457   C.2       1 RES1   0.0000
    37 N37     -1.0492  13.9980 -23.0680   N.2       1 RES1   0.0000
    38 N38     -1.1000  14.0518 -21.7152   N.2       1 RES1   0.0000
    39 N39     -2.2690  13.6914 -21.2756   N.2       1 RES1   0.0000
    40 C40     -4.3205   8.6891 -30.0247   C.2       1 RES1   0.0000
    41 C41     -6.0650   8.5287 -32.3737   C.2       1 RES1   0.0000
    42 C42     -6.8937   8.4399 -33.4809   C.2       1 RES1   0.0000
@<TRIPOS>BOND
     1     1     2    1
     2     2     3    1
     3     3     4    2
     4     3     5   am
     5     5     6    1
     6     6     7    2
     7     7     8    1
     8     8     9    2
     9     9    10    1
    10    10    11    2
    11    11    12    1
    12    12    13    2
    13    13    14    1
    14    14    15    1
    15    15    16    1
    16    16    17    1
    17    17    18    2
    18    18    19    1
    19    19    20    2
    20    20    21    1
    21    21    22    2
    22    15    23    1
    23    23    24   am
    24    24    25    2
    25    24    26    1
    26    26    27    2
    27    27    28    1
    28    28    29    2
    29    29    30    1
    30    30    31    1
    31    30    32    2
    32    32    33    1
    33    33    34    2
    34    34    35    1
    35    35    36    1
    36    36    37    2
    37    37    38    1
    38    38    39    2
    39    14    40    2
    40     9    41    1
    41    41    42    2
    42    42     6    1
    43    40    10    1
    44    22    17    1
    45    34    28    1
    46    39    35    1
@<TRIPOS>SUBSTRUCTURE
     1 RES1        1 GROUP             0 ****  ****    0  
@<TRIPOS>MOLECULE
ligand_54
    42    46     1     0     0
SMALL
NO_CHARGES
****
Generated from the CSD

@<TRIPOS>ATOM
     1 C1      -4.8034  27.9841 -29.9865   C.3       1 RES1   0.0000
     2 O2      -5.9828  27.0919 -30.0032   O.3       1 RES1   0.0000
     3 C3      -5.7309  25.7912 -29.8124   C.2       1 RES1   0.0000
     4 O4      -4.6236  25.3133 -29.6316   O.2       1 RES1   0.0000
     5 N5      -6.8977  25.0978 -29.8807   N.am      1 RES1   0.0000
     6 C6      -7.0557  23.6961 -29.7578   C.2       1 RES1   0.0000
     7 C7      -6.0198  22.7749 -29.5444   C.2       1 RES1   0.0000
     8 C8      -6.3010  21.4232 -29.4118   C.2       1 RES1   0.0000
     9 C9      -7.6177  20.9444 -29.4419   C.2       1 RES1   0.0000
    10 C10     -7.9284  19.5047 -29.2126   C.2       1 RES1   0.0000
    11 C11     -9.2365  19.0077 -29.2571   C.2       1 RES1   0.0000
    12 C12     -9.4514  17.6680 -28.9938   C.2       1 RES1   0.0000
    13 N13     -8.4675  16.7941 -28.7264   N.2       1 RES1   0.0000
    14 C14     -7.2152  17.2773 -28.6898   C.2       1 RES1   0.0000
    15 C15     -6.1273  16.2853 -28.4334   C.3       1 RES1   0.0000
    16 C16     -5.8438  15.4320 -29.6750   C.3       1 RES1   0.0000
    17 C17     -4.5952  14.5705 -29.6021   C.2       1 RES1   0.0000
    18 C18     -3.3597  15.0901 -30.0476   C.2       1 RES1   0.0000
    19 C19     -2.1944  14.3104 -29.9990   C.2       1 RES1   0.0000
    20 C20     -2.2477  13.0046 -29.4806   C.2       1 RES1   0.0000
    21 C21     -3.4522  12.4938 -29.0291   C.2       1 RES1   0.0000
    22 C22     -4.6195  13.2556 -29.1071   C.2       1 RES1   0.0000
    23 N23     -6.3715  15.4455 -27.2618   N.am      1 RES1   0.0000
    24 C24     -5.2792  15.0419 -26.5001   C.2       1 RES1   0.0000
    25 O25     -4.1135  15.3729 -26.7767   O.2       1 RES1   0.0000
    26 C26     -5.5552  14.3253 -25.2589   C.2       1 RES1   0.0000
    27 C27     -4.6922  13.9640 -24.3467   C.2       1 RES1   0.0000
    28 C28     -5.0588  13.2476 -23.1280   C.2       1 RES1   0.0000
    29 C29     -6.4164  12.9538 -22.9297   C.2       1 RES1   0.0000
    30 C30     -6.8133  12.2520 -21.8137   C.2       1 RES1   0.0000
    31 Cl31    -8.5051  11.9390 -21.5649   Cl        1 RES1   0.0000
    32 C32     -5.9077  11.8074 -20.8782   C.2       1 RES1   0.0000
    33 C33     -4.5605  12.0849 -21.0550   C.2       1 RES1   0.0000
    34 C34     -4.1260  12.8126 -22.1700   C.2       1 RES1   0.0000
    35 N35     -2.7380  13.1616 -22.2794   N.pl3     1 RES1   0.0000
    36 C36     -1.9020  13.1855 -23.3211   C.2       1 RES1   0.0000
    37 N37     -0.7132  13.5525 -22.9266   N.2       1 RES1   0.0000
    38 N38     -0.8224  13.7621 -21.5925   N.2       1 RES1   0.0000
    39 N39     -2.0356  13.5412 -21.1813   N.2       1 RES1   0.0000
    40 C40     -6.9155  18.5927 -28.9093   C.2       1 RES1   0.0000
    41 C41     -8.6404  21.8783 -29.6569   C.2       1 RES1   0.0000
    42 C42     -8.3691  23.2257 -29.8345   C.2       1 RES1   0.0000
@<TRIPOS>BOND
     1     1     2    1
     2     2     3    1
     3     3     4    2
     4     3     5   am
     5     5     6    1
     6     6     7    2
     7     7     8    1
     8     8     9    2
     9     9    10    1
    10    10    11    2
    11    11    12    1
    12    12    13    2
    13    13    14    1
    14    14    15    1
    15    15    16    1
    16    16    17    1
    17    17    18    2
    18    18    19    1
    19    19    20    2
    20    20    21    1
    21    21    22    2
    22    15    23    1
    23    23    24   am
    24    24    25    2
    25    24    26    1
    26    26    27    2
    27    27    28    1
    28    28    29    2
    29    29    30    1
    30    30    31    1
    31    30    32    2
    32    32    33    1
    33    33    34    2
    34    34    35    1
    35    35    36    1
    36    36    37    2
    37    37    38    1
    38    38    39    2
    39    14    40    2
    40     9    41    1
    41    41    42    2
    42    42     6    1
    43    40    10    1
    44    22    17    1
    45    34    28    1
    46    39    35    1
@<TRIPOS>SUBSTRUCTURE
     1 RES1        1 GROUP             0 ****  ****    0  
@<TRIPOS>MOLECULE
ligand_55
    42    46     1     0     0
SMALL
NO_CHARGES
****
Generated from the CSD

@<TRIPOS>ATOM
     1 C1      -7.3175  28.3339 -31.1966   C.3       1 RES1   0.0000
     2 O2      -6.5988  27.0916 -30.8397   O.3       1 RES1   0.0000
     3 C3      -7.3649  26.0103 -30.6510   C.2       1 RES1   0.0000
     4 O4      -8.5799  25.9886 -30.7523   O.2       1 RES1   0.0000
     5 N5      -6.5743  24.9604 -30.3048   N.am      1 RES1   0.0000
     6 C6      -7.0024  23.6468 -29.9952   C.2       1 RES1   0.0000
     7 C7      -8.3330  23.2030 -29.9911   C.2       1 RES1   0.0000
     8 C8      -8.6290  21.8801 -29.6976   C.2       1 RES1   0.0000
     9 C9      -7.6177  20.9444 -29.4419   C.2       1 RES1   0.0000
    10 C10     -7.9284  19.5047 -29.2126   C.2       1 RES1   0.0000
    11 C11     -9.2365  19.0077 -29.2571   C.2       1 RES1   0.0000
    12 C12     -9.4514  17.6680 -28.9938   C.2       1 RES1   0.0000
    13 N13     -8.4675  16.7941 -28.7264   N.2       1 RES1   0.0000
    14 C14     -7.2152  17.2773 -28.6898   C.2       1 RES1   0.0000
    15 C15     -6.1273  16.2853 -28.4334   C.3       1 RES1   0.0000
    16 C16     -5.8438  15.4320 -29.6750   C.3       1 RES1   0.0000
    17 C17     -4.5952  14.5705 -29.6021   C.2       1 RES1   0.0000
    18 C18     -3.3597  15.0901 -30.0476   C.2       1 RES1   0.0000
    19 C19     -2.1944  14.3104 -29.9990   C.2       1 RES1   0.0000
    20 C20     -2.2477  13.0046 -29.4806   C.2       1 RES1   0.0000
    21 C21     -3.4523  12.4938 -29.0291   C.2       1 RES1   0.0000
    22 C22     -4.6195  13.2556 -29.1071   C.2       1 RES1   0.0000
    23 N23     -6.3715  15.4455 -27.2618   N.am      1 RES1   0.0000
    24 C24     -5.2792  15.0419 -26.5001   C.2       1 RES1   0.0000
    25 O25     -4.1135  15.3729 -26.7767   O.2       1 RES1   0.0000
    26 C26     -5.5552  14.3253 -25.2589   C.2       1 RES1   0.0000
    27 C27     -4.6923  13.9641 -24.3467   C.2       1 RES1   0.0000
    28 C28     -5.0589  13.2476 -23.1280   C.2       1 RES1   0.0000
    29 C29     -6.4164  12.9538 -22.9297   C.2       1 RES1   0.0000
    30 C30     -6.8133  12.2520 -21.8137   C.2       1 RES1   0.0000
    31 Cl31    -8.5051  11.9390 -21.5649   Cl        1 RES1   0.0000
    32 C32     -5.9078  11.8074 -20.8782   C.2       1 RES1   0.0000
    33 C33     -4.5605  12.0849 -21.0550   C.2       1 RES1   0.0000
    34 C34     -4.1260  12.8126 -22.1700   C.2       1 RES1   0.0000
    35 N35     -2.7380  13.1616 -22.2793   N.pl3     1 RES1   0.0000
    36 C36     -1.9020  13.1856 -23.3211   C.2       1 RES1   0.0000
    37 N37     -0.7133  13.5526 -22.9265   N.2       1 RES1   0.0000
    38 N38     -0.8224  13.7621 -21.5925   N.2       1 RES1   0.0000
    39 N39     -2.0356  13.5412 -21.1813   N.2       1 RES1   0.0000
    40 C40     -6.9155  18.5927 -28.9093   C.2       1 RES1   0.0000
    41 C41     -6.2939  21.4050 -29.4491   C.2       1 RES1   0.0000
    42 C42     -5.9876  22.7335 -29.6979   C.2       1 RES1   0.0000
@<TRIPOS>BOND
     1     1     2    1
     2     2     3    1
     3     3     4    2
     4     3     5   am
     5     5     6    1
     6     6     7    2
     7     7     8    1
     8     8     9    2
     9     9    10    1
    10    10    11    2
    11    11    12    1
    12    12    13    2
    13    13    14    1
    14    14    15    1
    15    15    16    1
    16    16    17    1
    17    17    18    2
    18    18    19    1
    19    19    20    2
    20    20    21    1
    21    21    22    2
    22    15    23    1
    23    23    24   am
    24    24    25    2
    25    24    26    1
    26    26    27    2
    27    27    28    1
    28    28    29    2
    29    29    30    1
    30    30    31    1
    31    30    32    2
    32    32    33    1
    33    33    34    2
    34    34    35    1
    35    35    36    1
    36    36    37    2
    37    37    38    1
    38    38    39    2
    39    14    40    2
    40     9    41    1
    41    41    42    2
    42    42     6    1
    43    40    10    1
    44    22    17    1
    45    34    28    1
    46    39    35    1
@<TRIPOS>SUBSTRUCTURE
     1 RES1        1 GROUP             0 ****  ****    0  
@<TRIPOS>MOLECULE
ligand_56
    42    46     1     0     0
SMALL
NO_CHARGES
****
Generated from the CSD

@<TRIPOS>ATOM
     1 C1       8.3341  12.4171 -17.6679   C.3       1 RES1   0.0000
     2 O2       7.8309  11.1983 -18.3376   O.3       1 RES1   0.0000
     3 C3       6.5493  10.8922 -18.1019   C.2       1 RES1   0.0000
     4 O4       5.7964  11.5369 -17.3915   O.2       1 RES1   0.0000
     5 N5       6.2394   9.7422 -18.7564   N.am      1 RES1   0.0000
     6 C6       4.9925   9.0714 -18.7412   C.2       1 RES1   0.0000
     7 C7       3.8528   9.4858 -18.0364   C.2       1 RES1   0.0000
     8 C8       2.6745   8.7589 -18.1209   C.2       1 RES1   0.0000
     9 C9       2.5723   7.6253 -18.9383   C.2       1 RES1   0.0000
    10 C10      1.2834   6.8940 -19.0982   C.2       1 RES1   0.0000
    11 C11      1.1691   5.7499 -19.8970   C.2       1 RES1   0.0000
    12 C12     -0.0684   5.1487 -20.0297   C.2       1 RES1   0.0000
    13 N13     -1.1768   5.5797 -19.4059   N.2       1 RES1   0.0000
    14 C14     -1.0583   6.6748 -18.6381   C.2       1 RES1   0.0000
    15 C15     -2.2901   7.1172 -17.9168   C.3       1 RES1   0.0000
    16 C16     -3.0079   5.9341 -17.2570   C.3       1 RES1   0.0000
    17 C17     -4.1252   6.3033 -16.2969   C.2       1 RES1   0.0000
    18 C18     -3.8352   6.5014 -14.9289   C.2       1 RES1   0.0000
    19 C19     -4.8518   6.8338 -14.0211   C.2       1 RES1   0.0000
    20 C20     -6.1718   6.9950 -14.4775   C.2       1 RES1   0.0000
    21 C21     -6.4609   6.8163 -15.8192   C.2       1 RES1   0.0000
    22 C22     -5.4571   6.4529 -16.7188   C.2       1 RES1   0.0000
    23 N23     -3.2074   7.8893 -18.7535   N.am      1 RES1   0.0000
    24 C24     -2.9487   9.2436 -18.9403   C.2       1 RES1   0.0000
    25 O25     -1.9725   9.8143 -18.4242   O.2       1 RES1   0.0000
    26 C26     -3.7877   9.9613 -19.8949   C.2       1 RES1   0.0000
    27 C27     -3.6426  11.1938 -20.3036   C.2       1 RES1   0.0000
    28 C28     -4.5332  11.8342 -21.2679   C.2       1 RES1   0.0000
    29 C29     -5.8835  11.4534 -21.2587   C.2       1 RES1   0.0000
    30 C30     -6.7730  12.0489 -22.1246   C.2       1 RES1   0.0000
    31 Cl31    -8.4318  11.5291 -22.1279   Cl        1 RES1   0.0000
    32 C32     -6.3800  13.0324 -23.0026   C.2       1 RES1   0.0000
    33 C33     -5.0504  13.4258 -23.0276   C.2       1 RES1   0.0000
    34 C34     -4.1167  12.8268 -22.1726   C.2       1 RES1   0.0000
    35 N35     -2.7328  13.1906 -22.2841   N.pl3     1 RES1   0.0000
    36 C36     -1.9059  13.2500 -23.3317   C.2       1 RES1   0.0000
    37 N37     -0.7170  13.6164 -22.9373   N.2       1 RES1   0.0000
    38 N38     -0.8165  13.7889 -21.5972   N.2       1 RES1   0.0000
    39 N39     -2.0242  13.5465 -21.1820   N.2       1 RES1   0.0000
    40 C40      0.1198   7.3480 -18.4740   C.2       1 RES1   0.0000
    41 C41      3.7208   7.2248 -19.6347   C.2       1 RES1   0.0000
    42 C42      4.9163   7.9171 -19.5248   C.2       1 RES1   0.0000
@<TRIPOS>BOND
     1     1     2    1
     2     2     3    1
     3     3     4    2
     4     3     5   am
     5     5     6    1
     6     6     7    2
     7     7     8    1
     8     8     9    2
     9     9    10    1
    10    10    11    2
    11    11    12    1
    12    12    13    2
    13    13    14    1
    14    14    15    1
    15    15    16    1
    16    16    17    1
    17    17    18    2
    18    18    19    1
    19    19    20    2
    20    20    21    1
    21    21    22    2
    22    15    23    1
    23    23    24   am
    24    24    25    2
    25    24    26    1
    26    26    27    2
    27    27    28    1
    28    28    29    2
    29    29    30    1
    30    30    31    1
    31    30    32    2
    32    32    33    1
    33    33    34    2
    34    34    35    1
    35    35    36    1
    36    36    37    2
    37    37    38    1
    38    38    39    2
    39    14    40    2
    40     9    41    1
    41    41    42    2
    42    42     6    1
    43    40    10    1
    44    22    17    1
    45    34    28    1
    46    39    35    1
@<TRIPOS>SUBSTRUCTURE
     1 RES1        1 GROUP             0 ****  ****    0  
@<TRIPOS>MOLECULE
ligand_57
    42    46     1     0     0
SMALL
NO_CHARGES
****
Generated from the CSD

@<TRIPOS>ATOM
     1 C1       2.9673  26.1010 -15.6882   C.3       1 RES1   0.0000
     2 O2       3.0988  24.6339 -15.5563   O.3       1 RES1   0.0000
     3 C3       1.9643  23.9347 -15.6814   C.2       1 RES1   0.0000
     4 O4       0.8648  24.4188 -15.8908   O.2       1 RES1   0.0000
     5 N5       2.2351  22.6139 -15.5105   N.am      1 RES1   0.0000
     6 C6       1.3019  21.5494 -15.5415   C.2       1 RES1   0.0000
     7 C7       1.6076  20.1922 -15.3625   C.2       1 RES1   0.0000
     8 C8       0.6006  19.2387 -15.3862   C.2       1 RES1   0.0000
     9 C9      -0.7442  19.5998 -15.5435   C.2       1 RES1   0.0000
    10 C10     -1.8353  18.5862 -15.4818   C.2       1 RES1   0.0000
    11 C11     -1.7494  17.4462 -14.6736   C.2       1 RES1   0.0000
    12 C12     -2.7836  16.5296 -14.6995   C.2       1 RES1   0.0000
    13 N13     -3.8959  16.6818 -15.4364   N.2       1 RES1   0.0000
    14 C14     -3.9729  17.7798 -16.2054   C.2       1 RES1   0.0000
    15 C15     -5.2345  17.9568 -16.9867   C.3       1 RES1   0.0000
    16 C16     -6.3903  18.4115 -16.0882   C.3       1 RES1   0.0000
    17 C17     -7.6454  18.8581 -16.8173   C.2       1 RES1   0.0000
    18 C18     -7.7961  20.2135 -17.1850   C.2       1 RES1   0.0000
    19 C19     -8.9505  20.6519 -17.8508   C.2       1 RES1   0.0000
    20 C20     -9.9613  19.7311 -18.1782   C.2       1 RES1   0.0000
    21 C21     -9.8142  18.3988 -17.8335   C.2       1 RES1   0.0000
    22 C22     -8.6816  17.9661 -17.1416   C.2       1 RES1   0.0000
    23 N23     -5.6058  16.7763 -17.7653   N.am      1 RES1   0.0000
    24 C24     -4.9875  16.5761 -18.9956   C.2       1 RES1   0.0000
    25 O25     -4.1375  17.3602 -19.4511   O.2       1 RES1   0.0000
    26 C26     -5.2607  15.3200 -19.6870   C.2       1 RES1   0.0000
    27 C27     -4.6997  14.8836 -20.7834   C.2       1 RES1   0.0000
    28 C28     -5.0347  13.6067 -21.4081   C.2       1 RES1   0.0000
    29 C29     -6.3534  13.1454 -21.2783   C.2       1 RES1   0.0000
    30 C30     -6.7315  11.9636 -21.8749   C.2       1 RES1   0.0000
    31 Cl31    -8.3580  11.3878 -21.6627   Cl        1 RES1   0.0000
    32 C32     -5.8503  11.2145 -22.6199   C.2       1 RES1   0.0000
    33 C33     -4.5422  11.6525 -22.7630   C.2       1 RES1   0.0000
    34 C34     -4.1208  12.8409 -22.1534   C.2       1 RES1   0.0000
    35 N35     -2.7399  13.2217 -22.2443   N.pl3     1 RES1   0.0000
    36 C36     -1.9179  13.3600 -23.2883   C.2       1 RES1   0.0000
    37 N37     -0.7299  13.7068 -22.8737   N.2       1 RES1   0.0000
    38 N38     -0.8250  13.7846 -21.5245   N.2       1 RES1   0.0000
    39 N39     -2.0292  13.5050 -21.1228   N.2       1 RES1   0.0000
    40 C40     -2.9848  18.7224 -16.2627   C.2       1 RES1   0.0000
    41 C41     -1.0317  20.9600 -15.7220   C.2       1 RES1   0.0000
    42 C42     -0.0305  21.9180 -15.7440   C.2       1 RES1   0.0000
@<TRIPOS>BOND
     1     1     2    1
     2     2     3    1
     3     3     4    2
     4     3     5   am
     5     5     6    1
     6     6     7    2
     7     7     8    1
     8     8     9    2
     9     9    10    1
    10    10    11    2
    11    11    12    1
    12    12    13    2
    13    13    14    1
    14    14    15    1
    15    15    16    1
    16    16    17    1
    17    17    18    2
    18    18    19    1
    19    19    20    2
    20    20    21    1
    21    21    22    2
    22    15    23    1
    23    23    24   am
    24    24    25    2
    25    24    26    1
    26    26    27    2
    27    27    28    1
    28    28    29    2
    29    29    30    1
    30    30    31    1
    31    30    32    2
    32    32    33    1
    33    33    34    2
    34    34    35    1
    35    35    36    1
    36    36    37    2
    37    37    38    1
    38    38    39    2
    39    14    40    2
    40     9    41    1
    41    41    42    2
    42    42     6    1
    43    40    10    1
    44    22    17    1
    45    34    28    1
    46    39    35    1
@<TRIPOS>SUBSTRUCTURE
     1 RES1        1 GROUP             0 ****  ****    0  
@<TRIPOS>MOLECULE
ligand_58
    42    46     1     0     0
SMALL
NO_CHARGES
****
Generated from the CSD

@<TRIPOS>ATOM
     1 C1       6.0029  22.8153 -15.9901   C.3       1 RES1   0.0000
     2 O2       4.5436  23.0488 -16.0470   O.3       1 RES1   0.0000
     3 C3       3.7738  21.9789 -15.8142   C.2       1 RES1   0.0000
     4 O4       4.1898  20.8597 -15.5661   O.2       1 RES1   0.0000
     5 N5       2.4679  22.3380 -15.9265   N.am      1 RES1   0.0000
     6 C6       1.3432  21.4905 -15.7791   C.2       1 RES1   0.0000
     7 C7       0.0031  21.8866 -15.8997   C.2       1 RES1   0.0000
     8 C8      -1.0170  20.9570 -15.7614   C.2       1 RES1   0.0000
     9 C9      -0.7442  19.5998 -15.5435   C.2       1 RES1   0.0000
    10 C10     -1.8353  18.5862 -15.4818   C.2       1 RES1   0.0000
    11 C11     -1.7494  17.4462 -14.6736   C.2       1 RES1   0.0000
    12 C12     -2.7836  16.5296 -14.6995   C.2       1 RES1   0.0000
    13 N13     -3.8959  16.6818 -15.4364   N.2       1 RES1   0.0000
    14 C14     -3.9729  17.7798 -16.2054   C.2       1 RES1   0.0000
    15 C15     -5.2345  17.9568 -16.9867   C.3       1 RES1   0.0000
    16 C16     -6.3903  18.4115 -16.0882   C.3       1 RES1   0.0000
    17 C17     -7.6454  18.8581 -16.8173   C.2       1 RES1   0.0000
    18 C18     -7.7961  20.2135 -17.1850   C.2       1 RES1   0.0000
    19 C19     -8.9505  20.6519 -17.8508   C.2       1 RES1   0.0000
    20 C20     -9.9613  19.7311 -18.1782   C.2       1 RES1   0.0000
    21 C21     -9.8142  18.3988 -17.8335   C.2       1 RES1   0.0000
    22 C22     -8.6816  17.9661 -17.1416   C.2       1 RES1   0.0000
    23 N23     -5.6058  16.7763 -17.7653   N.am      1 RES1   0.0000
    24 C24     -4.9875  16.5761 -18.9956   C.2       1 RES1   0.0000
    25 O25     -4.1375  17.3602 -19.4511   O.2       1 RES1   0.0000
    26 C26     -5.2607  15.3200 -19.6870   C.2       1 RES1   0.0000
    27 C27     -4.6997  14.8836 -20.7834   C.2       1 RES1   0.0000
    28 C28     -5.0347  13.6067 -21.4081   C.2       1 RES1   0.0000
    29 C29     -6.3534  13.1454 -21.2783   C.2       1 RES1   0.0000
    30 C30     -6.7315  11.9636 -21.8749   C.2       1 RES1   0.0000
    31 Cl31    -8.3580  11.3878 -21.6627   Cl        1 RES1   0.0000
    32 C32     -5.8503  11.2145 -22.6199   C.2       1 RES1   0.0000
    33 C33     -4.5422  11.6525 -22.7630   C.2       1 RES1   0.0000
    34 C34     -4.1208  12.8409 -22.1534   C.2       1 RES1   0.0000
    35 N35     -2.7399  13.2217 -22.2443   N.pl3     1 RES1   0.0000
    36 C36     -1.9179  13.3600 -23.2883   C.2       1 RES1   0.0000
    37 N37     -0.7299  13.7068 -22.8737   N.2       1 RES1   0.0000
    38 N38     -0.8250  13.7846 -21.5245   N.2       1 RES1   0.0000
    39 N39     -2.0292  13.5050 -21.1228   N.2       1 RES1   0.0000
    40 C40     -2.9848  18.7224 -16.2627   C.2       1 RES1   0.0000
    41 C41      0.6002  19.2216 -15.4247   C.2       1 RES1   0.0000
    42 C42      1.6270  20.1477 -15.5173   C.2       1 RES1   0.0000
@<TRIPOS>BOND
     1     1     2    1
     2     2     3    1
     3     3     4    2
     4     3     5   am
     5     5     6    1
     6     6     7    2
     7     7     8    1
     8     8     9    2
     9     9    10    1
    10    10    11    2
    11    11    12    1
    12    12    13    2
    13    13    14    1
    14    14    15    1
    15    15    16    1
    16    16    17    1
    17    17    18    2
    18    18    19    1
    19    19    20    2
    20    20    21    1
    21    21    22    2
    22    15    23    1
    23    23    24   am
    24    24    25    2
    25    24    26    1
    26    26    27    2
    27    27    28    1
    28    28    29    2
    29    29    30    1
    30    30    31    1
    31    30    32    2
    32    32    33    1
    33    33    34    2
    34    34    35    1
    35    35    36    1
    36    36    37    2
    37    37    38    1
    38    38    39    2
    39    14    40    2
    40     9    41    1
    41    41    42    2
    42    42     6    1
    43    40    10    1
    44    22    17    1
    45    34    28    1
    46    39    35    1
@<TRIPOS>SUBSTRUCTURE
     1 RES1        1 GROUP             0 ****  ****    0  
@<TRIPOS>MOLECULE
ligand_59
    42    46     1     0     0
SMALL
NO_CHARGES
****
Generated from the CSD

@<TRIPOS>ATOM
     1 C1      -0.1633  22.6111  -8.7482   C.3       1 RES1   0.0000
     2 O2      -0.0974  22.1764 -10.1602   O.3       1 RES1   0.0000
     3 C3      -1.2654  21.8388 -10.7200   C.2       1 RES1   0.0000
     4 O4      -2.3453  21.8671 -10.1541   O.2       1 RES1   0.0000
     5 N5      -1.0455  21.4378 -11.9998   N.am      1 RES1   0.0000
     6 C6      -2.0185  20.9775 -12.9197   C.2       1 RES1   0.0000
     7 C7      -1.7654  20.5694 -14.2376   C.2       1 RES1   0.0000
     8 C8      -2.7997  20.1094 -15.0390   C.2       1 RES1   0.0000
     9 C9      -4.1082  19.9967 -14.5503   C.2       1 RES1   0.0000
    10 C10     -5.2033  19.4210 -15.3816   C.2       1 RES1   0.0000
    11 C11     -6.2670  18.7038 -14.8210   C.2       1 RES1   0.0000
    12 C12     -7.2245  18.1645 -15.6594   C.2       1 RES1   0.0000
    13 N13     -7.2164  18.3151 -16.9937   N.2       1 RES1   0.0000
    14 C14     -6.1955  19.0079 -17.5236   C.2       1 RES1   0.0000
    15 C15     -6.2229  19.2035 -19.0049   C.3       1 RES1   0.0000
    16 C16     -7.2535  20.2635 -19.4107   C.3       1 RES1   0.0000
    17 C17     -7.1876  20.7153 -20.8591   C.2       1 RES1   0.0000
    18 C18     -6.3685  21.8099 -21.2139   C.2       1 RES1   0.0000
    19 C19     -6.2982  22.2517 -22.5435   C.2       1 RES1   0.0000
    20 C20     -7.0319  21.5862 -23.5414   C.2       1 RES1   0.0000
    21 C21     -7.8257  20.5040 -23.2033   C.2       1 RES1   0.0000
    22 C22     -7.9232  20.0831 -21.8758   C.2       1 RES1   0.0000
    23 N23     -6.4228  17.9622 -19.7510   N.am      1 RES1   0.0000
    24 C24     -5.3204  17.1440 -19.9779   C.2       1 RES1   0.0000
    25 O25     -4.1814  17.4305 -19.5712   O.2       1 RES1   0.0000
    26 C26     -5.5659  15.8430 -20.5923   C.2       1 RES1   0.0000
    27 C27     -4.6997  14.8836 -20.7834   C.2       1 RES1   0.0000
    28 C28     -5.0347  13.6067 -21.4081   C.2       1 RES1   0.0000
    29 C29     -6.3483  13.1360 -21.2618   C.2       1 RES1   0.0000
    30 C30     -6.7267  11.9538 -21.8575   C.2       1 RES1   0.0000
    31 Cl31    -8.3462  11.3662 -21.6249   Cl        1 RES1   0.0000
    32 C32     -5.8508  11.2134 -22.6173   C.2       1 RES1   0.0000
    33 C33     -4.5478  11.6608 -22.7768   C.2       1 RES1   0.0000
    34 C34     -4.1261  12.8498 -22.1688   C.2       1 RES1   0.0000
    35 N35     -2.7492  13.2403 -22.2773   N.pl3     1 RES1   0.0000
    36 C36     -1.9492  13.4105 -23.3336   C.2       1 RES1   0.0000
    37 N37     -0.7547  13.7526 -22.9340   N.2       1 RES1   0.0000
    38 N38     -0.8228  13.7943 -21.5815   N.2       1 RES1   0.0000
    39 N39     -2.0173  13.4977 -21.1632   N.2       1 RES1   0.0000
    40 C40     -5.1912  19.5505 -16.7718   C.2       1 RES1   0.0000
    41 C41     -4.3436  20.4097 -13.2318   C.2       1 RES1   0.0000
    42 C42     -3.3273  20.9121 -12.4347   C.2       1 RES1   0.0000
@<TRIPOS>BOND
     1     1     2    1
     2     2     3    1
     3     3     4    2
     4     3     5   am
     5     5     6    1
     6     6     7    2
     7     7     8    1
     8     8     9    2
     9     9    10    1
    10    10    11    2
    11    11    12    1
    12    12    13    2
    13    13    14    1
    14    14    15    1
    15    15    16    1
    16    16    17    1
    17    17    18    2
    18    18    19    1
    19    19    20    2
    20    20    21    1
    21    21    22    2
    22    15    23    1
    23    23    24   am
    24    24    25    2
    25    24    26    1
    26    26    27    2
    27    27    28    1
    28    28    29    2
    29    29    30    1
    30    30    31    1
    31    30    32    2
    32    32    33    1
    33    33    34    2
    34    34    35    1
    35    35    36    1
    36    36    37    2
    37    37    38    1
    38    38    39    2
    39    14    40    2
    40     9    41    1
    41    41    42    2
    42    42     6    1
    43    40    10    1
    44    22    17    1
    45    34    28    1
    46    39    35    1
@<TRIPOS>SUBSTRUCTURE
     1 RES1        1 GROUP             0 ****  ****    0  
@<TRIPOS>MOLECULE
ligand_60
    42    46     1     0     0
SMALL
NO_CHARGES
****
Generated from the CSD

@<TRIPOS>ATOM
     1 C1       5.9839  18.0932 -28.9241   C.3       1 RES1   0.0000
     2 O2       4.9607  19.0376 -28.4256   O.3       1 RES1   0.0000
     3 C3       3.6961  18.6013 -28.4693   C.2       1 RES1   0.0000
     4 O4       3.3483  17.5077 -28.8819   O.2       1 RES1   0.0000
     5 N5       2.8724  19.5791 -28.0086   N.am      1 RES1   0.0000
     6 C6       1.4605  19.5215 -27.9190   C.2       1 RES1   0.0000
     7 C7       0.6637  18.4312 -28.2983   C.2       1 RES1   0.0000
     8 C8      -0.7130  18.4803 -28.1371   C.2       1 RES1   0.0000
     9 C9      -1.3415  19.5898 -27.5559   C.2       1 RES1   0.0000
    10 C10     -2.8101  19.6086 -27.3019   C.2       1 RES1   0.0000
    11 C11     -3.4555  20.7159 -26.7384   C.2       1 RES1   0.0000
    12 C12     -4.8141  20.6446 -26.4946   C.2       1 RES1   0.0000
    13 N13     -5.5707  19.5776 -26.7987   N.2       1 RES1   0.0000
    14 C14     -4.9454  18.5213 -27.3430   C.2       1 RES1   0.0000
    15 C15     -5.8069  17.3583 -27.7152   C.3       1 RES1   0.0000
    16 C16     -7.0749  17.8125 -28.4474   C.3       1 RES1   0.0000
    17 C17     -7.8917  16.7024 -29.0854   C.2       1 RES1   0.0000
    18 C18     -7.6248  16.3141 -30.4169   C.2       1 RES1   0.0000
    19 C19     -8.3719  15.2979 -31.0310   C.2       1 RES1   0.0000
    20 C20     -9.3835  14.6400 -30.3095   C.2       1 RES1   0.0000
    21 C21     -9.6411  15.0056 -28.9997   C.2       1 RES1   0.0000
    22 C22     -8.9216  16.0391 -28.3971   C.2       1 RES1   0.0000
    23 N23     -6.1340  16.4922 -26.5836   N.am      1 RES1   0.0000
    24 C24     -5.1962  15.5446 -26.1852   C.2       1 RES1   0.0000
    25 O25     -4.0992  15.4108 -26.7541   O.2       1 RES1   0.0000
    26 C26     -5.4780  14.7936 -24.9658   C.2       1 RES1   0.0000
    27 C27     -4.6868  13.9509 -24.3566   C.2       1 RES1   0.0000
    28 C28     -5.0521  13.2413 -23.1335   C.2       1 RES1   0.0000
    29 C29     -6.3968  12.8753 -22.9709   C.2       1 RES1   0.0000
    30 C30     -6.7898  12.1763 -21.8517   C.2       1 RES1   0.0000
    31 Cl31    -8.4687  11.7733 -21.6486   Cl        1 RES1   0.0000
    32 C32     -5.8917  11.8042 -20.8783   C.2       1 RES1   0.0000
    33 C33     -4.5571  12.1539 -21.0193   C.2       1 RES1   0.0000
    34 C34     -4.1280  12.8808 -22.1369   C.2       1 RES1   0.0000
    35 N35     -2.7589  13.3055 -22.2109   N.pl3     1 RES1   0.0000
    36 C36     -1.8802  13.3177 -23.2172   C.2       1 RES1   0.0000
    37 N37     -0.7333  13.7784 -22.7980   N.2       1 RES1   0.0000
    38 N38     -0.9135  14.0600 -21.4851   N.2       1 RES1   0.0000
    39 N39     -2.1290  13.7914 -21.1108   N.2       1 RES1   0.0000
    40 C40     -3.6016  18.4953 -27.5914   C.2       1 RES1   0.0000
    41 C41     -0.5306  20.6706 -27.1836   C.2       1 RES1   0.0000
    42 C42      0.8413  20.6518 -27.3795   C.2       1 RES1   0.0000
@<TRIPOS>BOND
     1     1     2    1
     2     2     3    1
     3     3     4    2
     4     3     5   am
     5     5     6    1
     6     6     7    2
     7     7     8    1
     8     8     9    2
     9     9    10    1
    10    10    11    2
    11    11    12    1
    12    12    13    2
    13    13    14    1
    14    14    15    1
    15    15    16    1
    16    16    17    1
    17    17    18    2
    18    18    19    1
    19    19    20    2
    20    20    21    1
    21    21    22    2
    22    15    23    1
    23    23    24   am
    24    24    25    2
    25    24    26    1
    26    26    27    2
    27    27    28    1
    28    28    29    2
    29    29    30    1
    30    30    31    1
    31    30    32    2
    32    32    33    1
    33    33    34    2
    34    34    35    1
    35    35    36    1
    36    36    37    2
    37    37    38    1
    38    38    39    2
    39    14    40    2
    40     9    41    1
    41    41    42    2
    42    42     6    1
    43    40    10    1
    44    22    17    1
    45    34    28    1
    46    39    35    1
@<TRIPOS>SUBSTRUCTURE
     1 RES1        1 GROUP             0 ****  ****    0  
@<TRIPOS>MOLECULE
ligand_61
    42    46     1     0     0
SMALL
NO_CHARGES
****
Generated from the CSD

@<TRIPOS>ATOM
     1 C1       6.0528  20.8979 -28.7338   C.3       1 RES1   0.0000
     2 O2       4.8985  19.9814 -28.8555   O.3       1 RES1   0.0000
     3 C3       3.7332  20.4489 -28.3916   C.2       1 RES1   0.0000
     4 O4       3.5715  21.5490 -27.8910   O.2       1 RES1   0.0000
     5 N5       2.7786  19.4937 -28.5446   N.am      1 RES1   0.0000
     6 C6       1.4205  19.5869 -28.1551   C.2       1 RES1   0.0000
     7 C7       0.8247  20.6951 -27.5351   C.2       1 RES1   0.0000
     8 C8      -0.5270  20.6809 -27.2245   C.2       1 RES1   0.0000
     9 C9      -1.3415  19.5898 -27.5559   C.2       1 RES1   0.0000
    10 C10     -2.8101  19.6086 -27.3019   C.2       1 RES1   0.0000
    11 C11     -3.4555  20.7159 -26.7384   C.2       1 RES1   0.0000
    12 C12     -4.8141  20.6446 -26.4946   C.2       1 RES1   0.0000
    13 N13     -5.5707  19.5776 -26.7987   N.2       1 RES1   0.0000
    14 C14     -4.9454  18.5213 -27.3430   C.2       1 RES1   0.0000
    15 C15     -5.8069  17.3583 -27.7152   C.3       1 RES1   0.0000
    16 C16     -7.0749  17.8125 -28.4474   C.3       1 RES1   0.0000
    17 C17     -7.8917  16.7024 -29.0854   C.2       1 RES1   0.0000
    18 C18     -7.6248  16.3141 -30.4169   C.2       1 RES1   0.0000
    19 C19     -8.3719  15.2979 -31.0310   C.2       1 RES1   0.0000
    20 C20     -9.3835  14.6400 -30.3095   C.2       1 RES1   0.0000
    21 C21     -9.6411  15.0056 -28.9997   C.2       1 RES1   0.0000
    22 C22     -8.9216  16.0391 -28.3971   C.2       1 RES1   0.0000
    23 N23     -6.1340  16.4922 -26.5836   N.am      1 RES1   0.0000
    24 C24     -5.1962  15.5446 -26.1852   C.2       1 RES1   0.0000
    25 O25     -4.0992  15.4108 -26.7541   O.2       1 RES1   0.0000
    26 C26     -5.4780  14.7936 -24.9658   C.2       1 RES1   0.0000
    27 C27     -4.6868  13.9509 -24.3566   C.2       1 RES1   0.0000
    28 C28     -5.0521  13.2413 -23.1335   C.2       1 RES1   0.0000
    29 C29     -6.3968  12.8753 -22.9709   C.2       1 RES1   0.0000
    30 C30     -6.7898  12.1764 -21.8517   C.2       1 RES1   0.0000
    31 Cl31    -8.4687  11.7734 -21.6486   Cl        1 RES1   0.0000
    32 C32     -5.8917  11.8042 -20.8783   C.2       1 RES1   0.0000
    33 C33     -4.5571  12.1538 -21.0193   C.2       1 RES1   0.0000
    34 C34     -4.1280  12.8808 -22.1369   C.2       1 RES1   0.0000
    35 N35     -2.7589  13.3055 -22.2110   N.pl3     1 RES1   0.0000
    36 C36     -1.8802  13.3176 -23.2172   C.2       1 RES1   0.0000
    37 N37     -0.7333  13.7783 -22.7980   N.2       1 RES1   0.0000
    38 N38     -0.9135  14.0600 -21.4851   N.2       1 RES1   0.0000
    39 N39     -2.1290  13.7914 -21.1109   N.2       1 RES1   0.0000
    40 C40     -3.6016  18.4953 -27.5914   C.2       1 RES1   0.0000
    41 C41     -0.7298  18.4907 -28.1742   C.2       1 RES1   0.0000
    42 C42      0.6281  18.4746 -28.4505   C.2       1 RES1   0.0000
@<TRIPOS>BOND
     1     1     2    1
     2     2     3    1
     3     3     4    2
     4     3     5   am
     5     5     6    1
     6     6     7    2
     7     7     8    1
     8     8     9    2
     9     9    10    1
    10    10    11    2
    11    11    12    1
    12    12    13    2
    13    13    14    1
    14    14    15    1
    15    15    16    1
    16    16    17    1
    17    17    18    2
    18    18    19    1
    19    19    20    2
    20    20    21    1
    21    21    22    2
    22    15    23    1
    23    23    24   am
    24    24    25    2
    25    24    26    1
    26    26    27    2
    27    27    28    1
    28    28    29    2
    29    29    30    1
    30    30    31    1
    31    30    32    2
    32    32    33    1
    33    33    34    2
    34    34    35    1
    35    35    36    1
    36    36    37    2
    37    37    38    1
    38    38    39    2
    39    14    40    2
    40     9    41    1
    41    41    42    2
    42    42     6    1
    43    40    10    1
    44    22    17    1
    45    34    28    1
    46    39    35    1
@<TRIPOS>SUBSTRUCTURE
     1 RES1        1 GROUP             0 ****  ****    0  
@<TRIPOS>MOLECULE
ligand_62
    42    46     1     0     0
SMALL
NO_CHARGES
****
Generated from the CSD

@<TRIPOS>ATOM
     1 C1      -2.2901  26.8183 -26.7524   C.3       1 RES1   0.0000
     2 O2      -1.9431  25.3946 -26.9521   O.3       1 RES1   0.0000
     3 C3      -2.9521  24.5963 -27.3208   C.2       1 RES1   0.0000
     4 O4      -4.1027  24.9603 -27.4963   O.2       1 RES1   0.0000
     5 N5      -2.4914  23.3231 -27.4385   N.am      1 RES1   0.0000
     6 C6      -3.2503  22.1788 -27.7843   C.2       1 RES1   0.0000
     7 C7      -2.7498  20.8737 -27.9004   C.2       1 RES1   0.0000
     8 C8      -3.5986  19.8240 -28.2190   C.2       1 RES1   0.0000
     9 C9      -4.9752  20.0234 -28.3897   C.2       1 RES1   0.0000
    10 C10     -5.9014  18.8840 -28.6456   C.2       1 RES1   0.0000
    11 C11     -7.2762  19.0684 -28.8354   C.2       1 RES1   0.0000
    12 C12     -8.0787  17.9597 -29.0275   C.2       1 RES1   0.0000
    13 N13     -7.6118  16.7015 -29.0770   N.2       1 RES1   0.0000
    14 C14     -6.2917  16.5330 -28.8987   C.2       1 RES1   0.0000
    15 C15     -5.7810  15.1322 -28.9991   C.3       1 RES1   0.0000
    16 C16     -6.3717  14.4065 -30.2135   C.3       1 RES1   0.0000
    17 C17     -5.7327  13.0701 -30.5480   C.2       1 RES1   0.0000
    18 C18     -4.6332  13.0224 -31.4332   C.2       1 RES1   0.0000
    19 C19     -4.0320  11.7989 -31.7648   C.2       1 RES1   0.0000
    20 C20     -4.5115  10.6067 -31.1944   C.2       1 RES1   0.0000
    21 C21     -5.5797  10.6474 -30.3152   C.2       1 RES1   0.0000
    22 C22     -6.2008  11.8596 -30.0094   C.2       1 RES1   0.0000
    23 N23     -5.9740  14.3547 -27.7760   N.am      1 RES1   0.0000
    24 C24     -5.0555  14.5114 -26.7426   C.2       1 RES1   0.0000
    25 O25     -4.0848  15.2835 -26.8236   O.2       1 RES1   0.0000
    26 C26     -5.3469  13.8418 -25.4789   C.2       1 RES1   0.0000
    27 C27     -4.6868  13.9509 -24.3566   C.2       1 RES1   0.0000
    28 C28     -5.0521  13.2413 -23.1335   C.2       1 RES1   0.0000
    29 C29     -6.4082  12.9398 -22.9369   C.2       1 RES1   0.0000
    30 C30     -6.8036  12.2438 -21.8167   C.2       1 RES1   0.0000
    31 Cl31    -8.4940  11.9213 -21.5704   Cl        1 RES1   0.0000
    32 C32     -5.8979  11.8126 -20.8752   C.2       1 RES1   0.0000
    33 C33     -4.5520  12.0979 -21.0503   C.2       1 RES1   0.0000
    34 C34     -4.1191  12.8200 -22.1695   C.2       1 RES1   0.0000
    35 N35     -2.7333  13.1776 -22.2775   N.pl3     1 RES1   0.0000
    36 C36     -1.9132  13.2690 -23.3282   C.2       1 RES1   0.0000
    37 N37     -0.7189  13.6123 -22.9292   N.2       1 RES1   0.0000
    38 N38     -0.8079  13.7365 -21.5830   N.2       1 RES1   0.0000
    39 N39     -2.0145  13.4880 -21.1684   N.2       1 RES1   0.0000
    40 C40     -5.4300  17.5700 -28.6744   C.2       1 RES1   0.0000
    41 C41     -5.4582  21.3338 -28.2709   C.2       1 RES1   0.0000
    42 C42     -4.6139  22.3978 -27.9961   C.2       1 RES1   0.0000
@<TRIPOS>BOND
     1     1     2    1
     2     2     3    1
     3     3     4    2
     4     3     5   am
     5     5     6    1
     6     6     7    2
     7     7     8    1
     8     8     9    2
     9     9    10    1
    10    10    11    2
    11    11    12    1
    12    12    13    2
    13    13    14    1
    14    14    15    1
    15    15    16    1
    16    16    17    1
    17    17    18    2
    18    18    19    1
    19    19    20    2
    20    20    21    1
    21    21    22    2
    22    15    23    1
    23    23    24   am
    24    24    25    2
    25    24    26    1
    26    26    27    2
    27    27    28    1
    28    28    29    2
    29    29    30    1
    30    30    31    1
    31    30    32    2
    32    32    33    1
    33    33    34    2
    34    34    35    1
    35    35    36    1
    36    36    37    2
    37    37    38    1
    38    38    39    2
    39    14    40    2
    40     9    41    1
    41    41    42    2
    42    42     6    1
    43    40    10    1
    44    22    17    1
    45    34    28    1
    46    39    35    1
@<TRIPOS>SUBSTRUCTURE
     1 RES1        1 GROUP             0 ****  ****    0  
@<TRIPOS>MOLECULE
ligand_63
    42    46     1     0     0
SMALL
NO_CHARGES
****
Generated from the CSD

@<TRIPOS>ATOM
     1 C1       0.1231  25.3822 -30.8177   C.3       1 RES1   0.0000
     2 O2      -1.2961  24.9734 -30.8948   O.3       1 RES1   0.0000
     3 C3      -1.5701  23.7384 -30.4573   C.2       1 RES1   0.0000
     4 O4      -0.7469  22.9558 -30.0135   O.2       1 RES1   0.0000
     5 N5      -2.8981  23.4957 -30.6142   N.am      1 RES1   0.0000
     6 C6      -3.5809  22.2966 -30.2970   C.2       1 RES1   0.0000
     7 C7      -2.9928  21.1410 -29.7620   C.2       1 RES1   0.0000
     8 C8      -3.7714  20.0324 -29.4648   C.2       1 RES1   0.0000
     9 C9      -5.1610  20.0456 -29.6457   C.2       1 RES1   0.0000
    10 C10     -6.0096  18.8875 -29.2454   C.2       1 RES1   0.0000
    11 C11     -7.3242  19.0478 -28.7912   C.2       1 RES1   0.0000
    12 C12     -8.0364  17.9301 -28.3990   C.2       1 RES1   0.0000
    13 N13     -7.5516  16.6792 -28.4578   N.2       1 RES1   0.0000
    14 C14     -6.2917  16.5330 -28.8987   C.2       1 RES1   0.0000
    15 C15     -5.7810  15.1322 -28.9991   C.3       1 RES1   0.0000
    16 C16     -6.3717  14.4065 -30.2135   C.3       1 RES1   0.0000
    17 C17     -5.7327  13.0701 -30.5480   C.2       1 RES1   0.0000
    18 C18     -4.6332  13.0224 -31.4332   C.2       1 RES1   0.0000
    19 C19     -4.0320  11.7989 -31.7648   C.2       1 RES1   0.0000
    20 C20     -4.5115  10.6067 -31.1944   C.2       1 RES1   0.0000
    21 C21     -5.5797  10.6474 -30.3152   C.2       1 RES1   0.0000
    22 C22     -6.2008  11.8596 -30.0094   C.2       1 RES1   0.0000
    23 N23     -5.9740  14.3547 -27.7760   N.am      1 RES1   0.0000
    24 C24     -5.0555  14.5114 -26.7426   C.2       1 RES1   0.0000
    25 O25     -4.0848  15.2835 -26.8236   O.2       1 RES1   0.0000
    26 C26     -5.3469  13.8418 -25.4789   C.2       1 RES1   0.0000
    27 C27     -4.6868  13.9509 -24.3566   C.2       1 RES1   0.0000
    28 C28     -5.0521  13.2413 -23.1335   C.2       1 RES1   0.0000
    29 C29     -6.4083  12.9405 -22.9365   C.2       1 RES1   0.0000
    30 C30     -6.8038  12.2446 -21.8163   C.2       1 RES1   0.0000
    31 Cl31    -8.4942  11.9230 -21.5695   Cl        1 RES1   0.0000
    32 C32     -5.8979  11.8127 -20.8752   C.2       1 RES1   0.0000
    33 C33     -4.5520  12.0973 -21.0506   C.2       1 RES1   0.0000
    34 C34     -4.1190  12.8193 -22.1699   C.2       1 RES1   0.0000
    35 N35     -2.7330  13.1761 -22.2783   N.pl3     1 RES1   0.0000
    36 C36     -1.9134  13.2677 -23.3292   C.2       1 RES1   0.0000
    37 N37     -0.7186  13.6100 -22.9306   N.2       1 RES1   0.0000
    38 N38     -0.8070  13.7335 -21.5843   N.2       1 RES1   0.0000
    39 N39     -2.0135  13.4854 -21.1693   N.2       1 RES1   0.0000
    40 C40     -5.5068  17.5853 -29.2793   C.2       1 RES1   0.0000
    41 C41     -5.7320  21.2079 -30.1820   C.2       1 RES1   0.0000
    42 C42     -4.9595  22.3065 -30.5239   C.2       1 RES1   0.0000
@<TRIPOS>BOND
     1     1     2    1
     2     2     3    1
     3     3     4    2
     4     3     5   am
     5     5     6    1
     6     6     7    2
     7     7     8    1
     8     8     9    2
     9     9    10    1
    10    10    11    2
    11    11    12    1
    12    12    13    2
    13    13    14    1
    14    14    15    1
    15    15    16    1
    16    16    17    1
    17    17    18    2
    18    18    19    1
    19    19    20    2
    20    20    21    1
    21    21    22    2
    22    15    23    1
    23    23    24   am
    24    24    25    2
    25    24    26    1
    26    26    27    2
    27    27    28    1
    28    28    29    2
    29    29    30    1
    30    30    31    1
    31    30    32    2
    32    32    33    1
    33    33    34    2
    34    34    35    1
    35    35    36    1
    36    36    37    2
    37    37    38    1
    38    38    39    2
    39    14    40    2
    40     9    41    1
    41    41    42    2
    42    42     6    1
    43    40    10    1
    44    22    17    1
    45    34    28    1
    46    39    35    1
@<TRIPOS>SUBSTRUCTURE
     1 RES1        1 GROUP             0 ****  ****    0  
@<TRIPOS>MOLECULE
ligand_64
    42    46     1     0     0
SMALL
NO_CHARGES
****
Generated from the CSD

@<TRIPOS>ATOM
     1 C1       1.4817   9.4519 -37.9046   C.3       1 RES1   0.0000
     2 O2       1.5931   9.5681 -36.4344   O.3       1 RES1   0.0000
     3 C3       0.5403   9.1281 -35.7348   C.2       1 RES1   0.0000
     4 O4      -0.4721   8.6527 -36.2208   O.2       1 RES1   0.0000
     5 N5       0.7741   9.3229 -34.4102   N.am      1 RES1   0.0000
     6 C6      -0.1046   9.0155 -33.3433   C.2       1 RES1   0.0000
     7 C7       0.1614   9.2255 -31.9822   C.2       1 RES1   0.0000
     8 C8      -0.7918   8.9094 -31.0255   C.2       1 RES1   0.0000
     9 C9      -2.0535   8.4172 -31.3858   C.2       1 RES1   0.0000
    10 C10     -3.1094   8.1596 -30.3658   C.2       1 RES1   0.0000
    11 C11     -4.4722   8.3110 -30.6484   C.2       1 RES1   0.0000
    12 C12     -5.3918   8.0934 -29.6398   C.2       1 RES1   0.0000
    13 N13     -5.0578   7.7087 -28.3973   N.2       1 RES1   0.0000
    14 C14     -3.7492   7.5612 -28.1351   C.2       1 RES1   0.0000
    15 C15     -3.3954   7.0916 -26.7613   C.3       1 RES1   0.0000
    16 C16     -3.6766   5.5941 -26.5918   C.3       1 RES1   0.0000
    17 C17     -3.1242   4.9670 -25.3237   C.2       1 RES1   0.0000
    18 C18     -1.8240   4.4154 -25.3250   C.2       1 RES1   0.0000
    19 C19     -1.2953   3.8224 -24.1688   C.2       1 RES1   0.0000
    20 C20     -2.0559   3.7947 -22.9866   C.2       1 RES1   0.0000
    21 C21     -3.3255   4.3459 -22.9741   C.2       1 RES1   0.0000
    22 C22     -3.8666   4.9069 -24.1322   C.2       1 RES1   0.0000
    23 N23     -4.0314   7.8701 -25.6997   N.am      1 RES1   0.0000
    24 C24     -3.4506   9.0792 -25.3297   C.2       1 RES1   0.0000
    25 O25     -2.4182   9.5159 -25.8668   O.2       1 RES1   0.0000
    26 C26     -4.1796   9.9095 -24.3761   C.2       1 RES1   0.0000
    27 C27     -3.8757  11.1197 -23.9885   C.2       1 RES1   0.0000
    28 C28     -4.6672  11.8812 -23.0259   C.2       1 RES1   0.0000
    29 C29     -6.0459  11.6268 -22.9716   C.2       1 RES1   0.0000
    30 C30     -6.8339  12.2933 -22.0603   C.2       1 RES1   0.0000
    31 Cl31    -8.5467  11.9964 -22.0416   Cl        1 RES1   0.0000
    32 C32     -6.3048  13.2039 -21.1752   C.2       1 RES1   0.0000
    33 C33     -4.9440  13.4695 -21.2099   C.2       1 RES1   0.0000
    34 C34     -4.1178  12.8223 -22.1372   C.2       1 RES1   0.0000
    35 N35     -2.7307  13.1839 -22.2094   N.pl3     1 RES1   0.0000
    36 C36     -1.9189  13.4103 -23.2460   C.2       1 RES1   0.0000
    37 N37     -0.7191  13.6911 -22.8158   N.2       1 RES1   0.0000
    38 N38     -0.7960  13.6353 -21.4643   N.2       1 RES1   0.0000
    39 N39     -2.0006  13.3400 -21.0754   N.2       1 RES1   0.0000
    40 C40     -2.7716   7.7833 -29.0643   C.2       1 RES1   0.0000
    41 C41     -2.3021   8.2125 -32.7499   C.2       1 RES1   0.0000
    42 C42     -1.3426   8.4832 -33.7126   C.2       1 RES1   0.0000
@<TRIPOS>BOND
     1     1     2    1
     2     2     3    1
     3     3     4    2
     4     3     5   am
     5     5     6    1
     6     6     7    2
     7     7     8    1
     8     8     9    2
     9     9    10    1
    10    10    11    2
    11    11    12    1
    12    12    13    2
    13    13    14    1
    14    14    15    1
    15    15    16    1
    16    16    17    1
    17    17    18    2
    18    18    19    1
    19    19    20    2
    20    20    21    1
    21    21    22    2
    22    15    23    1
    23    23    24   am
    24    24    25    2
    25    24    26    1
    26    26    27    2
    27    27    28    1
    28    28    29    2
    29    29    30    1
    30    30    31    1
    31    30    32    2
    32    32    33    1
    33    33    34    2
    34    34    35    1
    35    35    36    1
    36    36    37    2
    37    37    38    1
    38    38    39    2
    39    14    40    2
    40     9    41    1
    41    41    42    2
    42    42     6    1
    43    40    10    1
    44    22    17    1
    45    34    28    1
    46    39    35    1
@<TRIPOS>SUBSTRUCTURE
     1 RES1        1 GROUP             0 ****  ****    0  
@<TRIPOS>MOLECULE
ligand_65
    42    46     1     0     0
SMALL
NO_CHARGES
****
Generated from the CSD

@<TRIPOS>ATOM
     1 C1      -1.7572  26.7140 -29.7374   C.3       1 RES1   0.0000
     2 O2      -1.7989  25.3669 -30.3463   O.3       1 RES1   0.0000
     3 C3      -2.7634  24.5550 -29.8966   C.2       1 RES1   0.0000
     4 O4      -3.5829  24.8497 -29.0430   O.2       1 RES1   0.0000
     5 N5      -2.6604  23.3532 -30.5227   N.am      1 RES1   0.0000
     6 C6      -3.4771  22.2165 -30.3086   C.2       1 RES1   0.0000
     7 C7      -3.3505  20.9859 -30.9695   C.2       1 RES1   0.0000
     8 C8      -4.1946  19.9315 -30.6540   C.2       1 RES1   0.0000
     9 C9      -5.1610  20.0456 -29.6457   C.2       1 RES1   0.0000
    10 C10     -6.0096  18.8875 -29.2454   C.2       1 RES1   0.0000
    11 C11     -7.3242  19.0478 -28.7912   C.2       1 RES1   0.0000
    12 C12     -8.0364  17.9301 -28.3990   C.2       1 RES1   0.0000
    13 N13     -7.5516  16.6792 -28.4578   N.2       1 RES1   0.0000
    14 C14     -6.2917  16.5330 -28.8987   C.2       1 RES1   0.0000
    15 C15     -5.7810  15.1322 -28.9991   C.3       1 RES1   0.0000
    16 C16     -6.3717  14.4065 -30.2135   C.3       1 RES1   0.0000
    17 C17     -5.7327  13.0701 -30.5480   C.2       1 RES1   0.0000
    18 C18     -4.6332  13.0224 -31.4332   C.2       1 RES1   0.0000
    19 C19     -4.0320  11.7989 -31.7648   C.2       1 RES1   0.0000
    20 C20     -4.5115  10.6067 -31.1944   C.2       1 RES1   0.0000
    21 C21     -5.5797  10.6474 -30.3152   C.2       1 RES1   0.0000
    22 C22     -6.2008  11.8596 -30.0094   C.2       1 RES1   0.0000
    23 N23     -5.9740  14.3547 -27.7760   N.am      1 RES1   0.0000
    24 C24     -5.0555  14.5114 -26.7426   C.2       1 RES1   0.0000
    25 O25     -4.0848  15.2835 -26.8236   O.2       1 RES1   0.0000
    26 C26     -5.3469  13.8418 -25.4789   C.2       1 RES1   0.0000
    27 C27     -4.6868  13.9509 -24.3566   C.2       1 RES1   0.0000
    28 C28     -5.0521  13.2413 -23.1335   C.2       1 RES1   0.0000
    29 C29     -6.4083  12.9405 -22.9365   C.2       1 RES1   0.0000
    30 C30     -6.8038  12.2446 -21.8163   C.2       1 RES1   0.0000
    31 Cl31    -8.4942  11.9230 -21.5695   Cl        1 RES1   0.0000
    32 C32     -5.8979  11.8127 -20.8752   C.2       1 RES1   0.0000
    33 C33     -4.5520  12.0973 -21.0506   C.2       1 RES1   0.0000
    34 C34     -4.1190  12.8193 -22.1699   C.2       1 RES1   0.0000
    35 N35     -2.7330  13.1761 -22.2783   N.pl3     1 RES1   0.0000
    36 C36     -1.9134  13.2678 -23.3292   C.2       1 RES1   0.0000
    37 N37     -0.7186  13.6100 -22.9306   N.2       1 RES1   0.0000
    38 N38     -0.8070  13.7335 -21.5843   N.2       1 RES1   0.0000
    39 N39     -2.0135  13.4854 -21.1693   N.2       1 RES1   0.0000
    40 C40     -5.5068  17.5853 -29.2793   C.2       1 RES1   0.0000
    41 C41     -5.2745  21.2824 -28.9961   C.2       1 RES1   0.0000
    42 C42     -4.4665  22.3571 -29.3321   C.2       1 RES1   0.0000
@<TRIPOS>BOND
     1     1     2    1
     2     2     3    1
     3     3     4    2
     4     3     5   am
     5     5     6    1
     6     6     7    2
     7     7     8    1
     8     8     9    2
     9     9    10    1
    10    10    11    2
    11    11    12    1
    12    12    13    2
    13    13    14    1
    14    14    15    1
    15    15    16    1
    16    16    17    1
    17    17    18    2
    18    18    19    1
    19    19    20    2
    20    20    21    1
    21    21    22    2
    22    15    23    1
    23    23    24   am
    24    24    25    2
    25    24    26    1
    26    26    27    2
    27    27    28    1
    28    28    29    2
    29    29    30    1
    30    30    31    1
    31    30    32    2
    32    32    33    1
    33    33    34    2
    34    34    35    1
    35    35    36    1
    36    36    37    2
    37    37    38    1
    38    38    39    2
    39    14    40    2
    40     9    41    1
    41    41    42    2
    42    42     6    1
    43    40    10    1
    44    22    17    1
    45    34    28    1
    46    39    35    1
@<TRIPOS>SUBSTRUCTURE
     1 RES1        1 GROUP             0 ****  ****    0  
@<TRIPOS>MOLECULE
ligand_66
    42    46     1     0     0
SMALL
NO_CHARGES
****
Generated from the CSD

@<TRIPOS>ATOM
     1 C1      -1.8279  25.9356 -31.9214   C.3       1 RES1   0.0000
     2 O2      -2.9876  25.4334 -31.1532   O.3       1 RES1   0.0000
     3 C3      -3.2038  24.1143 -31.2223   C.2       1 RES1   0.0000
     4 O4      -2.5242  23.3275 -31.8596   O.2       1 RES1   0.0000
     5 N5      -4.3097  23.8064 -30.4949   N.am      1 RES1   0.0000
     6 C6      -4.8860  22.5228 -30.3362   C.2       1 RES1   0.0000
     7 C7      -4.4066  21.3374 -30.9127   C.2       1 RES1   0.0000
     8 C8      -5.0413  20.1300 -30.6615   C.2       1 RES1   0.0000
     9 C9      -6.1424  20.0490 -29.7984   C.2       1 RES1   0.0000
    10 C10     -6.7712  18.7410 -29.4588   C.2       1 RES1   0.0000
    11 C11     -8.1403  18.6182 -29.1931   C.2       1 RES1   0.0000
    12 C12     -8.6448  17.3794 -28.8451   C.2       1 RES1   0.0000
    13 N13     -7.9001  16.2641 -28.7767   N.2       1 RES1   0.0000
    14 C14     -6.5888  16.3889 -29.0372   C.2       1 RES1   0.0000
    15 C15     -5.7810  15.1322 -28.9991   C.3       1 RES1   0.0000
    16 C16     -6.0248  14.2719 -30.2443   C.3       1 RES1   0.0000
    17 C17     -5.0738  13.1016 -30.4240   C.2       1 RES1   0.0000
    18 C18     -3.8757  13.2789 -31.1506   C.2       1 RES1   0.0000
    19 C19     -2.9858  12.2107 -31.3380   C.2       1 RES1   0.0000
    20 C20     -3.2746  10.9534 -30.7788   C.2       1 RES1   0.0000
    21 C21     -4.4401  10.7760 -30.0536   C.2       1 RES1   0.0000
    22 C22     -5.3432  11.8285 -29.8938   C.2       1 RES1   0.0000
    23 N23     -5.9740  14.3547 -27.7760   N.am      1 RES1   0.0000
    24 C24     -5.0672  14.5268 -26.7347   C.2       1 RES1   0.0000
    25 O25     -4.1117  15.3185 -26.8056   O.2       1 RES1   0.0000
    26 C26     -5.3553  13.8476 -25.4753   C.2       1 RES1   0.0000
    27 C27     -4.7067  13.9667 -24.3474   C.2       1 RES1   0.0000
    28 C28     -5.0675  13.2461 -23.1293   C.2       1 RES1   0.0000
    29 C29     -6.4189  12.9176 -22.9442   C.2       1 RES1   0.0000
    30 C30     -6.8094  12.2105 -21.8292   C.2       1 RES1   0.0000
    31 Cl31    -8.4950  11.8542 -21.5971   Cl        1 RES1   0.0000
    32 C32     -5.9026  11.7940 -20.8821   C.2       1 RES1   0.0000
    33 C33     -4.5613  12.1061 -21.0457   C.2       1 RES1   0.0000
    34 C34     -4.1340  12.8401 -22.1593   C.2       1 RES1   0.0000
    35 N35     -2.7546  13.2249 -22.2554   N.pl3     1 RES1   0.0000
    36 C36     -1.9284  13.3359 -23.2994   C.2       1 RES1   0.0000
    37 N37     -0.7441  13.7011 -22.8901   N.2       1 RES1   0.0000
    38 N38     -0.8459  13.8190 -21.5442   N.2       1 RES1   0.0000
    39 N39     -2.0505  13.5456 -21.1398   N.2       1 RES1   0.0000
    40 C40     -6.0016  17.5800 -29.3607   C.2       1 RES1   0.0000
    41 C41     -6.6088  21.2431 -29.2317   C.2       1 RES1   0.0000
    42 C42     -6.0104  22.4620 -29.5091   C.2       1 RES1   0.0000
@<TRIPOS>BOND
     1     1     2    1
     2     2     3    1
     3     3     4    2
     4     3     5   am
     5     5     6    1
     6     6     7    2
     7     7     8    1
     8     8     9    2
     9     9    10    1
    10    10    11    2
    11    11    12    1
    12    12    13    2
    13    13    14    1
    14    14    15    1
    15    15    16    1
    16    16    17    1
    17    17    18    2
    18    18    19    1
    19    19    20    2
    20    20    21    1
    21    21    22    2
    22    15    23    1
    23    23    24   am
    24    24    25    2
    25    24    26    1
    26    26    27    2
    27    27    28    1
    28    28    29    2
    29    29    30    1
    30    30    31    1
    31    30    32    2
    32    32    33    1
    33    33    34    2
    34    34    35    1
    35    35    36    1
    36    36    37    2
    37    37    38    1
    38    38    39    2
    39    14    40    2
    40     9    41    1
    41    41    42    2
    42    42     6    1
    43    40    10    1
    44    22    17    1
    45    34    28    1
    46    39    35    1
@<TRIPOS>SUBSTRUCTURE
     1 RES1        1 GROUP             0 ****  ****    0  
@<TRIPOS>MOLECULE
ligand_67
    42    46     1     0     0
SMALL
NO_CHARGES
****
Generated from the CSD

@<TRIPOS>ATOM
     1 C1       6.4079   0.1534 -14.1838   C.3       1 RES1   0.0000
     2 O2       5.7468   1.4744 -14.2563   O.3       1 RES1   0.0000
     3 C3       4.6776   1.5464 -15.0583   C.2       1 RES1   0.0000
     4 O4       4.2305   0.6187 -15.7114   O.2       1 RES1   0.0000
     5 N5       4.1965   2.8174 -15.0446   N.am      1 RES1   0.0000
     6 C6       3.0918   3.3103 -15.7804   C.2       1 RES1   0.0000
     7 C7       2.2989   2.5598 -16.6610   C.2       1 RES1   0.0000
     8 C8       1.2212   3.1473 -17.3067   C.2       1 RES1   0.0000
     9 C9       0.8664   4.4821 -17.0696   C.2       1 RES1   0.0000
    10 C10     -0.3424   5.0897 -17.6952   C.2       1 RES1   0.0000
    11 C11     -0.8031   4.7016 -18.9590   C.2       1 RES1   0.0000
    12 C12     -1.9076   5.3390 -19.4921   C.2       1 RES1   0.0000
    13 N13     -2.5959   6.2977 -18.8515   N.2       1 RES1   0.0000
    14 C14     -2.1507   6.6614 -17.6381   C.2       1 RES1   0.0000
    15 C15     -2.9515   7.6986 -16.9197   C.3       1 RES1   0.0000
    16 C16     -3.7768   7.0818 -15.7845   C.3       1 RES1   0.0000
    17 C17     -4.4292   8.0753 -14.8392   C.2       1 RES1   0.0000
    18 C18     -3.7316   8.5099 -13.6906   C.2       1 RES1   0.0000
    19 C19     -4.3168   9.4200 -12.7976   C.2       1 RES1   0.0000
    20 C20     -5.6030   9.9253 -13.0567   C.2       1 RES1   0.0000
    21 C21     -6.2869   9.5146 -14.1878   C.2       1 RES1   0.0000
    22 C22     -5.7203   8.5839 -15.0604   C.2       1 RES1   0.0000
    23 N23     -3.7930   8.5001 -17.8069   N.am      1 RES1   0.0000
    24 C24     -3.2086   9.5636 -18.4878   C.2       1 RES1   0.0000
    25 O25     -2.0056   9.8526 -18.3682   O.2       1 RES1   0.0000
    26 C26     -4.0266  10.2565 -19.4782   C.2       1 RES1   0.0000
    27 C27     -3.6426  11.1938 -20.3036   C.2       1 RES1   0.0000
    28 C28     -4.5332  11.8342 -21.2679   C.2       1 RES1   0.0000
    29 C29     -5.8751  11.4250 -21.2853   C.2       1 RES1   0.0000
    30 C30     -6.7649  12.0185 -22.1522   C.2       1 RES1   0.0000
    31 Cl31    -8.4122  11.4641 -22.1892   Cl        1 RES1   0.0000
    32 C32     -6.3809  13.0272 -23.0052   C.2       1 RES1   0.0000
    33 C33     -5.0597  13.4489 -23.0036   C.2       1 RES1   0.0000
    34 C34     -4.1255  12.8530 -22.1471   C.2       1 RES1   0.0000
    35 N35     -2.7482  13.2479 -22.2317   N.pl3     1 RES1   0.0000
    36 C36     -1.9062  13.3380 -23.2650   C.2       1 RES1   0.0000
    37 N37     -0.7320  13.7252 -22.8470   N.2       1 RES1   0.0000
    38 N38     -0.8566  13.8790 -21.5067   N.2       1 RES1   0.0000
    39 N39     -2.0652  13.6055 -21.1142   N.2       1 RES1   0.0000
    40 C40     -1.0505   6.1045 -17.0484   C.2       1 RES1   0.0000
    41 C41      1.6698   5.2177 -16.1876   C.2       1 RES1   0.0000
    42 C42      2.7752   4.6548 -15.5696   C.2       1 RES1   0.0000
@<TRIPOS>BOND
     1     1     2    1
     2     2     3    1
     3     3     4    2
     4     3     5   am
     5     5     6    1
     6     6     7    2
     7     7     8    1
     8     8     9    2
     9     9    10    1
    10    10    11    2
    11    11    12    1
    12    12    13    2
    13    13    14    1
    14    14    15    1
    15    15    16    1
    16    16    17    1
    17    17    18    2
    18    18    19    1
    19    19    20    2
    20    20    21    1
    21    21    22    2
    22    15    23    1
    23    23    24   am
    24    24    25    2
    25    24    26    1
    26    26    27    2
    27    27    28    1
    28    28    29    2
    29    29    30    1
    30    30    31    1
    31    30    32    2
    32    32    33    1
    33    33    34    2
    34    34    35    1
    35    35    36    1
    36    36    37    2
    37    37    38    1
    38    38    39    2
    39    14    40    2
    40     9    41    1
    41    41    42    2
    42    42     6    1
    43    40    10    1
    44    22    17    1
    45    34    28    1
    46    39    35    1
@<TRIPOS>SUBSTRUCTURE
     1 RES1        1 GROUP             0 ****  ****    0  
@<TRIPOS>MOLECULE
ligand_68
    42    46     1     0     0
SMALL
NO_CHARGES
****
Generated from the CSD

@<TRIPOS>ATOM
     1 C1       7.4402   2.7209 -13.6847   C.3       1 RES1   0.0000
     2 O2       6.3090   2.3008 -14.5398   O.3       1 RES1   0.0000
     3 C3       5.3783   3.2341 -14.7729   C.2       1 RES1   0.0000
     4 O4       5.4060   4.3726 -14.3369   O.2       1 RES1   0.0000
     5 N5       4.3956   2.6989 -15.5443   N.am      1 RES1   0.0000
     6 C6       3.2205   3.3520 -15.9885   C.2       1 RES1   0.0000
     7 C7       2.8672   4.6786 -15.7012   C.2       1 RES1   0.0000
     8 C8       1.6993   5.2199 -16.2177   C.2       1 RES1   0.0000
     9 C9       0.8664   4.4821 -17.0696   C.2       1 RES1   0.0000
    10 C10     -0.3424   5.0897 -17.6952   C.2       1 RES1   0.0000
    11 C11     -0.8031   4.7016 -18.9590   C.2       1 RES1   0.0000
    12 C12     -1.9076   5.3390 -19.4921   C.2       1 RES1   0.0000
    13 N13     -2.5959   6.2977 -18.8515   N.2       1 RES1   0.0000
    14 C14     -2.1507   6.6614 -17.6381   C.2       1 RES1   0.0000
    15 C15     -2.9515   7.6986 -16.9197   C.3       1 RES1   0.0000
    16 C16     -3.7768   7.0818 -15.7845   C.3       1 RES1   0.0000
    17 C17     -4.4292   8.0753 -14.8392   C.2       1 RES1   0.0000
    18 C18     -3.7316   8.5099 -13.6906   C.2       1 RES1   0.0000
    19 C19     -4.3168   9.4200 -12.7976   C.2       1 RES1   0.0000
    20 C20     -5.6030   9.9253 -13.0567   C.2       1 RES1   0.0000
    21 C21     -6.2869   9.5146 -14.1878   C.2       1 RES1   0.0000
    22 C22     -5.7203   8.5839 -15.0604   C.2       1 RES1   0.0000
    23 N23     -3.7930   8.5001 -17.8069   N.am      1 RES1   0.0000
    24 C24     -3.2086   9.5636 -18.4878   C.2       1 RES1   0.0000
    25 O25     -2.0056   9.8526 -18.3682   O.2       1 RES1   0.0000
    26 C26     -4.0266  10.2565 -19.4782   C.2       1 RES1   0.0000
    27 C27     -3.6426  11.1938 -20.3036   C.2       1 RES1   0.0000
    28 C28     -4.5332  11.8342 -21.2679   C.2       1 RES1   0.0000
    29 C29     -5.8751  11.4250 -21.2853   C.2       1 RES1   0.0000
    30 C30     -6.7649  12.0185 -22.1522   C.2       1 RES1   0.0000
    31 Cl31    -8.4122  11.4641 -22.1892   Cl        1 RES1   0.0000
    32 C32     -6.3809  13.0272 -23.0052   C.2       1 RES1   0.0000
    33 C33     -5.0597  13.4489 -23.0036   C.2       1 RES1   0.0000
    34 C34     -4.1255  12.8530 -22.1471   C.2       1 RES1   0.0000
    35 N35     -2.7482  13.2479 -22.2317   N.pl3     1 RES1   0.0000
    36 C36     -1.9062  13.3380 -23.2650   C.2       1 RES1   0.0000
    37 N37     -0.7320  13.7252 -22.8470   N.2       1 RES1   0.0000
    38 N38     -0.8566  13.8790 -21.5067   N.2       1 RES1   0.0000
    39 N39     -2.0652  13.6055 -21.1142   N.2       1 RES1   0.0000
    40 C40     -1.0505   6.1045 -17.0484   C.2       1 RES1   0.0000
    41 C41      1.2338   3.1580 -17.3455   C.2       1 RES1   0.0000
    42 C42      2.3752   2.5915 -16.8006   C.2       1 RES1   0.0000
@<TRIPOS>BOND
     1     1     2    1
     2     2     3    1
     3     3     4    2
     4     3     5   am
     5     5     6    1
     6     6     7    2
     7     7     8    1
     8     8     9    2
     9     9    10    1
    10    10    11    2
    11    11    12    1
    12    12    13    2
    13    13    14    1
    14    14    15    1
    15    15    16    1
    16    16    17    1
    17    17    18    2
    18    18    19    1
    19    19    20    2
    20    20    21    1
    21    21    22    2
    22    15    23    1
    23    23    24   am
    24    24    25    2
    25    24    26    1
    26    26    27    2
    27    27    28    1
    28    28    29    2
    29    29    30    1
    30    30    31    1
    31    30    32    2
    32    32    33    1
    33    33    34    2
    34    34    35    1
    35    35    36    1
    36    36    37    2
    37    37    38    1
    38    38    39    2
    39    14    40    2
    40     9    41    1
    41    41    42    2
    42    42     6    1
    43    40    10    1
    44    22    17    1
    45    34    28    1
    46    39    35    1
@<TRIPOS>SUBSTRUCTURE
     1 RES1        1 GROUP             0 ****  ****    0  
@<TRIPOS>MOLECULE
ligand_69
    42    46     1     0     0
SMALL
NO_CHARGES
****
Generated from the CSD

@<TRIPOS>ATOM
     1 C1       3.0672  24.9329 -29.9288   C.3       1 RES1   0.0000
     2 O2       1.7419  25.0911 -29.2917   O.3       1 RES1   0.0000
     3 C3       0.9835  23.9892 -29.2457   C.2       1 RES1   0.0000
     4 O4       1.3090  22.8984 -29.6832   O.2       1 RES1   0.0000
     5 N5      -0.2059  24.2922 -28.6622   N.am      1 RES1   0.0000
     6 C6      -1.2921  23.4090 -28.4504   C.2       1 RES1   0.0000
     7 C7      -1.3244  22.0549 -28.8145   C.2       1 RES1   0.0000
     8 C8      -2.4382  21.2793 -28.5289   C.2       1 RES1   0.0000
     9 C9      -3.5367  21.8054 -27.8360   C.2       1 RES1   0.0000
    10 C10     -4.6966  20.9518 -27.4515   C.2       1 RES1   0.0000
    11 C11     -5.8091  21.4658 -26.7747   C.2       1 RES1   0.0000
    12 C12     -6.8288  20.6049 -26.4150   C.2       1 RES1   0.0000
    13 N13     -6.8349  19.2941 -26.7068   N.2       1 RES1   0.0000
    14 C14     -5.7666  18.8093 -27.3599   C.2       1 RES1   0.0000
    15 C15     -5.8069  17.3583 -27.7152   C.3       1 RES1   0.0000
    16 C16     -6.7453  17.0976 -28.8992   C.3       1 RES1   0.0000
    17 C17     -6.6687  15.7034 -29.4964   C.2       1 RES1   0.0000
    18 C18     -5.7612  15.4410 -30.5464   C.2       1 RES1   0.0000
    19 C19     -5.6788  14.1636 -31.1206   C.2       1 RES1   0.0000
    20 C20     -6.4904  13.1241 -30.6333   C.2       1 RES1   0.0000
    21 C21     -7.3720  13.3705 -29.5951   C.2       1 RES1   0.0000
    22 C22     -7.4796  14.6487 -29.0443   C.2       1 RES1   0.0000
    23 N23     -6.1340  16.4922 -26.5836   N.am      1 RES1   0.0000
    24 C24     -5.1971  15.5431 -26.1866   C.2       1 RES1   0.0000
    25 O25     -4.1014  15.4073 -26.7574   O.2       1 RES1   0.0000
    26 C26     -5.4781  14.7928 -24.9667   C.2       1 RES1   0.0000
    27 C27     -4.6873  13.9489 -24.3586   C.2       1 RES1   0.0000
    28 C28     -5.0517  13.2401 -23.1347   C.2       1 RES1   0.0000
    29 C29     -6.3967  12.8764 -22.9698   C.2       1 RES1   0.0000
    30 C30     -6.7890  12.1783 -21.8498   C.2       1 RES1   0.0000
    31 Cl31    -8.4682  11.7782 -21.6437   Cl        1 RES1   0.0000
    32 C32     -5.8899  11.8049 -20.8778   C.2       1 RES1   0.0000
    33 C33     -4.5549  12.1522 -21.0212   C.2       1 RES1   0.0000
    34 C34     -4.1265  12.8782 -22.1396   C.2       1 RES1   0.0000
    35 N35     -2.7569  13.3006 -22.2162   N.pl3     1 RES1   0.0000
    36 C36     -1.8799  13.3110 -23.2239   C.2       1 RES1   0.0000
    37 N37     -0.7314  13.7699 -22.8068   N.2       1 RES1   0.0000
    38 N38     -0.9089  14.0521 -21.4936   N.2       1 RES1   0.0000
    39 N39     -2.1242  13.7856 -21.1172   N.2       1 RES1   0.0000
    40 C40     -4.7017  19.5831 -27.7281   C.2       1 RES1   0.0000
    41 C41     -3.4883  23.1603 -27.4805   C.2       1 RES1   0.0000
    42 C42     -2.3998  23.9570 -27.7985   C.2       1 RES1   0.0000
@<TRIPOS>BOND
     1     1     2    1
     2     2     3    1
     3     3     4    2
     4     3     5   am
     5     5     6    1
     6     6     7    2
     7     7     8    1
     8     8     9    2
     9     9    10    1
    10    10    11    2
    11    11    12    1
    12    12    13    2
    13    13    14    1
    14    14    15    1
    15    15    16    1
    16    16    17    1
    17    17    18    2
    18    18    19    1
    19    19    20    2
    20    20    21    1
    21    21    22    2
    22    15    23    1
    23    23    24   am
    24    24    25    2
    25    24    26    1
    26    26    27    2
    27    27    28    1
    28    28    29    2
    29    29    30    1
    30    30    31    1
    31    30    32    2
    32    32    33    1
    33    33    34    2
    34    34    35    1
    35    35    36    1
    36    36    37    2
    37    37    38    1
    38    38    39    2
    39    14    40    2
    40     9    41    1
    41    41    42    2
    42    42     6    1
    43    40    10    1
    44    22    17    1
    45    34    28    1
    46    39    35    1
@<TRIPOS>SUBSTRUCTURE
     1 RES1        1 GROUP             0 ****  ****    0  
@<TRIPOS>MOLECULE
ligand_70
    42    46     1     0     0
SMALL
NO_CHARGES
****
Generated from the CSD

@<TRIPOS>ATOM
     1 C1       1.4844  27.2333 -29.5966   C.3       1 RES1   0.0000
     2 O2       1.0900  25.8095 -29.6636   O.3       1 RES1   0.0000
     3 C3      -0.0707  25.4991 -29.0735   C.2       1 RES1   0.0000
     4 O4      -0.7986  26.2938 -28.5027   O.2       1 RES1   0.0000
     5 N5      -0.2857  24.1624 -29.1914   N.am      1 RES1   0.0000
     6 C6      -1.3872  23.4356 -28.6781   C.2       1 RES1   0.0000
     7 C7      -2.4547  23.9804 -27.9495   C.2       1 RES1   0.0000
     8 C8      -3.4957  23.1702 -27.5209   C.2       1 RES1   0.0000
     9 C9      -3.5367  21.8054 -27.8360   C.2       1 RES1   0.0000
    10 C10     -4.6966  20.9518 -27.4515   C.2       1 RES1   0.0000
    11 C11     -5.8091  21.4658 -26.7747   C.2       1 RES1   0.0000
    12 C12     -6.8288  20.6049 -26.4150   C.2       1 RES1   0.0000
    13 N13     -6.8349  19.2941 -26.7068   N.2       1 RES1   0.0000
    14 C14     -5.7666  18.8093 -27.3599   C.2       1 RES1   0.0000
    15 C15     -5.8069  17.3583 -27.7152   C.3       1 RES1   0.0000
    16 C16     -6.7453  17.0976 -28.8992   C.3       1 RES1   0.0000
    17 C17     -6.6687  15.7034 -29.4964   C.2       1 RES1   0.0000
    18 C18     -5.7612  15.4410 -30.5464   C.2       1 RES1   0.0000
    19 C19     -5.6788  14.1636 -31.1206   C.2       1 RES1   0.0000
    20 C20     -6.4904  13.1241 -30.6333   C.2       1 RES1   0.0000
    21 C21     -7.3720  13.3705 -29.5951   C.2       1 RES1   0.0000
    22 C22     -7.4796  14.6487 -29.0443   C.2       1 RES1   0.0000
    23 N23     -6.1340  16.4922 -26.5836   N.am      1 RES1   0.0000
    24 C24     -5.1971  15.5431 -26.1866   C.2       1 RES1   0.0000
    25 O25     -4.1014  15.4073 -26.7574   O.2       1 RES1   0.0000
    26 C26     -5.4781  14.7928 -24.9667   C.2       1 RES1   0.0000
    27 C27     -4.6873  13.9489 -24.3586   C.2       1 RES1   0.0000
    28 C28     -5.0517  13.2401 -23.1347   C.2       1 RES1   0.0000
    29 C29     -6.3967  12.8764 -22.9698   C.2       1 RES1   0.0000
    30 C30     -6.7890  12.1784 -21.8498   C.2       1 RES1   0.0000
    31 Cl31    -8.4682  11.7783 -21.6437   Cl        1 RES1   0.0000
    32 C32     -5.8899  11.8049 -20.8778   C.2       1 RES1   0.0000
    33 C33     -4.5549  12.1522 -21.0212   C.2       1 RES1   0.0000
    34 C34     -4.1265  12.8782 -22.1396   C.2       1 RES1   0.0000
    35 N35     -2.7568  13.3005 -22.2162   N.pl3     1 RES1   0.0000
    36 C36     -1.8799  13.3110 -23.2239   C.2       1 RES1   0.0000
    37 N37     -0.7314  13.7698 -22.8068   N.2       1 RES1   0.0000
    38 N38     -0.9089  14.0521 -21.4936   N.2       1 RES1   0.0000
    39 N39     -2.1242  13.7856 -21.1173   N.2       1 RES1   0.0000
    40 C40     -4.7017  19.5831 -27.7281   C.2       1 RES1   0.0000
    41 C41     -2.4616  21.2773 -28.5638   C.2       1 RES1   0.0000
    42 C42     -1.3942  22.0672 -28.9604   C.2       1 RES1   0.0000
@<TRIPOS>BOND
     1     1     2    1
     2     2     3    1
     3     3     4    2
     4     3     5   am
     5     5     6    1
     6     6     7    2
     7     7     8    1
     8     8     9    2
     9     9    10    1
    10    10    11    2
    11    11    12    1
    12    12    13    2
    13    13    14    1
    14    14    15    1
    15    15    16    1
    16    16    17    1
    17    17    18    2
    18    18    19    1
    19    19    20    2
    20    20    21    1
    21    21    22    2
    22    15    23    1
    23    23    24   am
    24    24    25    2
    25    24    26    1
    26    26    27    2
    27    27    28    1
    28    28    29    2
    29    29    30    1
    30    30    31    1
    31    30    32    2
    32    32    33    1
    33    33    34    2
    34    34    35    1
    35    35    36    1
    36    36    37    2
    37    37    38    1
    38    38    39    2
    39    14    40    2
    40     9    41    1
    41    41    42    2
    42    42     6    1
    43    40    10    1
    44    22    17    1
    45    34    28    1
    46    39    35    1
@<TRIPOS>SUBSTRUCTURE
     1 RES1        1 GROUP             0 ****  ****    0  
@<TRIPOS>MOLECULE
ligand_71
    42    46     1     0     0
SMALL
NO_CHARGES
****
Generated from the CSD

@<TRIPOS>ATOM
     1 C1     -10.6719   9.9124 -10.4051   C.3       1 RES1   0.0000
     2 O2     -10.7436  10.8764 -11.5244   O.3       1 RES1   0.0000
     3 C3      -9.7805  11.8054 -11.5544   C.2       1 RES1   0.0000
     4 O4      -8.8771  11.9016 -10.7409   O.2       1 RES1   0.0000
     5 N5      -9.9912  12.6300 -12.6139   N.am      1 RES1   0.0000
     6 C6      -9.2107  13.7539 -12.9779   C.2       1 RES1   0.0000
     7 C7      -8.0747  14.2128 -12.2949   C.2       1 RES1   0.0000
     8 C8      -7.3723  15.3129 -12.7642   C.2       1 RES1   0.0000
     9 C9      -7.7440  15.9672 -13.9464   C.2       1 RES1   0.0000
    10 C10     -6.9400  17.0941 -14.4988   C.2       1 RES1   0.0000
    11 C11     -6.2351  17.9810 -13.6762   C.2       1 RES1   0.0000
    12 C12     -5.5443  19.0269 -14.2587   C.2       1 RES1   0.0000
    13 N13     -5.4788  19.2298 -15.5845   N.2       1 RES1   0.0000
    14 C14     -6.1537  18.3726 -16.3672   C.2       1 RES1   0.0000
    15 C15     -6.0365  18.5856 -17.8417   C.3       1 RES1   0.0000
    16 C16     -6.9023  19.7617 -18.3080   C.3       1 RES1   0.0000
    17 C17     -6.6661  20.2180 -19.7371   C.2       1 RES1   0.0000
    18 C18     -5.7009  21.2143 -20.0030   C.2       1 RES1   0.0000
    19 C19     -5.4714  21.6589 -21.3136   C.2       1 RES1   0.0000
    20 C20     -6.1917  21.0931 -22.3803   C.2       1 RES1   0.0000
    21 C21     -7.1290  20.1064 -22.1289   C.2       1 RES1   0.0000
    22 C22     -7.3830  19.6857 -20.8222   C.2       1 RES1   0.0000
    23 N23     -6.3148  17.3835 -18.6260   N.am      1 RES1   0.0000
    24 C24     -5.3023  16.8725 -19.4321   C.2       1 RES1   0.0000
    25 O25     -4.1792  17.3996 -19.5079   O.2       1 RES1   0.0000
    26 C26     -5.5493  15.5926 -20.0887   C.2       1 RES1   0.0000
    27 C27     -4.6999  14.8855 -20.7857   C.2       1 RES1   0.0000
    28 C28     -5.0342  13.6079 -21.4094   C.2       1 RES1   0.0000
    29 C29     -6.3557  13.1519 -21.2900   C.2       1 RES1   0.0000
    30 C30     -6.7329  11.9697 -21.8863   C.2       1 RES1   0.0000
    31 Cl31    -8.3634  11.4007 -21.6869   Cl        1 RES1   0.0000
    32 C32     -5.8478  11.2149 -22.6209   C.2       1 RES1   0.0000
    33 C33     -4.5369  11.6476 -22.7537   C.2       1 RES1   0.0000
    34 C34     -4.1165  12.8363 -22.1441   C.2       1 RES1   0.0000
    35 N35     -2.7334  13.2116 -22.2238   N.pl3     1 RES1   0.0000
    36 C36     -1.9019  13.3448 -23.2609   C.2       1 RES1   0.0000
    37 N37     -0.7162  13.6878 -22.8366   N.2       1 RES1   0.0000
    38 N38     -0.8226  13.7685 -21.4884   N.2       1 RES1   0.0000
    39 N39     -2.0313  13.4943 -21.0967   N.2       1 RES1   0.0000
    40 C40     -6.8855  17.3287 -15.8742   C.2       1 RES1   0.0000
    41 C41     -8.8819  15.4962 -14.6156   C.2       1 RES1   0.0000
    42 C42     -9.6178  14.4253 -14.1336   C.2       1 RES1   0.0000
@<TRIPOS>BOND
     1     1     2    1
     2     2     3    1
     3     3     4    2
     4     3     5   am
     5     5     6    1
     6     6     7    2
     7     7     8    1
     8     8     9    2
     9     9    10    1
    10    10    11    2
    11    11    12    1
    12    12    13    2
    13    13    14    1
    14    14    15    1
    15    15    16    1
    16    16    17    1
    17    17    18    2
    18    18    19    1
    19    19    20    2
    20    20    21    1
    21    21    22    2
    22    15    23    1
    23    23    24   am
    24    24    25    2
    25    24    26    1
    26    26    27    2
    27    27    28    1
    28    28    29    2
    29    29    30    1
    30    30    31    1
    31    30    32    2
    32    32    33    1
    33    33    34    2
    34    34    35    1
    35    35    36    1
    36    36    37    2
    37    37    38    1
    38    38    39    2
    39    14    40    2
    40     9    41    1
    41    41    42    2
    42    42     6    1
    43    40    10    1
    44    22    17    1
    45    34    28    1
    46    39    35    1
@<TRIPOS>SUBSTRUCTURE
     1 RES1        1 GROUP             0 ****  ****    0  
@<TRIPOS>MOLECULE
ligand_72
    42    46     1     0     0
SMALL
NO_CHARGES
****
Generated from the CSD

@<TRIPOS>ATOM
     1 C1     -10.9542   1.0935 -22.8829   C.3       1 RES1   0.0000
     2 O2      -9.4870   1.0374 -22.7052   O.3       1 RES1   0.0000
     3 C3      -8.9759   1.8952 -21.8139   C.2       1 RES1   0.0000
     4 O4      -9.6260   2.6940 -21.1609   O.2       1 RES1   0.0000
     5 N5      -7.6253   1.7479 -21.7791   N.am      1 RES1   0.0000
     6 C6      -6.7152   2.4873 -20.9856   C.2       1 RES1   0.0000
     7 C7      -7.0593   3.5118 -20.0915   C.2       1 RES1   0.0000
     8 C8      -6.0789   4.1480 -19.3446   C.2       1 RES1   0.0000
     9 C9      -4.7339   3.7626 -19.4248   C.2       1 RES1   0.0000
    10 C10     -3.6923   4.3853 -18.5594   C.2       1 RES1   0.0000
    11 C11     -2.5704   3.6757 -18.1145   C.2       1 RES1   0.0000
    12 C12     -1.6674   4.3081 -17.2808   C.2       1 RES1   0.0000
    13 N13     -1.7828   5.5881 -16.8916   N.2       1 RES1   0.0000
    14 C14     -2.8590   6.2634 -17.3259   C.2       1 RES1   0.0000
    15 C15     -2.9515   7.6986 -16.9197   C.3       1 RES1   0.0000
    16 C16     -3.3974   7.8396 -15.4597   C.3       1 RES1   0.0000
    17 C17     -3.2839   9.2370 -14.8760   C.2       1 RES1   0.0000
    18 C18     -2.0894   9.6322 -14.2342   C.2       1 RES1   0.0000
    19 C19     -1.9638  10.9145 -13.6791   C.2       1 RES1   0.0000
    20 C20     -3.0281  11.8276 -13.7802   C.2       1 RES1   0.0000
    21 C21     -4.1965  11.4521 -14.4201   C.2       1 RES1   0.0000
    22 C22     -4.3362  10.1657 -14.9442   C.2       1 RES1   0.0000
    23 N23     -3.7930   8.5001 -17.8069   N.am      1 RES1   0.0000
    24 C24     -3.2091   9.5649 -18.4861   C.2       1 RES1   0.0000
    25 O25     -2.0068   9.8557 -18.3643   O.2       1 RES1   0.0000
    26 C26     -4.0265  10.2573 -19.4774   C.2       1 RES1   0.0000
    27 C27     -3.6425  11.1957 -20.3015   C.2       1 RES1   0.0000
    28 C28     -4.5325  11.8355 -21.2668   C.2       1 RES1   0.0000
    29 C29     -5.8737  11.4241 -21.2868   C.2       1 RES1   0.0000
    30 C30     -6.7631  12.0170 -22.1547   C.2       1 RES1   0.0000
    31 Cl31    -8.4094  11.4601 -22.1948   Cl        1 RES1   0.0000
    32 C32     -6.3792  13.0268 -23.0064   C.2       1 RES1   0.0000
    33 C33     -5.0587  13.4506 -23.0023   C.2       1 RES1   0.0000
    34 C34     -4.1249  12.8555 -22.1447   C.2       1 RES1   0.0000
    35 N35     -2.7481  13.2526 -22.2267   N.pl3     1 RES1   0.0000
    36 C36     -1.9045  13.3447 -23.2586   C.2       1 RES1   0.0000
    37 N37     -0.7316  13.7334 -22.8383   N.2       1 RES1   0.0000
    38 N38     -0.8587  13.8860 -21.4982   N.2       1 RES1   0.0000
    39 N39     -2.0675  13.6104 -21.1078   N.2       1 RES1   0.0000
    40 C40     -3.8155   5.7078 -18.1288   C.2       1 RES1   0.0000
    41 C41     -4.4076   2.7379 -20.3237   C.2       1 RES1   0.0000
    42 C42     -5.3715   2.1241 -21.1077   C.2       1 RES1   0.0000
@<TRIPOS>BOND
     1     1     2    1
     2     2     3    1
     3     3     4    2
     4     3     5   am
     5     5     6    1
     6     6     7    2
     7     7     8    1
     8     8     9    2
     9     9    10    1
    10    10    11    2
    11    11    12    1
    12    12    13    2
    13    13    14    1
    14    14    15    1
    15    15    16    1
    16    16    17    1
    17    17    18    2
    18    18    19    1
    19    19    20    2
    20    20    21    1
    21    21    22    2
    22    15    23    1
    23    23    24   am
    24    24    25    2
    25    24    26    1
    26    26    27    2
    27    27    28    1
    28    28    29    2
    29    29    30    1
    30    30    31    1
    31    30    32    2
    32    32    33    1
    33    33    34    2
    34    34    35    1
    35    35    36    1
    36    36    37    2
    37    37    38    1
    38    38    39    2
    39    14    40    2
    40     9    41    1
    41    41    42    2
    42    42     6    1
    43    40    10    1
    44    22    17    1
    45    34    28    1
    46    39    35    1
@<TRIPOS>SUBSTRUCTURE
     1 RES1        1 GROUP             0 ****  ****    0  
@<TRIPOS>MOLECULE
ligand_73
    42    46     1     0     0
SMALL
NO_CHARGES
****
Generated from the CSD

@<TRIPOS>ATOM
     1 C1      -9.7196  -1.0454 -22.2689   C.3       1 RES1   0.0000
     2 O2      -9.2130   0.3433 -22.3157   O.3       1 RES1   0.0000
     3 C3      -8.1626   0.6060 -21.5288   C.2       1 RES1   0.0000
     4 O4      -7.6160  -0.2043 -20.7996   O.2       1 RES1   0.0000
     5 N5      -7.8287   1.9173 -21.6562   N.am      1 RES1   0.0000
     6 C6      -6.7901   2.5947 -20.9726   C.2       1 RES1   0.0000
     7 C7      -6.4646   3.9507 -21.1230   C.2       1 RES1   0.0000
     8 C8      -5.4399   4.5119 -20.3755   C.2       1 RES1   0.0000
     9 C9      -4.7339   3.7626 -19.4248   C.2       1 RES1   0.0000
    10 C10     -3.6923   4.3853 -18.5594   C.2       1 RES1   0.0000
    11 C11     -2.5704   3.6757 -18.1145   C.2       1 RES1   0.0000
    12 C12     -1.6674   4.3081 -17.2808   C.2       1 RES1   0.0000
    13 N13     -1.7828   5.5881 -16.8916   N.2       1 RES1   0.0000
    14 C14     -2.8590   6.2634 -17.3259   C.2       1 RES1   0.0000
    15 C15     -2.9515   7.6986 -16.9197   C.3       1 RES1   0.0000
    16 C16     -3.3974   7.8396 -15.4597   C.3       1 RES1   0.0000
    17 C17     -3.2839   9.2370 -14.8760   C.2       1 RES1   0.0000
    18 C18     -2.0894   9.6322 -14.2342   C.2       1 RES1   0.0000
    19 C19     -1.9638  10.9145 -13.6791   C.2       1 RES1   0.0000
    20 C20     -3.0281  11.8276 -13.7802   C.2       1 RES1   0.0000
    21 C21     -4.1965  11.4521 -14.4201   C.2       1 RES1   0.0000
    22 C22     -4.3362  10.1657 -14.9442   C.2       1 RES1   0.0000
    23 N23     -3.7930   8.5001 -17.8069   N.am      1 RES1   0.0000
    24 C24     -3.2091   9.5649 -18.4861   C.2       1 RES1   0.0000
    25 O25     -2.0068   9.8557 -18.3643   O.2       1 RES1   0.0000
    26 C26     -4.0265  10.2573 -19.4774   C.2       1 RES1   0.0000
    27 C27     -3.6425  11.1957 -20.3015   C.2       1 RES1   0.0000
    28 C28     -4.5325  11.8355 -21.2668   C.2       1 RES1   0.0000
    29 C29     -5.8738  11.4242 -21.2868   C.2       1 RES1   0.0000
    30 C30     -6.7631  12.0170 -22.1547   C.2       1 RES1   0.0000
    31 Cl31    -8.4094  11.4601 -22.1948   Cl        1 RES1   0.0000
    32 C32     -6.3792  13.0268 -23.0064   C.2       1 RES1   0.0000
    33 C33     -5.0587  13.4505 -23.0023   C.2       1 RES1   0.0000
    34 C34     -4.1249  12.8555 -22.1447   C.2       1 RES1   0.0000
    35 N35     -2.7481  13.2525 -22.2268   N.pl3     1 RES1   0.0000
    36 C36     -1.9045  13.3447 -23.2586   C.2       1 RES1   0.0000
    37 N37     -0.7316  13.7333 -22.8384   N.2       1 RES1   0.0000
    38 N38     -0.8587  13.8860 -21.4982   N.2       1 RES1   0.0000
    39 N39     -2.0675  13.6103 -21.1078   N.2       1 RES1   0.0000
    40 C40     -3.8155   5.7078 -18.1288   C.2       1 RES1   0.0000
    41 C41     -5.0714   2.4091 -19.2882   C.2       1 RES1   0.0000
    42 C42     -6.0637   1.8256 -20.0599   C.2       1 RES1   0.0000
@<TRIPOS>BOND
     1     1     2    1
     2     2     3    1
     3     3     4    2
     4     3     5   am
     5     5     6    1
     6     6     7    2
     7     7     8    1
     8     8     9    2
     9     9    10    1
    10    10    11    2
    11    11    12    1
    12    12    13    2
    13    13    14    1
    14    14    15    1
    15    15    16    1
    16    16    17    1
    17    17    18    2
    18    18    19    1
    19    19    20    2
    20    20    21    1
    21    21    22    2
    22    15    23    1
    23    23    24   am
    24    24    25    2
    25    24    26    1
    26    26    27    2
    27    27    28    1
    28    28    29    2
    29    29    30    1
    30    30    31    1
    31    30    32    2
    32    32    33    1
    33    33    34    2
    34    34    35    1
    35    35    36    1
    36    36    37    2
    37    37    38    1
    38    38    39    2
    39    14    40    2
    40     9    41    1
    41    41    42    2
    42    42     6    1
    43    40    10    1
    44    22    17    1
    45    34    28    1
    46    39    35    1
@<TRIPOS>SUBSTRUCTURE
     1 RES1        1 GROUP             0 ****  ****    0  
@<TRIPOS>MOLECULE
ligand_74
    42    46     1     0     0
SMALL
NO_CHARGES
****
Generated from the CSD

@<TRIPOS>ATOM
     1 C1      -1.5381  15.5324  -7.2839   C.3       1 RES1   0.0000
     2 O2      -2.8589  16.0463  -7.7066   O.3       1 RES1   0.0000
     3 C3      -2.9893  16.3111  -9.0121   C.2       1 RES1   0.0000
     4 O4      -2.1132  16.1590  -9.8467   O.2       1 RES1   0.0000
     5 N5      -4.2368  16.7978  -9.2445   N.am      1 RES1   0.0000
     6 C6      -4.7596  17.2215 -10.4902   C.2       1 RES1   0.0000
     7 C7      -4.0674  17.2124 -11.7101   C.2       1 RES1   0.0000
     8 C8      -4.6958  17.6269 -12.8750   C.2       1 RES1   0.0000
     9 C9      -6.0404  18.0216 -12.8792   C.2       1 RES1   0.0000
    10 C10     -6.7420  18.3837 -14.1434   C.2       1 RES1   0.0000
    11 C11     -8.0794  18.7971 -14.1622   C.2       1 RES1   0.0000
    12 C12     -8.6750  19.0775 -15.3776   C.2       1 RES1   0.0000
    13 N13     -8.0332  19.0088 -16.5552   N.2       1 RES1   0.0000
    14 C14     -6.7496  18.6159 -16.5287   C.2       1 RES1   0.0000
    15 C15     -6.0365  18.5856 -17.8417   C.3       1 RES1   0.0000
    16 C16     -6.3125  19.8535 -18.6581   C.3       1 RES1   0.0000
    17 C17     -5.4437  20.0369 -19.8901   C.2       1 RES1   0.0000
    18 C18     -4.2195  20.7335 -19.7856   C.2       1 RES1   0.0000
    19 C19     -3.4042  20.9238 -20.9113   C.2       1 RES1   0.0000
    20 C20     -3.7952  20.3973 -22.1550   C.2       1 RES1   0.0000
    21 C21     -4.9867  19.7014 -22.2620   C.2       1 RES1   0.0000
    22 C22     -5.8157  19.5393 -21.1505   C.2       1 RES1   0.0000
    23 N23     -6.3148  17.3835 -18.6260   N.am      1 RES1   0.0000
    24 C24     -5.2977  16.8641 -19.4209   C.2       1 RES1   0.0000
    25 O25     -4.1688  17.3805 -19.4824   O.2       1 RES1   0.0000
    26 C26     -5.5492  15.5878 -20.0829   C.2       1 RES1   0.0000
    27 C27     -4.6984  14.8738 -20.7710   C.2       1 RES1   0.0000
    28 C28     -5.0375  13.6006 -21.4010   C.2       1 RES1   0.0000
    29 C29     -6.3650  13.1579 -21.2994   C.2       1 RES1   0.0000
    30 C30     -6.7464  11.9804 -21.9024   C.2       1 RES1   0.0000
    31 Cl31    -8.3851  11.4277 -21.7251   Cl        1 RES1   0.0000
    32 C32     -5.8596  11.2178 -22.6268   C.2       1 RES1   0.0000
    33 C33     -4.5428  11.6373 -22.7419   C.2       1 RES1   0.0000
    34 C34     -4.1183  12.8208 -22.1250   C.2       1 RES1   0.0000
    35 N35     -2.7305  13.1821 -22.1861   N.pl3     1 RES1   0.0000
    36 C36     -1.8843  13.3084 -23.2122   C.2       1 RES1   0.0000
    37 N37     -0.7008  13.6387 -22.7721   N.2       1 RES1   0.0000
    38 N38     -0.8239  13.7185 -21.4253   N.2       1 RES1   0.0000
    39 N39     -2.0403  13.4560 -21.0496   N.2       1 RES1   0.0000
    40 C40     -6.0913  18.2919 -15.3755   C.2       1 RES1   0.0000
    41 C41     -6.7168  18.0256 -11.6516   C.2       1 RES1   0.0000
    42 C42     -6.0876  17.6554 -10.4735   C.2       1 RES1   0.0000
@<TRIPOS>BOND
     1     1     2    1
     2     2     3    1
     3     3     4    2
     4     3     5   am
     5     5     6    1
     6     6     7    2
     7     7     8    1
     8     8     9    2
     9     9    10    1
    10    10    11    2
    11    11    12    1
    12    12    13    2
    13    13    14    1
    14    14    15    1
    15    15    16    1
    16    16    17    1
    17    17    18    2
    18    18    19    1
    19    19    20    2
    20    20    21    1
    21    21    22    2
    22    15    23    1
    23    23    24   am
    24    24    25    2
    25    24    26    1
    26    26    27    2
    27    27    28    1
    28    28    29    2
    29    29    30    1
    30    30    31    1
    31    30    32    2
    32    32    33    1
    33    33    34    2
    34    34    35    1
    35    35    36    1
    36    36    37    2
    37    37    38    1
    38    38    39    2
    39    14    40    2
    40     9    41    1
    41    41    42    2
    42    42     6    1
    43    40    10    1
    44    22    17    1
    45    34    28    1
    46    39    35    1
@<TRIPOS>SUBSTRUCTURE
     1 RES1        1 GROUP             0 ****  ****    0  
@<TRIPOS>MOLECULE
ligand_75
    42    46     1     0     0
SMALL
NO_CHARGES
****
Generated from the CSD

@<TRIPOS>ATOM
     1 C1      -3.5109  16.8820  -5.8027   C.3       1 RES1   0.0000
     2 O2      -3.2304  16.9048  -7.2546   O.3       1 RES1   0.0000
     3 C3      -4.2607  17.2391  -8.0408   C.2       1 RES1   0.0000
     4 O4      -5.3802  17.5169  -7.6449   O.2       1 RES1   0.0000
     5 N5      -3.8628  17.1908  -9.3394   N.am      1 RES1   0.0000
     6 C6      -4.6632  17.4500 -10.4783   C.2       1 RES1   0.0000
     7 C7      -6.0207  17.8025 -10.4572   C.2       1 RES1   0.0000
     8 C8      -6.6956  18.0607 -11.6410   C.2       1 RES1   0.0000
     9 C9      -6.0404  18.0216 -12.8792   C.2       1 RES1   0.0000
    10 C10     -6.7420  18.3837 -14.1434   C.2       1 RES1   0.0000
    11 C11     -8.0794  18.7971 -14.1622   C.2       1 RES1   0.0000
    12 C12     -8.6750  19.0775 -15.3776   C.2       1 RES1   0.0000
    13 N13     -8.0332  19.0088 -16.5552   N.2       1 RES1   0.0000
    14 C14     -6.7496  18.6159 -16.5287   C.2       1 RES1   0.0000
    15 C15     -6.0365  18.5856 -17.8417   C.3       1 RES1   0.0000
    16 C16     -6.3125  19.8535 -18.6581   C.3       1 RES1   0.0000
    17 C17     -5.4437  20.0369 -19.8901   C.2       1 RES1   0.0000
    18 C18     -4.2195  20.7335 -19.7856   C.2       1 RES1   0.0000
    19 C19     -3.4042  20.9238 -20.9113   C.2       1 RES1   0.0000
    20 C20     -3.7952  20.3973 -22.1550   C.2       1 RES1   0.0000
    21 C21     -4.9867  19.7014 -22.2620   C.2       1 RES1   0.0000
    22 C22     -5.8157  19.5393 -21.1505   C.2       1 RES1   0.0000
    23 N23     -6.3148  17.3835 -18.6260   N.am      1 RES1   0.0000
    24 C24     -5.2977  16.8641 -19.4209   C.2       1 RES1   0.0000
    25 O25     -4.1688  17.3805 -19.4824   O.2       1 RES1   0.0000
    26 C26     -5.5492  15.5878 -20.0829   C.2       1 RES1   0.0000
    27 C27     -4.6984  14.8738 -20.7710   C.2       1 RES1   0.0000
    28 C28     -5.0375  13.6006 -21.4010   C.2       1 RES1   0.0000
    29 C29     -6.3650  13.1579 -21.2994   C.2       1 RES1   0.0000
    30 C30     -6.7464  11.9804 -21.9025   C.2       1 RES1   0.0000
    31 Cl31    -8.3851  11.4277 -21.7251   Cl        1 RES1   0.0000
    32 C32     -5.8596  11.2178 -22.6268   C.2       1 RES1   0.0000
    33 C33     -4.5428  11.6373 -22.7418   C.2       1 RES1   0.0000
    34 C34     -4.1183  12.8208 -22.1249   C.2       1 RES1   0.0000
    35 N35     -2.7305  13.1821 -22.1861   N.pl3     1 RES1   0.0000
    36 C36     -1.8843  13.3083 -23.2121   C.2       1 RES1   0.0000
    37 N37     -0.7008  13.6386 -22.7720   N.2       1 RES1   0.0000
    38 N38     -0.8239  13.7184 -21.4252   N.2       1 RES1   0.0000
    39 N39     -2.0403  13.4560 -21.0495   N.2       1 RES1   0.0000
    40 C40     -6.0913  18.2919 -15.3755   C.2       1 RES1   0.0000
    41 C41     -4.6845  17.6668 -12.8821   C.2       1 RES1   0.0000
    42 C42     -4.0096  17.3639 -11.7102   C.2       1 RES1   0.0000
@<TRIPOS>BOND
     1     1     2    1
     2     2     3    1
     3     3     4    2
     4     3     5   am
     5     5     6    1
     6     6     7    2
     7     7     8    1
     8     8     9    2
     9     9    10    1
    10    10    11    2
    11    11    12    1
    12    12    13    2
    13    13    14    1
    14    14    15    1
    15    15    16    1
    16    16    17    1
    17    17    18    2
    18    18    19    1
    19    19    20    2
    20    20    21    1
    21    21    22    2
    22    15    23    1
    23    23    24   am
    24    24    25    2
    25    24    26    1
    26    26    27    2
    27    27    28    1
    28    28    29    2
    29    29    30    1
    30    30    31    1
    31    30    32    2
    32    32    33    1
    33    33    34    2
    34    34    35    1
    35    35    36    1
    36    36    37    2
    37    37    38    1
    38    38    39    2
    39    14    40    2
    40     9    41    1
    41    41    42    2
    42    42     6    1
    43    40    10    1
    44    22    17    1
    45    34    28    1
    46    39    35    1
@<TRIPOS>SUBSTRUCTURE
     1 RES1        1 GROUP             0 ****  ****    0  
@<TRIPOS>MOLECULE
ligand_76
    42    46     1     0     0
SMALL
NO_CHARGES
****
Generated from the CSD

@<TRIPOS>ATOM
     1 C1     -13.3631  14.1841 -32.2763   C.3       1 RES1   0.0000
     2 O2     -12.7397  13.1252 -31.4533   O.3       1 RES1   0.0000
     3 C3     -11.4595  12.8505 -31.7315   C.2       1 RES1   0.0000
     4 O4     -10.7981  13.4027 -32.5944   O.2       1 RES1   0.0000
     5 N5     -11.0340  11.8466 -30.9202   N.am      1 RES1   0.0000
     6 C6      -9.7505  11.2488 -30.9183   C.2       1 RES1   0.0000
     7 C7      -8.6887  11.5954 -31.7668   C.2       1 RES1   0.0000
     8 C8      -7.4634  10.9558 -31.6524   C.2       1 RES1   0.0000
     9 C9      -7.2349   9.9851 -30.6679   C.2       1 RES1   0.0000
    10 C10     -5.8940   9.3598 -30.4869   C.2       1 RES1   0.0000
    11 C11     -5.0163   9.1540 -31.5581   C.2       1 RES1   0.0000
    12 C12     -3.8058   8.5309 -31.3196   C.2       1 RES1   0.0000
    13 N13     -3.3989   8.1344 -30.1028   N.2       1 RES1   0.0000
    14 C14     -4.2442   8.3391 -29.0799   C.2       1 RES1   0.0000
    15 C15     -3.7602   7.9318 -27.7260   C.3       1 RES1   0.0000
    16 C16     -3.8327   6.4119 -27.5393   C.3       1 RES1   0.0000
    17 C17     -3.1369   5.8736 -26.3014   C.2       1 RES1   0.0000
    18 C18     -1.7773   5.4975 -26.3709   C.2       1 RES1   0.0000
    19 C19     -1.1154   4.9889 -25.2433   C.2       1 RES1   0.0000
    20 C20     -1.8027   4.8718 -24.0224   C.2       1 RES1   0.0000
    21 C21     -3.1313   5.2518 -23.9433   C.2       1 RES1   0.0000
    22 C22     -3.8015   5.7269 -25.0720   C.2       1 RES1   0.0000
    23 N23     -4.4365   8.6293 -26.6334   N.am      1 RES1   0.0000
    24 C24     -3.6718   9.4221 -25.7832   C.2       1 RES1   0.0000
    25 O25     -2.4435   9.5553 -25.9196   O.2       1 RES1   0.0000
    26 C26     -4.3837  10.2257 -24.7944   C.2       1 RES1   0.0000
    27 C27     -3.8746  11.1177 -23.9868   C.2       1 RES1   0.0000
    28 C28     -4.6660  11.8804 -23.0251   C.2       1 RES1   0.0000
    29 C29     -6.0240  11.5526 -22.8950   C.2       1 RES1   0.0000
    30 C30     -6.8086  12.2181 -21.9801   C.2       1 RES1   0.0000
    31 Cl31    -8.4989  11.8277 -21.8681   Cl        1 RES1   0.0000
    32 C32     -6.2948  13.1992 -21.1639   C.2       1 RES1   0.0000
    33 C33     -4.9545  13.5381 -21.2741   C.2       1 RES1   0.0000
    34 C34     -4.1336  12.8931 -22.2076   C.2       1 RES1   0.0000
    35 N35     -2.7742  13.3273 -22.3609   N.pl3     1 RES1   0.0000
    36 C36     -2.0129  13.5164 -23.4423   C.2       1 RES1   0.0000
    37 N37     -0.8186  13.8997 -23.0817   N.2       1 RES1   0.0000
    38 N38     -0.8465  13.9483 -21.7281   N.2       1 RES1   0.0000
    39 N39     -2.0172  13.6159 -21.2714   N.2       1 RES1   0.0000
    40 C40     -5.4716   8.9214 -29.2303   C.2       1 RES1   0.0000
    41 C41     -8.3068   9.6502 -29.8292   C.2       1 RES1   0.0000
    42 C42     -9.5488  10.2506 -29.9616   C.2       1 RES1   0.0000
@<TRIPOS>BOND
     1     1     2    1
     2     2     3    1
     3     3     4    2
     4     3     5   am
     5     5     6    1
     6     6     7    2
     7     7     8    1
     8     8     9    2
     9     9    10    1
    10    10    11    2
    11    11    12    1
    12    12    13    2
    13    13    14    1
    14    14    15    1
    15    15    16    1
    16    16    17    1
    17    17    18    2
    18    18    19    1
    19    19    20    2
    20    20    21    1
    21    21    22    2
    22    15    23    1
    23    23    24   am
    24    24    25    2
    25    24    26    1
    26    26    27    2
    27    27    28    1
    28    28    29    2
    29    29    30    1
    30    30    31    1
    31    30    32    2
    32    32    33    1
    33    33    34    2
    34    34    35    1
    35    35    36    1
    36    36    37    2
    37    37    38    1
    38    38    39    2
    39    14    40    2
    40     9    41    1
    41    41    42    2
    42    42     6    1
    43    40    10    1
    44    22    17    1
    45    34    28    1
    46    39    35    1
@<TRIPOS>SUBSTRUCTURE
     1 RES1        1 GROUP             0 ****  ****    0  
@<TRIPOS>MOLECULE
ligand_77
    42    46     1     0     0
SMALL
NO_CHARGES
****
Generated from the CSD

@<TRIPOS>ATOM
     1 C1      -4.2041  -4.2618 -19.6389   C.3       1 RES1   0.0000
     2 O2      -4.1864  -3.1062 -18.7161   O.3       1 RES1   0.0000
     3 C3      -3.6121  -1.9934 -19.1885   C.2       1 RES1   0.0000
     4 O4      -3.1186  -1.8788 -20.2978   O.2       1 RES1   0.0000
     5 N5      -3.6457  -1.0333 -18.2272   N.am      1 RES1   0.0000
     6 C6      -3.1179   0.2771 -18.3234   C.2       1 RES1   0.0000
     7 C7      -2.4606   0.8109 -19.4415   C.2       1 RES1   0.0000
     8 C8      -2.0098   2.1225 -19.4288   C.2       1 RES1   0.0000
     9 C9      -2.2328   2.9611 -18.3285   C.2       1 RES1   0.0000
    10 C10     -1.8267   4.3952 -18.3471   C.2       1 RES1   0.0000
    11 C11     -0.7064   4.8440 -19.0567   C.2       1 RES1   0.0000
    12 C12     -0.3681   6.1826 -18.9940   C.2       1 RES1   0.0000
    13 N13     -1.0750   7.0986 -18.3124   N.2       1 RES1   0.0000
    14 C14     -2.1507   6.6614 -17.6381   C.2       1 RES1   0.0000
    15 C15     -2.9515   7.6986 -16.9197   C.3       1 RES1   0.0000
    16 C16     -3.7435   7.0887 -15.7574   C.3       1 RES1   0.0000
    17 C17     -4.3905   8.0882 -14.8146   C.2       1 RES1   0.0000
    18 C18     -3.6754   8.5517 -13.6883   C.2       1 RES1   0.0000
    19 C19     -4.2551   9.4678 -12.7979   C.2       1 RES1   0.0000
    20 C20     -5.5539   9.9500 -13.0377   C.2       1 RES1   0.0000
    21 C21     -6.2553   9.5109 -14.1471   C.2       1 RES1   0.0000
    22 C22     -5.6934   8.5743 -15.0165   C.2       1 RES1   0.0000
    23 N23     -3.8233   8.4731 -17.8017   N.am      1 RES1   0.0000
    24 C24     -3.2692   9.5335 -18.5120   C.2       1 RES1   0.0000
    25 O25     -2.0684   9.8419 -18.4227   O.2       1 RES1   0.0000
    26 C26     -4.1180  10.1981 -19.4958   C.2       1 RES1   0.0000
    27 C27     -3.7654  11.1271 -20.3443   C.2       1 RES1   0.0000
    28 C28     -4.6855  11.7385 -21.2996   C.2       1 RES1   0.0000
    29 C29     -6.0212  11.3092 -21.2822   C.2       1 RES1   0.0000
    30 C30     -6.9378  11.8755 -22.1394   C.2       1 RES1   0.0000
    31 Cl31    -8.5769  11.2962 -22.1329   Cl        1 RES1   0.0000
    32 C32     -6.5870  12.8758 -23.0163   C.2       1 RES1   0.0000
    33 C33     -5.2726  13.3169 -23.0493   C.2       1 RES1   0.0000
    34 C34     -4.3117  12.7489 -22.2034   C.2       1 RES1   0.0000
    35 N35     -2.9426  13.1627 -22.3233   N.pl3     1 RES1   0.0000
    36 C36     -2.1238  13.2483 -23.3754   C.2       1 RES1   0.0000
    37 N37     -0.9471  13.6596 -22.9884   N.2       1 RES1   0.0000
    38 N38     -1.0462  13.8335 -21.6485   N.2       1 RES1   0.0000
    39 N39     -2.2421  13.5486 -21.2262   N.2       1 RES1   0.0000
    40 C40     -2.5404   5.3514 -17.6218   C.2       1 RES1   0.0000
    41 C41     -2.8903   2.4114 -17.2194   C.2       1 RES1   0.0000
    42 C42     -3.3070   1.0897 -17.2026   C.2       1 RES1   0.0000
@<TRIPOS>BOND
     1     1     2    1
     2     2     3    1
     3     3     4    2
     4     3     5   am
     5     5     6    1
     6     6     7    2
     7     7     8    1
     8     8     9    2
     9     9    10    1
    10    10    11    2
    11    11    12    1
    12    12    13    2
    13    13    14    1
    14    14    15    1
    15    15    16    1
    16    16    17    1
    17    17    18    2
    18    18    19    1
    19    19    20    2
    20    20    21    1
    21    21    22    2
    22    15    23    1
    23    23    24   am
    24    24    25    2
    25    24    26    1
    26    26    27    2
    27    27    28    1
    28    28    29    2
    29    29    30    1
    30    30    31    1
    31    30    32    2
    32    32    33    1
    33    33    34    2
    34    34    35    1
    35    35    36    1
    36    36    37    2
    37    37    38    1
    38    38    39    2
    39    14    40    2
    40     9    41    1
    41    41    42    2
    42    42     6    1
    43    40    10    1
    44    22    17    1
    45    34    28    1
    46    39    35    1
@<TRIPOS>SUBSTRUCTURE
     1 RES1        1 GROUP             0 ****  ****    0  
@<TRIPOS>MOLECULE
ligand_78
    42    46     1     0     0
SMALL
NO_CHARGES
****
Generated from the CSD

@<TRIPOS>ATOM
     1 C1      -4.3315  -4.1891 -16.8307   C.3       1 RES1   0.0000
     2 O2      -3.7471  -3.2184 -17.7813   O.3       1 RES1   0.0000
     3 C3      -3.6496  -1.9587 -17.3397   C.2       1 RES1   0.0000
     4 O4      -4.0022  -1.5757 -16.2369   O.2       1 RES1   0.0000
     5 N5      -3.1243  -1.1822 -18.3236   N.am      1 RES1   0.0000
     6 C6      -2.8861   0.2122 -18.2628   C.2       1 RES1   0.0000
     7 C7      -3.1584   1.0382 -17.1623   C.2       1 RES1   0.0000
     8 C8      -2.8548   2.3907 -17.2098   C.2       1 RES1   0.0000
     9 C9      -2.2328   2.9611 -18.3285   C.2       1 RES1   0.0000
    10 C10     -1.8267   4.3952 -18.3471   C.2       1 RES1   0.0000
    11 C11     -0.7064   4.8440 -19.0567   C.2       1 RES1   0.0000
    12 C12     -0.3681   6.1826 -18.9940   C.2       1 RES1   0.0000
    13 N13     -1.0750   7.0986 -18.3124   N.2       1 RES1   0.0000
    14 C14     -2.1507   6.6614 -17.6381   C.2       1 RES1   0.0000
    15 C15     -2.9515   7.6986 -16.9197   C.3       1 RES1   0.0000
    16 C16     -3.7435   7.0887 -15.7574   C.3       1 RES1   0.0000
    17 C17     -4.3905   8.0882 -14.8146   C.2       1 RES1   0.0000
    18 C18     -3.6754   8.5517 -13.6883   C.2       1 RES1   0.0000
    19 C19     -4.2551   9.4678 -12.7979   C.2       1 RES1   0.0000
    20 C20     -5.5539   9.9500 -13.0377   C.2       1 RES1   0.0000
    21 C21     -6.2553   9.5109 -14.1471   C.2       1 RES1   0.0000
    22 C22     -5.6934   8.5743 -15.0165   C.2       1 RES1   0.0000
    23 N23     -3.8233   8.4731 -17.8017   N.am      1 RES1   0.0000
    24 C24     -3.2692   9.5335 -18.5120   C.2       1 RES1   0.0000
    25 O25     -2.0684   9.8419 -18.4227   O.2       1 RES1   0.0000
    26 C26     -4.1180  10.1981 -19.4958   C.2       1 RES1   0.0000
    27 C27     -3.7654  11.1271 -20.3443   C.2       1 RES1   0.0000
    28 C28     -4.6855  11.7385 -21.2996   C.2       1 RES1   0.0000
    29 C29     -6.0212  11.3092 -21.2822   C.2       1 RES1   0.0000
    30 C30     -6.9378  11.8755 -22.1394   C.2       1 RES1   0.0000
    31 Cl31    -8.5769  11.2962 -22.1329   Cl        1 RES1   0.0000
    32 C32     -6.5870  12.8758 -23.0163   C.2       1 RES1   0.0000
    33 C33     -5.2726  13.3169 -23.0493   C.2       1 RES1   0.0000
    34 C34     -4.3117  12.7489 -22.2034   C.2       1 RES1   0.0000
    35 N35     -2.9426  13.1627 -22.3233   N.pl3     1 RES1   0.0000
    36 C36     -2.1238  13.2483 -23.3754   C.2       1 RES1   0.0000
    37 N37     -0.9471  13.6596 -22.9884   N.2       1 RES1   0.0000
    38 N38     -1.0462  13.8335 -21.6485   N.2       1 RES1   0.0000
    39 N39     -2.2421  13.5486 -21.2262   N.2       1 RES1   0.0000
    40 C40     -2.5404   5.3514 -17.6218   C.2       1 RES1   0.0000
    41 C41     -1.9687   2.1217 -19.4194   C.2       1 RES1   0.0000
    42 C42     -2.3068   0.7779 -19.4015   C.2       1 RES1   0.0000
@<TRIPOS>BOND
     1     1     2    1
     2     2     3    1
     3     3     4    2
     4     3     5   am
     5     5     6    1
     6     6     7    2
     7     7     8    1
     8     8     9    2
     9     9    10    1
    10    10    11    2
    11    11    12    1
    12    12    13    2
    13    13    14    1
    14    14    15    1
    15    15    16    1
    16    16    17    1
    17    17    18    2
    18    18    19    1
    19    19    20    2
    20    20    21    1
    21    21    22    2
    22    15    23    1
    23    23    24   am
    24    24    25    2
    25    24    26    1
    26    26    27    2
    27    27    28    1
    28    28    29    2
    29    29    30    1
    30    30    31    1
    31    30    32    2
    32    32    33    1
    33    33    34    2
    34    34    35    1
    35    35    36    1
    36    36    37    2
    37    37    38    1
    38    38    39    2
    39    14    40    2
    40     9    41    1
    41    41    42    2
    42    42     6    1
    43    40    10    1
    44    22    17    1
    45    34    28    1
    46    39    35    1
@<TRIPOS>SUBSTRUCTURE
     1 RES1        1 GROUP             0 ****  ****    0  
@<TRIPOS>MOLECULE
ligand_79
    42    46     1     0     0
SMALL
NO_CHARGES
****
Generated from the CSD

@<TRIPOS>ATOM
     1 C1      -3.2964  21.7900  -6.2557   C.3       1 RES1   0.0000
     2 O2      -3.0641  21.0579  -7.5195   O.3       1 RES1   0.0000
     3 C3      -4.1077  20.9945  -8.3552   C.2       1 RES1   0.0000
     4 O4      -5.2028  21.4879  -8.1440   O.2       1 RES1   0.0000
     5 N5      -3.7556  20.2736  -9.4521   N.am      1 RES1   0.0000
     6 C6      -4.5841  19.9553 -10.5553   C.2       1 RES1   0.0000
     7 C7      -5.9267  20.3336 -10.7021   C.2       1 RES1   0.0000
     8 C8      -6.6314  19.9856 -11.8449   C.2       1 RES1   0.0000
     9 C9      -6.0199  19.2912 -12.8974   C.2       1 RES1   0.0000
    10 C10     -6.7502  18.9928 -14.1620   C.2       1 RES1   0.0000
    11 C11     -8.1306  18.7606 -14.1892   C.2       1 RES1   0.0000
    12 C12     -8.7321  18.4497 -15.3941   C.2       1 RES1   0.0000
    13 N13     -8.0723  18.3876 -16.5621   N.2       1 RES1   0.0000
    14 C14     -6.7496  18.6159 -16.5287   C.2       1 RES1   0.0000
    15 C15     -6.0365  18.5856 -17.8417   C.3       1 RES1   0.0000
    16 C16     -6.3125  19.8535 -18.6581   C.3       1 RES1   0.0000
    17 C17     -5.4437  20.0369 -19.8901   C.2       1 RES1   0.0000
    18 C18     -4.2195  20.7335 -19.7856   C.2       1 RES1   0.0000
    19 C19     -3.4043  20.9238 -20.9113   C.2       1 RES1   0.0000
    20 C20     -3.7952  20.3973 -22.1550   C.2       1 RES1   0.0000
    21 C21     -4.9868  19.7014 -22.2620   C.2       1 RES1   0.0000
    22 C22     -5.8157  19.5393 -21.1505   C.2       1 RES1   0.0000
    23 N23     -6.3148  17.3835 -18.6260   N.am      1 RES1   0.0000
    24 C24     -5.2977  16.8640 -19.4208   C.2       1 RES1   0.0000
    25 O25     -4.1687  17.3803 -19.4822   O.2       1 RES1   0.0000
    26 C26     -5.5492  15.5878 -20.0828   C.2       1 RES1   0.0000
    27 C27     -4.6984  14.8737 -20.7708   C.2       1 RES1   0.0000
    28 C28     -5.0375  13.6005 -21.4009   C.2       1 RES1   0.0000
    29 C29     -6.3652  13.1583 -21.3001   C.2       1 RES1   0.0000
    30 C30     -6.7467  11.9808 -21.9032   C.2       1 RES1   0.0000
    31 Cl31    -8.3856  11.4287 -21.7268   Cl        1 RES1   0.0000
    32 C32     -5.8597  11.2179 -22.6269   C.2       1 RES1   0.0000
    33 C33     -4.5426  11.6369 -22.7412   C.2       1 RES1   0.0000
    34 C34     -4.1181  12.8203 -22.1242   C.2       1 RES1   0.0000
    35 N35     -2.7302  13.1812 -22.1846   N.pl3     1 RES1   0.0000
    36 C36     -1.8833  13.3068 -23.2101   C.2       1 RES1   0.0000
    37 N37     -0.7000  13.6369 -22.7693   N.2       1 RES1   0.0000
    38 N38     -0.8239  13.7172 -21.4226   N.2       1 RES1   0.0000
    39 N39     -2.0406  13.4552 -21.0477   N.2       1 RES1   0.0000
    40 C40     -6.0697  18.9015 -15.3778   C.2       1 RES1   0.0000
    41 C41     -4.6782  18.9202 -12.7337   C.2       1 RES1   0.0000
    42 C42     -3.9755  19.2237 -11.5784   C.2       1 RES1   0.0000
@<TRIPOS>BOND
     1     1     2    1
     2     2     3    1
     3     3     4    2
     4     3     5   am
     5     5     6    1
     6     6     7    2
     7     7     8    1
     8     8     9    2
     9     9    10    1
    10    10    11    2
    11    11    12    1
    12    12    13    2
    13    13    14    1
    14    14    15    1
    15    15    16    1
    16    16    17    1
    17    17    18    2
    18    18    19    1
    19    19    20    2
    20    20    21    1
    21    21    22    2
    22    15    23    1
    23    23    24   am
    24    24    25    2
    25    24    26    1
    26    26    27    2
    27    27    28    1
    28    28    29    2
    29    29    30    1
    30    30    31    1
    31    30    32    2
    32    32    33    1
    33    33    34    2
    34    34    35    1
    35    35    36    1
    36    36    37    2
    37    37    38    1
    38    38    39    2
    39    14    40    2
    40     9    41    1
    41    41    42    2
    42    42     6    1
    43    40    10    1
    44    22    17    1
    45    34    28    1
    46    39    35    1
@<TRIPOS>SUBSTRUCTURE
     1 RES1        1 GROUP             0 ****  ****    0  
@<TRIPOS>MOLECULE
ligand_80
    42    46     1     0     0
SMALL
NO_CHARGES
****
Generated from the CSD

@<TRIPOS>ATOM
     1 C1      -1.4235  19.7825  -6.8637   C.3       1 RES1   0.0000
     2 O2      -2.7386  20.0723  -7.4749   O.3       1 RES1   0.0000
     3 C3      -2.9033  19.6421  -8.7316   C.2       1 RES1   0.0000
     4 O4      -2.0617  19.0452  -9.3816   O.2       1 RES1   0.0000
     5 N5      -4.1398  20.0018  -9.1661   N.am      1 RES1   0.0000
     6 C6      -4.6888  19.7574 -10.4482   C.2       1 RES1   0.0000
     7 C7      -4.0387  19.0961 -11.5005   C.2       1 RES1   0.0000
     8 C8      -4.6908  18.8899 -12.7072   C.2       1 RES1   0.0000
     9 C9      -6.0199  19.2912 -12.8974   C.2       1 RES1   0.0000
    10 C10     -6.7502  18.9928 -14.1620   C.2       1 RES1   0.0000
    11 C11     -8.1306  18.7606 -14.1892   C.2       1 RES1   0.0000
    12 C12     -8.7321  18.4497 -15.3941   C.2       1 RES1   0.0000
    13 N13     -8.0723  18.3876 -16.5621   N.2       1 RES1   0.0000
    14 C14     -6.7496  18.6159 -16.5287   C.2       1 RES1   0.0000
    15 C15     -6.0365  18.5856 -17.8417   C.3       1 RES1   0.0000
    16 C16     -6.3125  19.8535 -18.6581   C.3       1 RES1   0.0000
    17 C17     -5.4437  20.0369 -19.8901   C.2       1 RES1   0.0000
    18 C18     -4.2195  20.7335 -19.7856   C.2       1 RES1   0.0000
    19 C19     -3.4043  20.9238 -20.9113   C.2       1 RES1   0.0000
    20 C20     -3.7952  20.3973 -22.1550   C.2       1 RES1   0.0000
    21 C21     -4.9868  19.7014 -22.2620   C.2       1 RES1   0.0000
    22 C22     -5.8157  19.5393 -21.1505   C.2       1 RES1   0.0000
    23 N23     -6.3148  17.3835 -18.6260   N.am      1 RES1   0.0000
    24 C24     -5.2977  16.8640 -19.4208   C.2       1 RES1   0.0000
    25 O25     -4.1687  17.3803 -19.4822   O.2       1 RES1   0.0000
    26 C26     -5.5492  15.5878 -20.0828   C.2       1 RES1   0.0000
    27 C27     -4.6984  14.8737 -20.7708   C.2       1 RES1   0.0000
    28 C28     -5.0375  13.6005 -21.4009   C.2       1 RES1   0.0000
    29 C29     -6.3652  13.1583 -21.3001   C.2       1 RES1   0.0000
    30 C30     -6.7467  11.9808 -21.9032   C.2       1 RES1   0.0000
    31 Cl31    -8.3856  11.4287 -21.7268   Cl        1 RES1   0.0000
    32 C32     -5.8597  11.2179 -22.6269   C.2       1 RES1   0.0000
    33 C33     -4.5426  11.6369 -22.7412   C.2       1 RES1   0.0000
    34 C34     -4.1181  12.8203 -22.1242   C.2       1 RES1   0.0000
    35 N35     -2.7302  13.1812 -22.1846   N.pl3     1 RES1   0.0000
    36 C36     -1.8833  13.3068 -23.2101   C.2       1 RES1   0.0000
    37 N37     -0.7000  13.6369 -22.7693   N.2       1 RES1   0.0000
    38 N38     -0.8239  13.7172 -21.4226   N.2       1 RES1   0.0000
    39 N39     -2.0406  13.4552 -21.0477   N.2       1 RES1   0.0000
    40 C40     -6.0697  18.9015 -15.3778   C.2       1 RES1   0.0000
    41 C41     -6.6541  19.9512 -11.8359   C.2       1 RES1   0.0000
    42 C42     -5.9993  20.2021 -10.6405   C.2       1 RES1   0.0000
@<TRIPOS>BOND
     1     1     2    1
     2     2     3    1
     3     3     4    2
     4     3     5   am
     5     5     6    1
     6     6     7    2
     7     7     8    1
     8     8     9    2
     9     9    10    1
    10    10    11    2
    11    11    12    1
    12    12    13    2
    13    13    14    1
    14    14    15    1
    15    15    16    1
    16    16    17    1
    17    17    18    2
    18    18    19    1
    19    19    20    2
    20    20    21    1
    21    21    22    2
    22    15    23    1
    23    23    24   am
    24    24    25    2
    25    24    26    1
    26    26    27    2
    27    27    28    1
    28    28    29    2
    29    29    30    1
    30    30    31    1
    31    30    32    2
    32    32    33    1
    33    33    34    2
    34    34    35    1
    35    35    36    1
    36    36    37    2
    37    37    38    1
    38    38    39    2
    39    14    40    2
    40     9    41    1
    41    41    42    2
    42    42     6    1
    43    40    10    1
    44    22    17    1
    45    34    28    1
    46    39    35    1
@<TRIPOS>SUBSTRUCTURE
     1 RES1        1 GROUP             0 ****  ****    0  
@<TRIPOS>MOLECULE
ligand_81
    42    46     1     0     0
SMALL
NO_CHARGES
****
Generated from the CSD

@<TRIPOS>ATOM
     1 C1      -3.4313  14.9002 -37.3362   C.3       1 RES1   0.0000
     2 O2      -4.2237  13.7013 -36.9868   O.3       1 RES1   0.0000
     3 C3      -3.9571  13.1552 -35.7942   C.2       1 RES1   0.0000
     4 O4      -3.1273  13.5732 -35.0043   O.2       1 RES1   0.0000
     5 N5      -4.7365  12.0548 -35.6250   N.am      1 RES1   0.0000
     6 C6      -4.7374  11.1840 -34.5085   C.2       1 RES1   0.0000
     7 C7      -3.9209  11.3112 -33.3752   C.2       1 RES1   0.0000
     8 C8      -4.0316  10.4090 -32.3275   C.2       1 RES1   0.0000
     9 C9      -4.9821   9.3794 -32.3472   C.2       1 RES1   0.0000
    10 C10     -5.1618   8.4630 -31.1855   C.2       1 RES1   0.0000
    11 C11     -6.0941   7.4186 -31.1967   C.2       1 RES1   0.0000
    12 C12     -6.2329   6.6349 -30.0666   C.2       1 RES1   0.0000
    13 N13     -5.4967   6.7936 -28.9549   N.2       1 RES1   0.0000
    14 C14     -4.6016   7.7945 -28.9534   C.2       1 RES1   0.0000
    15 C15     -3.7602   7.9318 -27.7260   C.3       1 RES1   0.0000
    16 C16     -3.2193   6.5740 -27.2631   C.3       1 RES1   0.0000
    17 C17     -2.1562   6.6312 -26.1802   C.2       1 RES1   0.0000
    18 C18     -0.7932   6.7121 -26.5414   C.2       1 RES1   0.0000
    19 C19      0.2077   6.7566 -25.5594   C.2       1 RES1   0.0000
    20 C20     -0.1465   6.7437 -24.1988   C.2       1 RES1   0.0000
    21 C21     -1.4810   6.6788 -23.8373   C.2       1 RES1   0.0000
    22 C22     -2.4769   6.6009 -24.8125   C.2       1 RES1   0.0000
    23 N23     -4.4365   8.6293 -26.6334   N.am      1 RES1   0.0000
    24 C24     -3.6741   9.4337 -25.7920   C.2       1 RES1   0.0000
    25 O25     -2.4489   9.5819 -25.9398   O.2       1 RES1   0.0000
    26 C26     -4.3871  10.2308 -24.7988   C.2       1 RES1   0.0000
    27 C27     -3.8819  11.1312 -23.9980   C.2       1 RES1   0.0000
    28 C28     -4.6741  11.8864 -23.0310   C.2       1 RES1   0.0000
    29 C29     -6.0268  11.5424 -22.8883   C.2       1 RES1   0.0000
    30 C30     -6.8114  12.2004 -21.9679   C.2       1 RES1   0.0000
    31 Cl31    -8.4957  11.7896 -21.8401   Cl        1 RES1   0.0000
    32 C32     -6.3024  13.1896 -21.1585   C.2       1 RES1   0.0000
    33 C33     -4.9674  13.5446 -21.2813   C.2       1 RES1   0.0000
    34 C34     -4.1469  12.9075 -22.2206   C.2       1 RES1   0.0000
    35 N35     -2.7943  13.3579 -22.3869   N.pl3     1 RES1   0.0000
    36 C36     -2.0448  13.5532 -23.4754   C.2       1 RES1   0.0000
    37 N37     -0.8522  13.9523 -23.1262   N.2       1 RES1   0.0000
    38 N38     -0.8690  14.0044 -21.7725   N.2       1 RES1   0.0000
    39 N39     -2.0316  13.6590 -21.3048   N.2       1 RES1   0.0000
    40 C40     -4.4189   8.6348 -30.0158   C.2       1 RES1   0.0000
    41 C41     -5.7891   9.2663 -33.4876   C.2       1 RES1   0.0000
    42 C42     -5.6585  10.1347 -34.5598   C.2       1 RES1   0.0000
@<TRIPOS>BOND
     1     1     2    1
     2     2     3    1
     3     3     4    2
     4     3     5   am
     5     5     6    1
     6     6     7    2
     7     7     8    1
     8     8     9    2
     9     9    10    1
    10    10    11    2
    11    11    12    1
    12    12    13    2
    13    13    14    1
    14    14    15    1
    15    15    16    1
    16    16    17    1
    17    17    18    2
    18    18    19    1
    19    19    20    2
    20    20    21    1
    21    21    22    2
    22    15    23    1
    23    23    24   am
    24    24    25    2
    25    24    26    1
    26    26    27    2
    27    27    28    1
    28    28    29    2
    29    29    30    1
    30    30    31    1
    31    30    32    2
    32    32    33    1
    33    33    34    2
    34    34    35    1
    35    35    36    1
    36    36    37    2
    37    37    38    1
    38    38    39    2
    39    14    40    2
    40     9    41    1
    41    41    42    2
    42    42     6    1
    43    40    10    1
    44    22    17    1
    45    34    28    1
    46    39    35    1
@<TRIPOS>SUBSTRUCTURE
     1 RES1        1 GROUP             0 ****  ****    0  
@<TRIPOS>MOLECULE
ligand_82
    42    46     1     0     0
SMALL
NO_CHARGES
****
Generated from the CSD

@<TRIPOS>ATOM
     1 C1      -4.7314  13.0443 -39.0015   C.3       1 RES1   0.0000
     2 O2      -4.2056  12.8844 -37.6285   O.3       1 RES1   0.0000
     3 C3      -4.7695  11.9141 -36.8991   C.2       1 RES1   0.0000
     4 O4      -5.6616  11.1781 -37.2859   O.2       1 RES1   0.0000
     5 N5      -4.2078  11.9048 -35.6616   N.am      1 RES1   0.0000
     6 C6      -4.5459  11.0470 -34.5870   C.2       1 RES1   0.0000
     7 C7      -5.5327  10.0508 -34.6189   C.2       1 RES1   0.0000
     8 C8      -5.7559   9.2503 -33.5084   C.2       1 RES1   0.0000
     9 C9      -4.9821   9.3794 -32.3472   C.2       1 RES1   0.0000
    10 C10     -5.1618   8.4630 -31.1855   C.2       1 RES1   0.0000
    11 C11     -6.0941   7.4186 -31.1967   C.2       1 RES1   0.0000
    12 C12     -6.2329   6.6349 -30.0666   C.2       1 RES1   0.0000
    13 N13     -5.4967   6.7936 -28.9549   N.2       1 RES1   0.0000
    14 C14     -4.6016   7.7945 -28.9534   C.2       1 RES1   0.0000
    15 C15     -3.7602   7.9318 -27.7260   C.3       1 RES1   0.0000
    16 C16     -3.2193   6.5740 -27.2631   C.3       1 RES1   0.0000
    17 C17     -2.1562   6.6312 -26.1802   C.2       1 RES1   0.0000
    18 C18     -0.7932   6.7121 -26.5414   C.2       1 RES1   0.0000
    19 C19      0.2077   6.7566 -25.5594   C.2       1 RES1   0.0000
    20 C20     -0.1465   6.7437 -24.1988   C.2       1 RES1   0.0000
    21 C21     -1.4810   6.6788 -23.8373   C.2       1 RES1   0.0000
    22 C22     -2.4769   6.6009 -24.8125   C.2       1 RES1   0.0000
    23 N23     -4.4365   8.6293 -26.6334   N.am      1 RES1   0.0000
    24 C24     -3.6741   9.4337 -25.7920   C.2       1 RES1   0.0000
    25 O25     -2.4489   9.5819 -25.9398   O.2       1 RES1   0.0000
    26 C26     -4.3871  10.2308 -24.7988   C.2       1 RES1   0.0000
    27 C27     -3.8819  11.1312 -23.9980   C.2       1 RES1   0.0000
    28 C28     -4.6741  11.8864 -23.0310   C.2       1 RES1   0.0000
    29 C29     -6.0268  11.5424 -22.8883   C.2       1 RES1   0.0000
    30 C30     -6.8114  12.2004 -21.9679   C.2       1 RES1   0.0000
    31 Cl31    -8.4957  11.7896 -21.8401   Cl        1 RES1   0.0000
    32 C32     -6.3024  13.1896 -21.1586   C.2       1 RES1   0.0000
    33 C33     -4.9674  13.5446 -21.2813   C.2       1 RES1   0.0000
    34 C34     -4.1469  12.9075 -22.2206   C.2       1 RES1   0.0000
    35 N35     -2.7943  13.3579 -22.3869   N.pl3     1 RES1   0.0000
    36 C36     -2.0448  13.5532 -23.4754   C.2       1 RES1   0.0000
    37 N37     -0.8522  13.9522 -23.1262   N.2       1 RES1   0.0000
    38 N38     -0.8690  14.0043 -21.7725   N.2       1 RES1   0.0000
    39 N39     -2.0316  13.6590 -21.3048   N.2       1 RES1   0.0000
    40 C40     -4.4189   8.6348 -30.0158   C.2       1 RES1   0.0000
    41 C41     -4.0011  10.3804 -32.3321   C.2       1 RES1   0.0000
    42 C42     -3.7975  11.2155 -33.4192   C.2       1 RES1   0.0000
@<TRIPOS>BOND
     1     1     2    1
     2     2     3    1
     3     3     4    2
     4     3     5   am
     5     5     6    1
     6     6     7    2
     7     7     8    1
     8     8     9    2
     9     9    10    1
    10    10    11    2
    11    11    12    1
    12    12    13    2
    13    13    14    1
    14    14    15    1
    15    15    16    1
    16    16    17    1
    17    17    18    2
    18    18    19    1
    19    19    20    2
    20    20    21    1
    21    21    22    2
    22    15    23    1
    23    23    24   am
    24    24    25    2
    25    24    26    1
    26    26    27    2
    27    27    28    1
    28    28    29    2
    29    29    30    1
    30    30    31    1
    31    30    32    2
    32    32    33    1
    33    33    34    2
    34    34    35    1
    35    35    36    1
    36    36    37    2
    37    37    38    1
    38    38    39    2
    39    14    40    2
    40     9    41    1
    41    41    42    2
    42    42     6    1
    43    40    10    1
    44    22    17    1
    45    34    28    1
    46    39    35    1
@<TRIPOS>SUBSTRUCTURE
     1 RES1        1 GROUP             0 ****  ****    0  
@<TRIPOS>MOLECULE
ligand_83
    42    46     1     0     0
SMALL
NO_CHARGES
****
Generated from the CSD

@<TRIPOS>ATOM
     1 C1       4.1571  12.6050 -16.6812   C.3       1 RES1   0.0000
     2 O2       3.2710  13.2847 -15.7117   O.3       1 RES1   0.0000
     3 C3       2.1975  13.8921 -16.2315   C.2       1 RES1   0.0000
     4 O4       1.9153  13.9177 -17.4176   O.2       1 RES1   0.0000
     5 N5       1.4983  14.4913 -15.2320   N.am      1 RES1   0.0000
     6 C6       0.3157  15.2576 -15.3701   C.2       1 RES1   0.0000
     7 C7      -0.3404  15.5329 -16.5789   C.2       1 RES1   0.0000
     8 C8      -1.5123  16.2748 -16.5864   C.2       1 RES1   0.0000
     9 C9      -2.0962  16.7305 -15.3968   C.2       1 RES1   0.0000
    10 C10     -3.4004  17.4522 -15.3960   C.2       1 RES1   0.0000
    11 C11     -3.9881  17.9293 -14.2182   C.2       1 RES1   0.0000
    12 C12     -5.2191  18.5535 -14.2912   C.2       1 RES1   0.0000
    13 N13     -5.8810  18.7633 -15.4406   N.2       1 RES1   0.0000
    14 C14     -5.3090  18.3070 -16.5664   C.2       1 RES1   0.0000
    15 C15     -6.0365  18.5856 -17.8417   C.3       1 RES1   0.0000
    16 C16     -7.3207  19.3844 -17.5907   C.3       1 RES1   0.0000
    17 C17     -8.0065  19.9229 -18.8341   C.2       1 RES1   0.0000
    18 C18     -7.6641  21.2029 -19.3231   C.2       1 RES1   0.0000
    19 C19     -8.2903  21.7258 -20.4644   C.2       1 RES1   0.0000
    20 C20     -9.2538  20.9614 -21.1456   C.2       1 RES1   0.0000
    21 C21     -9.5842  19.7004 -20.6803   C.2       1 RES1   0.0000
    22 C22     -8.9866  19.1913 -19.5259   C.2       1 RES1   0.0000
    23 N23     -6.3093  17.3842 -18.6290   N.am      1 RES1   0.0000
    24 C24     -5.3379  16.9476 -19.5246   C.2       1 RES1   0.0000
    25 O25     -4.2765  17.5665 -19.7123   O.2       1 RES1   0.0000
    26 C26     -5.5357  15.6409 -20.1441   C.2       1 RES1   0.0000
    27 C27     -4.6989  14.9970 -20.9138   C.2       1 RES1   0.0000
    28 C28     -4.9803  13.6857 -21.4922   C.2       1 RES1   0.0000
    29 C29     -6.2410  13.1223 -21.2437   C.2       1 RES1   0.0000
    30 C30     -6.5705  11.9029 -21.7916   C.2       1 RES1   0.0000
    31 Cl31    -8.1205  11.2021 -21.4331   Cl        1 RES1   0.0000
    32 C32     -5.6974  11.2133 -22.6008   C.2       1 RES1   0.0000
    33 C33     -4.4465  11.7524 -22.8614   C.2       1 RES1   0.0000
    34 C34     -4.0734  12.9821 -22.3045   C.2       1 RES1   0.0000
    35 N35     -2.7411  13.4710 -22.5186   N.pl3     1 RES1   0.0000
    36 C36     -2.0253  13.6566 -23.6312   C.2       1 RES1   0.0000
    37 N37     -0.8385  14.1050 -23.3247   N.2       1 RES1   0.0000
    38 N38     -0.8240  14.1987 -21.9732   N.2       1 RES1   0.0000
    39 N39     -1.9627  13.8303 -21.4659   N.2       1 RES1   0.0000
    40 C40     -4.1085  17.6537 -16.5824   C.2       1 RES1   0.0000
    41 C41     -1.4270  16.4473 -14.1983   C.2       1 RES1   0.0000
    42 C42     -0.2326  15.7446 -14.1809   C.2       1 RES1   0.0000
@<TRIPOS>BOND
     1     1     2    1
     2     2     3    1
     3     3     4    2
     4     3     5   am
     5     5     6    1
     6     6     7    2
     7     7     8    1
     8     8     9    2
     9     9    10    1
    10    10    11    2
    11    11    12    1
    12    12    13    2
    13    13    14    1
    14    14    15    1
    15    15    16    1
    16    16    17    1
    17    17    18    2
    18    18    19    1
    19    19    20    2
    20    20    21    1
    21    21    22    2
    22    15    23    1
    23    23    24   am
    24    24    25    2
    25    24    26    1
    26    26    27    2
    27    27    28    1
    28    28    29    2
    29    29    30    1
    30    30    31    1
    31    30    32    2
    32    32    33    1
    33    33    34    2
    34    34    35    1
    35    35    36    1
    36    36    37    2
    37    37    38    1
    38    38    39    2
    39    14    40    2
    40     9    41    1
    41    41    42    2
    42    42     6    1
    43    40    10    1
    44    22    17    1
    45    34    28    1
    46    39    35    1
@<TRIPOS>SUBSTRUCTURE
     1 RES1        1 GROUP             0 ****  ****    0  
@<TRIPOS>MOLECULE
ligand_84
    42    46     1     0     0
SMALL
NO_CHARGES
****
Generated from the CSD

@<TRIPOS>ATOM
     1 C1       4.7218  13.6222 -14.1212   C.3       1 RES1   0.0000
     2 O2       3.6742  14.0125 -15.0894   O.3       1 RES1   0.0000
     3 C3       2.5900  14.5994 -14.5682   C.2       1 RES1   0.0000
     4 O4       2.4197  14.8242 -13.3818   O.2       1 RES1   0.0000
     5 N5       1.7099  14.8741 -15.5667   N.am      1 RES1   0.0000
     6 C6       0.4327  15.4691 -15.4269   C.2       1 RES1   0.0000
     7 C7      -0.1477  15.8782 -14.2173   C.2       1 RES1   0.0000
     8 C8      -1.3987  16.4772 -14.2081   C.2       1 RES1   0.0000
     9 C9      -2.0962  16.7305 -15.3968   C.2       1 RES1   0.0000
    10 C10     -3.4004  17.4522 -15.3960   C.2       1 RES1   0.0000
    11 C11     -3.9881  17.9293 -14.2182   C.2       1 RES1   0.0000
    12 C12     -5.2191  18.5535 -14.2912   C.2       1 RES1   0.0000
    13 N13     -5.8810  18.7633 -15.4406   N.2       1 RES1   0.0000
    14 C14     -5.3090  18.3070 -16.5664   C.2       1 RES1   0.0000
    15 C15     -6.0365  18.5856 -17.8417   C.3       1 RES1   0.0000
    16 C16     -7.3207  19.3844 -17.5907   C.3       1 RES1   0.0000
    17 C17     -8.0065  19.9229 -18.8341   C.2       1 RES1   0.0000
    18 C18     -7.6641  21.2029 -19.3231   C.2       1 RES1   0.0000
    19 C19     -8.2903  21.7258 -20.4644   C.2       1 RES1   0.0000
    20 C20     -9.2538  20.9614 -21.1456   C.2       1 RES1   0.0000
    21 C21     -9.5842  19.7004 -20.6803   C.2       1 RES1   0.0000
    22 C22     -8.9866  19.1913 -19.5259   C.2       1 RES1   0.0000
    23 N23     -6.3093  17.3842 -18.6290   N.am      1 RES1   0.0000
    24 C24     -5.3379  16.9476 -19.5246   C.2       1 RES1   0.0000
    25 O25     -4.2765  17.5665 -19.7123   O.2       1 RES1   0.0000
    26 C26     -5.5356  15.6409 -20.1442   C.2       1 RES1   0.0000
    27 C27     -4.6989  14.9970 -20.9138   C.2       1 RES1   0.0000
    28 C28     -4.9803  13.6857 -21.4922   C.2       1 RES1   0.0000
    29 C29     -6.2410  13.1223 -21.2438   C.2       1 RES1   0.0000
    30 C30     -6.5704  11.9029 -21.7916   C.2       1 RES1   0.0000
    31 Cl31    -8.1205  11.2021 -21.4331   Cl        1 RES1   0.0000
    32 C32     -5.6974  11.2133 -22.6008   C.2       1 RES1   0.0000
    33 C33     -4.4464  11.7524 -22.8614   C.2       1 RES1   0.0000
    34 C34     -4.0734  12.9821 -22.3045   C.2       1 RES1   0.0000
    35 N35     -2.7410  13.4710 -22.5186   N.pl3     1 RES1   0.0000
    36 C36     -2.0252  13.6566 -23.6312   C.2       1 RES1   0.0000
    37 N37     -0.8384  14.1050 -23.3247   N.2       1 RES1   0.0000
    38 N38     -0.8240  14.1987 -21.9732   N.2       1 RES1   0.0000
    39 N39     -1.9627  13.8303 -21.4658   N.2       1 RES1   0.0000
    40 C40     -4.1085  17.6537 -16.5824   C.2       1 RES1   0.0000
    41 C41     -1.5022  16.3144 -16.5962   C.2       1 RES1   0.0000
    42 C42     -0.2725  15.6756 -16.6153   C.2       1 RES1   0.0000
@<TRIPOS>BOND
     1     1     2    1
     2     2     3    1
     3     3     4    2
     4     3     5   am
     5     5     6    1
     6     6     7    2
     7     7     8    1
     8     8     9    2
     9     9    10    1
    10    10    11    2
    11    11    12    1
    12    12    13    2
    13    13    14    1
    14    14    15    1
    15    15    16    1
    16    16    17    1
    17    17    18    2
    18    18    19    1
    19    19    20    2
    20    20    21    1
    21    21    22    2
    22    15    23    1
    23    23    24   am
    24    24    25    2
    25    24    26    1
    26    26    27    2
    27    27    28    1
    28    28    29    2
    29    29    30    1
    30    30    31    1
    31    30    32    2
    32    32    33    1
    33    33    34    2
    34    34    35    1
    35    35    36    1
    36    36    37    2
    37    37    38    1
    38    38    39    2
    39    14    40    2
    40     9    41    1
    41    41    42    2
    42    42     6    1
    43    40    10    1
    44    22    17    1
    45    34    28    1
    46    39    35    1
@<TRIPOS>SUBSTRUCTURE
     1 RES1        1 GROUP             0 ****  ****    0  
@<TRIPOS>MOLECULE
ligand_85
    42    46     1     0     0
SMALL
NO_CHARGES
****
Generated from the CSD

@<TRIPOS>ATOM
     1 C1       6.3095  -0.4504 -15.4393   C.3       1 RES1   0.0000
     2 O2       5.2323   0.4412 -14.9577   O.3       1 RES1   0.0000
     3 C3       4.4075   0.9176 -15.8981   C.2       1 RES1   0.0000
     4 O4       4.4882   0.6687 -17.0892   O.2       1 RES1   0.0000
     5 N5       3.4936   1.7367 -15.3143   N.am      1 RES1   0.0000
     6 C6       2.4651   2.4569 -15.9687   C.2       1 RES1   0.0000
     7 C7       2.2148   2.4475 -17.3488   C.2       1 RES1   0.0000
     8 C8       1.1563   3.1743 -17.8734   C.2       1 RES1   0.0000
     9 C9       0.2857   3.8975 -17.0471   C.2       1 RES1   0.0000
    10 C10     -0.9028   4.6073 -17.5995   C.2       1 RES1   0.0000
    11 C11     -1.6042   4.1318 -18.7140   C.2       1 RES1   0.0000
    12 C12     -2.6722   4.8660 -19.1942   C.2       1 RES1   0.0000
    13 N13     -3.1061   6.0055 -18.6316   N.2       1 RES1   0.0000
    14 C14     -2.4312   6.4528 -17.5605   C.2       1 RES1   0.0000
    15 C15     -2.9515   7.6986 -16.9197   C.3       1 RES1   0.0000
    16 C16     -3.6737   7.3912 -15.6028   C.3       1 RES1   0.0000
    17 C17     -4.0205   8.6006 -14.7523   C.2       1 RES1   0.0000
    18 C18     -3.0985   9.0659 -13.7888   C.2       1 RES1   0.0000
    19 C19     -3.3999  10.1753 -12.9848   C.2       1 RES1   0.0000
    20 C20     -4.6228  10.8488 -13.1521   C.2       1 RES1   0.0000
    21 C21     -5.5251  10.4070 -14.1041   C.2       1 RES1   0.0000
    22 C22     -5.2417   9.2833 -14.8825   C.2       1 RES1   0.0000
    23 N23     -3.7930   8.5001 -17.8069   N.am      1 RES1   0.0000
    24 C24     -3.2038   9.5499 -18.5047   C.2       1 RES1   0.0000
    25 O25     -1.9948   9.8212 -18.4068   O.2       1 RES1   0.0000
    26 C26     -4.0274  10.2486 -19.4864   C.2       1 RES1   0.0000
    27 C27     -3.6428  11.1743 -20.3246   C.2       1 RES1   0.0000
    28 C28     -4.5394  11.8217 -21.2785   C.2       1 RES1   0.0000
    29 C29     -5.8874  11.4327 -21.2714   C.2       1 RES1   0.0000
    30 C30     -6.7823  12.0339 -22.1277   C.2       1 RES1   0.0000
    31 Cl31    -8.4380  11.5043 -22.1342   Cl        1 RES1   0.0000
    32 C32     -6.3972  13.0311 -22.9937   C.2       1 RES1   0.0000
    33 C33     -5.0700  13.4328 -23.0164   C.2       1 RES1   0.0000
    34 C34     -4.1309  12.8284 -22.1712   C.2       1 RES1   0.0000
    35 N35     -2.7494  13.2019 -22.2809   N.pl3     1 RES1   0.0000
    36 C36     -1.9231  13.2724 -23.3283   C.2       1 RES1   0.0000
    37 N37     -0.7365  13.6446 -22.9321   N.2       1 RES1   0.0000
    38 N38     -0.8370  13.8092 -21.5911   N.2       1 RES1   0.0000
    39 N39     -2.0430  13.5566 -21.1771   N.2       1 RES1   0.0000
    40 C40     -1.3469   5.8058 -17.0372   C.2       1 RES1   0.0000
    41 C41      0.5509   3.8967 -15.6708   C.2       1 RES1   0.0000
    42 C42      1.6309   3.2102 -15.1387   C.2       1 RES1   0.0000
@<TRIPOS>BOND
     1     1     2    1
     2     2     3    1
     3     3     4    2
     4     3     5   am
     5     5     6    1
     6     6     7    2
     7     7     8    1
     8     8     9    2
     9     9    10    1
    10    10    11    2
    11    11    12    1
    12    12    13    2
    13    13    14    1
    14    14    15    1
    15    15    16    1
    16    16    17    1
    17    17    18    2
    18    18    19    1
    19    19    20    2
    20    20    21    1
    21    21    22    2
    22    15    23    1
    23    23    24   am
    24    24    25    2
    25    24    26    1
    26    26    27    2
    27    27    28    1
    28    28    29    2
    29    29    30    1
    30    30    31    1
    31    30    32    2
    32    32    33    1
    33    33    34    2
    34    34    35    1
    35    35    36    1
    36    36    37    2
    37    37    38    1
    38    38    39    2
    39    14    40    2
    40     9    41    1
    41    41    42    2
    42    42     6    1
    43    40    10    1
    44    22    17    1
    45    34    28    1
    46    39    35    1
@<TRIPOS>SUBSTRUCTURE
     1 RES1        1 GROUP             0 ****  ****    0  
@<TRIPOS>MOLECULE
ligand_86
    42    46     1     0     0
SMALL
NO_CHARGES
****
Generated from the CSD

@<TRIPOS>ATOM
     1 C1       6.1745   1.1304 -13.1177   C.3       1 RES1   0.0000
     2 O2       5.4894   1.2913 -14.4185   O.3       1 RES1   0.0000
     3 C3       4.3477   1.9895 -14.3921   C.2       1 RES1   0.0000
     4 O4       3.8547   2.4847 -13.3926   O.2       1 RES1   0.0000
     5 N5       3.8224   2.0300 -15.6448   N.am      1 RES1   0.0000
     6 C6       2.6092   2.6487 -16.0324   C.2       1 RES1   0.0000
     7 C7       1.7326   3.3311 -15.1761   C.2       1 RES1   0.0000
     8 C8       0.5830   3.9231 -15.6778   C.2       1 RES1   0.0000
     9 C9       0.2857   3.8975 -17.0471   C.2       1 RES1   0.0000
    10 C10     -0.9028   4.6073 -17.5995   C.2       1 RES1   0.0000
    11 C11     -1.6042   4.1318 -18.7140   C.2       1 RES1   0.0000
    12 C12     -2.6722   4.8660 -19.1942   C.2       1 RES1   0.0000
    13 N13     -3.1061   6.0055 -18.6316   N.2       1 RES1   0.0000
    14 C14     -2.4312   6.4528 -17.5605   C.2       1 RES1   0.0000
    15 C15     -2.9515   7.6986 -16.9197   C.3       1 RES1   0.0000
    16 C16     -3.6737   7.3912 -15.6028   C.3       1 RES1   0.0000
    17 C17     -4.0205   8.6006 -14.7523   C.2       1 RES1   0.0000
    18 C18     -3.0985   9.0659 -13.7888   C.2       1 RES1   0.0000
    19 C19     -3.3999  10.1753 -12.9848   C.2       1 RES1   0.0000
    20 C20     -4.6228  10.8488 -13.1521   C.2       1 RES1   0.0000
    21 C21     -5.5251  10.4070 -14.1041   C.2       1 RES1   0.0000
    22 C22     -5.2417   9.2833 -14.8825   C.2       1 RES1   0.0000
    23 N23     -3.7930   8.5001 -17.8069   N.am      1 RES1   0.0000
    24 C24     -3.2038   9.5499 -18.5047   C.2       1 RES1   0.0000
    25 O25     -1.9948   9.8212 -18.4068   O.2       1 RES1   0.0000
    26 C26     -4.0274  10.2486 -19.4864   C.2       1 RES1   0.0000
    27 C27     -3.6428  11.1743 -20.3246   C.2       1 RES1   0.0000
    28 C28     -4.5394  11.8217 -21.2785   C.2       1 RES1   0.0000
    29 C29     -5.8874  11.4327 -21.2714   C.2       1 RES1   0.0000
    30 C30     -6.7823  12.0339 -22.1277   C.2       1 RES1   0.0000
    31 Cl31    -8.4380  11.5043 -22.1342   Cl        1 RES1   0.0000
    32 C32     -6.3972  13.0311 -22.9937   C.2       1 RES1   0.0000
    33 C33     -5.0700  13.4328 -23.0164   C.2       1 RES1   0.0000
    34 C34     -4.1309  12.8284 -22.1712   C.2       1 RES1   0.0000
    35 N35     -2.7494  13.2019 -22.2809   N.pl3     1 RES1   0.0000
    36 C36     -1.9231  13.2724 -23.3283   C.2       1 RES1   0.0000
    37 N37     -0.7365  13.6446 -22.9321   N.2       1 RES1   0.0000
    38 N38     -0.8370  13.8092 -21.5911   N.2       1 RES1   0.0000
    39 N39     -2.0430  13.5566 -21.1771   N.2       1 RES1   0.0000
    40 C40     -1.3469   5.8058 -17.0372   C.2       1 RES1   0.0000
    41 C41      1.1718   3.2106 -17.8882   C.2       1 RES1   0.0000
    42 C42      2.3010   2.5776 -17.3934   C.2       1 RES1   0.0000
@<TRIPOS>BOND
     1     1     2    1
     2     2     3    1
     3     3     4    2
     4     3     5   am
     5     5     6    1
     6     6     7    2
     7     7     8    1
     8     8     9    2
     9     9    10    1
    10    10    11    2
    11    11    12    1
    12    12    13    2
    13    13    14    1
    14    14    15    1
    15    15    16    1
    16    16    17    1
    17    17    18    2
    18    18    19    1
    19    19    20    2
    20    20    21    1
    21    21    22    2
    22    15    23    1
    23    23    24   am
    24    24    25    2
    25    24    26    1
    26    26    27    2
    27    27    28    1
    28    28    29    2
    29    29    30    1
    30    30    31    1
    31    30    32    2
    32    32    33    1
    33    33    34    2
    34    34    35    1
    35    35    36    1
    36    36    37    2
    37    37    38    1
    38    38    39    2
    39    14    40    2
    40     9    41    1
    41    41    42    2
    42    42     6    1
    43    40    10    1
    44    22    17    1
    45    34    28    1
    46    39    35    1
@<TRIPOS>SUBSTRUCTURE
     1 RES1        1 GROUP             0 ****  ****    0  
@<TRIPOS>MOLECULE
ligand_87
    42    46     1     0     0
SMALL
NO_CHARGES
****
Generated from the CSD

@<TRIPOS>ATOM
     1 C1      -0.9827  25.1448  -9.3294   C.3       1 RES1   0.0000
     2 O2      -1.8765  23.9670  -9.2977   O.3       1 RES1   0.0000
     3 C3      -2.2753  23.5073 -10.4898   C.2       1 RES1   0.0000
     4 O4      -1.9564  23.9856 -11.5653   O.2       1 RES1   0.0000
     5 N5      -3.1069  22.4488 -10.3024   N.am      1 RES1   0.0000
     6 C6      -3.7618  21.7004 -11.3103   C.2       1 RES1   0.0000
     7 C7      -3.6629  21.9307 -12.6904   C.2       1 RES1   0.0000
     8 C8      -4.3315  21.1103 -13.5869   C.2       1 RES1   0.0000
     9 C9      -5.0829  20.0107 -13.1508   C.2       1 RES1   0.0000
    10 C10     -5.7299  19.0773 -14.1162   C.2       1 RES1   0.0000
    11 C11     -6.4985  17.9850 -13.6965   C.2       1 RES1   0.0000
    12 C12     -7.0337  17.1392 -14.6497   C.2       1 RES1   0.0000
    13 N13     -6.8884  17.3203 -15.9723   N.2       1 RES1   0.0000
    14 C14     -6.1537  18.3726 -16.3672   C.2       1 RES1   0.0000
    15 C15     -6.0365  18.5856 -17.8417   C.3       1 RES1   0.0000
    16 C16     -6.9023  19.7617 -18.3080   C.3       1 RES1   0.0000
    17 C17     -6.6661  20.2180 -19.7371   C.2       1 RES1   0.0000
    18 C18     -5.7009  21.2143 -20.0030   C.2       1 RES1   0.0000
    19 C19     -5.4714  21.6589 -21.3136   C.2       1 RES1   0.0000
    20 C20     -6.1917  21.0931 -22.3803   C.2       1 RES1   0.0000
    21 C21     -7.1290  20.1064 -22.1289   C.2       1 RES1   0.0000
    22 C22     -7.3830  19.6857 -20.8222   C.2       1 RES1   0.0000
    23 N23     -6.3148  17.3835 -18.6260   N.am      1 RES1   0.0000
    24 C24     -5.3023  16.8725 -19.4321   C.2       1 RES1   0.0000
    25 O25     -4.1792  17.3996 -19.5080   O.2       1 RES1   0.0000
    26 C26     -5.5493  15.5926 -20.0887   C.2       1 RES1   0.0000
    27 C27     -4.6999  14.8855 -20.7857   C.2       1 RES1   0.0000
    28 C28     -5.0342  13.6079 -21.4094   C.2       1 RES1   0.0000
    29 C29     -6.3559  13.1523 -21.2907   C.2       1 RES1   0.0000
    30 C30     -6.7331  11.9701 -21.8870   C.2       1 RES1   0.0000
    31 Cl31    -8.3639  11.4016 -21.6885   Cl        1 RES1   0.0000
    32 C32     -5.8478  11.2150 -22.6210   C.2       1 RES1   0.0000
    33 C33     -4.5366  11.6472 -22.7531   C.2       1 RES1   0.0000
    34 C34     -4.1163  12.8359 -22.1434   C.2       1 RES1   0.0000
    35 N35     -2.7330  13.2108 -22.2223   N.pl3     1 RES1   0.0000
    36 C36     -1.9008  13.3435 -23.2589   C.2       1 RES1   0.0000
    37 N37     -0.7153  13.6863 -22.8341   N.2       1 RES1   0.0000
    38 N38     -0.8225  13.7673 -21.4859   N.2       1 RES1   0.0000
    39 N39     -2.0316  13.4936 -21.0948   N.2       1 RES1   0.0000
    40 C40     -5.5644  19.2423 -15.4928   C.2       1 RES1   0.0000
    41 C41     -5.1718  19.7958 -11.7687   C.2       1 RES1   0.0000
    42 C42     -4.5444  20.6338 -10.8606   C.2       1 RES1   0.0000
@<TRIPOS>BOND
     1     1     2    1
     2     2     3    1
     3     3     4    2
     4     3     5   am
     5     5     6    1
     6     6     7    2
     7     7     8    1
     8     8     9    2
     9     9    10    1
    10    10    11    2
    11    11    12    1
    12    12    13    2
    13    13    14    1
    14    14    15    1
    15    15    16    1
    16    16    17    1
    17    17    18    2
    18    18    19    1
    19    19    20    2
    20    20    21    1
    21    21    22    2
    22    15    23    1
    23    23    24   am
    24    24    25    2
    25    24    26    1
    26    26    27    2
    27    27    28    1
    28    28    29    2
    29    29    30    1
    30    30    31    1
    31    30    32    2
    32    32    33    1
    33    33    34    2
    34    34    35    1
    35    35    36    1
    36    36    37    2
    37    37    38    1
    38    38    39    2
    39    14    40    2
    40     9    41    1
    41    41    42    2
    42    42     6    1
    43    40    10    1
    44    22    17    1
    45    34    28    1
    46    39    35    1
@<TRIPOS>SUBSTRUCTURE
     1 RES1        1 GROUP             0 ****  ****    0  
@<TRIPOS>MOLECULE
ligand_88
    42    46     1     0     0
SMALL
NO_CHARGES
****
Generated from the CSD

@<TRIPOS>ATOM
     1 C1      -2.6982  24.2319  -7.2969   C.3       1 RES1   0.0000
     2 O2      -2.7635  24.0257  -8.7599   O.3       1 RES1   0.0000
     3 C3      -3.4353  22.9412  -9.1650   C.2       1 RES1   0.0000
     4 O4      -3.9788  22.1391  -8.4244   O.2       1 RES1   0.0000
     5 N5      -3.3872  22.8694 -10.5213   N.am      1 RES1   0.0000
     6 C6      -3.9527  21.8573 -11.3341   C.2       1 RES1   0.0000
     7 C7      -4.6652  20.7420 -10.8693   C.2       1 RES1   0.0000
     8 C8      -5.1986  19.8284 -11.7662   C.2       1 RES1   0.0000
     9 C9      -5.0829  20.0107 -13.1508   C.2       1 RES1   0.0000
    10 C10     -5.7299  19.0773 -14.1162   C.2       1 RES1   0.0000
    11 C11     -6.4985  17.9850 -13.6965   C.2       1 RES1   0.0000
    12 C12     -7.0337  17.1392 -14.6497   C.2       1 RES1   0.0000
    13 N13     -6.8884  17.3203 -15.9723   N.2       1 RES1   0.0000
    14 C14     -6.1537  18.3726 -16.3672   C.2       1 RES1   0.0000
    15 C15     -6.0365  18.5856 -17.8417   C.3       1 RES1   0.0000
    16 C16     -6.9023  19.7617 -18.3080   C.3       1 RES1   0.0000
    17 C17     -6.6661  20.2180 -19.7371   C.2       1 RES1   0.0000
    18 C18     -5.7009  21.2143 -20.0030   C.2       1 RES1   0.0000
    19 C19     -5.4714  21.6589 -21.3136   C.2       1 RES1   0.0000
    20 C20     -6.1917  21.0931 -22.3803   C.2       1 RES1   0.0000
    21 C21     -7.1290  20.1064 -22.1289   C.2       1 RES1   0.0000
    22 C22     -7.3830  19.6857 -20.8222   C.2       1 RES1   0.0000
    23 N23     -6.3148  17.3835 -18.6260   N.am      1 RES1   0.0000
    24 C24     -5.3023  16.8725 -19.4321   C.2       1 RES1   0.0000
    25 O25     -4.1792  17.3996 -19.5080   O.2       1 RES1   0.0000
    26 C26     -5.5493  15.5926 -20.0887   C.2       1 RES1   0.0000
    27 C27     -4.6999  14.8855 -20.7857   C.2       1 RES1   0.0000
    28 C28     -5.0342  13.6079 -21.4094   C.2       1 RES1   0.0000
    29 C29     -6.3559  13.1523 -21.2907   C.2       1 RES1   0.0000
    30 C30     -6.7331  11.9701 -21.8870   C.2       1 RES1   0.0000
    31 Cl31    -8.3639  11.4016 -21.6885   Cl        1 RES1   0.0000
    32 C32     -5.8478  11.2150 -22.6210   C.2       1 RES1   0.0000
    33 C33     -4.5366  11.6472 -22.7530   C.2       1 RES1   0.0000
    34 C34     -4.1163  12.8359 -22.1434   C.2       1 RES1   0.0000
    35 N35     -2.7330  13.2108 -22.2223   N.pl3     1 RES1   0.0000
    36 C36     -1.9008  13.3435 -23.2589   C.2       1 RES1   0.0000
    37 N37     -0.7153  13.6862 -22.8340   N.2       1 RES1   0.0000
    38 N38     -0.8225  13.7673 -21.4859   N.2       1 RES1   0.0000
    39 N39     -2.0316  13.4936 -21.0948   N.2       1 RES1   0.0000
    40 C40     -5.5644  19.2423 -15.4928   C.2       1 RES1   0.0000
    41 C41     -4.3671  21.1298 -13.5979   C.2       1 RES1   0.0000
    42 C42     -3.7919  22.0266 -12.7117   C.2       1 RES1   0.0000
@<TRIPOS>BOND
     1     1     2    1
     2     2     3    1
     3     3     4    2
     4     3     5   am
     5     5     6    1
     6     6     7    2
     7     7     8    1
     8     8     9    2
     9     9    10    1
    10    10    11    2
    11    11    12    1
    12    12    13    2
    13    13    14    1
    14    14    15    1
    15    15    16    1
    16    16    17    1
    17    17    18    2
    18    18    19    1
    19    19    20    2
    20    20    21    1
    21    21    22    2
    22    15    23    1
    23    23    24   am
    24    24    25    2
    25    24    26    1
    26    26    27    2
    27    27    28    1
    28    28    29    2
    29    29    30    1
    30    30    31    1
    31    30    32    2
    32    32    33    1
    33    33    34    2
    34    34    35    1
    35    35    36    1
    36    36    37    2
    37    37    38    1
    38    38    39    2
    39    14    40    2
    40     9    41    1
    41    41    42    2
    42    42     6    1
    43    40    10    1
    44    22    17    1
    45    34    28    1
    46    39    35    1
@<TRIPOS>SUBSTRUCTURE
     1 RES1        1 GROUP             0 ****  ****    0  
@<TRIPOS>MOLECULE
ligand_89
    42    46     1     0     0
SMALL
NO_CHARGES
****
Generated from the CSD

@<TRIPOS>ATOM
     1 C1       3.9635  23.8018 -14.1251   C.3       1 RES1   0.0000
     2 O2       3.0830  22.7721 -13.5321   O.3       1 RES1   0.0000
     3 C3       2.0013  22.4480 -14.2508   C.2       1 RES1   0.0000
     4 O4       1.7078  22.9347 -15.3297   O.2       1 RES1   0.0000
     5 N5       1.2795  21.5175 -13.5724   N.am      1 RES1   0.0000
     6 C6       0.0546  20.9363 -13.9808   C.2       1 RES1   0.0000
     7 C7      -0.6301  21.2292 -15.1693   C.2       1 RES1   0.0000
     8 C8      -1.8126  20.5724 -15.4763   C.2       1 RES1   0.0000
     9 C9      -2.3326  19.5749 -14.6406   C.2       1 RES1   0.0000
    10 C10     -3.5554  18.8075 -15.0115   C.2       1 RES1   0.0000
    11 C11     -4.0976  17.8206 -14.1795   C.2       1 RES1   0.0000
    12 C12     -5.2102  17.1221 -14.6090   C.2       1 RES1   0.0000
    13 N13     -5.8322  17.3560 -15.7759   N.2       1 RES1   0.0000
    14 C14     -5.3090  18.3070 -16.5664   C.2       1 RES1   0.0000
    15 C15     -6.0365  18.5856 -17.8417   C.3       1 RES1   0.0000
    16 C16     -7.3173  19.3902 -17.5914   C.3       1 RES1   0.0000
    17 C17     -7.1161  20.7522 -16.9505   C.2       1 RES1   0.0000
    18 C18     -7.1253  20.8715 -15.5432   C.2       1 RES1   0.0000
    19 C19     -6.9509  22.1202 -14.9281   C.2       1 RES1   0.0000
    20 C20     -6.7416  23.2652 -15.7168   C.2       1 RES1   0.0000
    21 C21     -6.7172  23.1536 -17.0961   C.2       1 RES1   0.0000
    22 C22     -6.9235  21.9177 -17.7115   C.2       1 RES1   0.0000
    23 N23     -6.3148  17.3835 -18.6260   N.am      1 RES1   0.0000
    24 C24     -5.3016  16.8711 -19.4303   C.2       1 RES1   0.0000
    25 O25     -4.1775  17.3965 -19.5038   O.2       1 RES1   0.0000
    26 C26     -5.5493  15.5918 -20.0878   C.2       1 RES1   0.0000
    27 C27     -4.6997  14.8836 -20.7834   C.2       1 RES1   0.0000
    28 C28     -5.0347  13.6067 -21.4081   C.2       1 RES1   0.0000
    29 C29     -6.3574  13.1532 -21.2921   C.2       1 RES1   0.0000
    30 C30     -6.7353  11.9717 -21.8895   C.2       1 RES1   0.0000
    31 Cl31    -8.3673  11.4057 -21.6943   Cl        1 RES1   0.0000
    32 C32     -5.8498  11.2155 -22.6220   C.2       1 RES1   0.0000
    33 C33     -4.5377  11.6457 -22.7514   C.2       1 RES1   0.0000
    34 C34     -4.1166  12.8335 -22.1406   C.2       1 RES1   0.0000
    35 N35     -2.7327  13.2063 -22.2167   N.pl3     1 RES1   0.0000
    36 C36     -1.8983  13.3380 -23.2517   C.2       1 RES1   0.0000
    37 N37     -0.7130  13.6787 -22.8244   N.2       1 RES1   0.0000
    38 N38     -0.8227  13.7596 -21.4764   N.2       1 RES1   0.0000
    39 N39     -2.0329  13.4876 -21.0878   N.2       1 RES1   0.0000
    40 C40     -4.1951  19.0257 -16.2333   C.2       1 RES1   0.0000
    41 C41     -1.6363  19.2956 -13.4568   C.2       1 RES1   0.0000
    42 C42     -0.4773  19.9753 -13.1172   C.2       1 RES1   0.0000
@<TRIPOS>BOND
     1     1     2    1
     2     2     3    1
     3     3     4    2
     4     3     5   am
     5     5     6    1
     6     6     7    2
     7     7     8    1
     8     8     9    2
     9     9    10    1
    10    10    11    2
    11    11    12    1
    12    12    13    2
    13    13    14    1
    14    14    15    1
    15    15    16    1
    16    16    17    1
    17    17    18    2
    18    18    19    1
    19    19    20    2
    20    20    21    1
    21    21    22    2
    22    15    23    1
    23    23    24   am
    24    24    25    2
    25    24    26    1
    26    26    27    2
    27    27    28    1
    28    28    29    2
    29    29    30    1
    30    30    31    1
    31    30    32    2
    32    32    33    1
    33    33    34    2
    34    34    35    1
    35    35    36    1
    36    36    37    2
    37    37    38    1
    38    38    39    2
    39    14    40    2
    40     9    41    1
    41    41    42    2
    42    42     6    1
    43    40    10    1
    44    22    17    1
    45    34    28    1
    46    39    35    1
@<TRIPOS>SUBSTRUCTURE
     1 RES1        1 GROUP             0 ****  ****    0  
@<TRIPOS>MOLECULE
ligand_90
    42    46     1     0     0
SMALL
NO_CHARGES
****
Generated from the CSD

@<TRIPOS>ATOM
     1 C1       3.6268  23.0405 -11.4391   C.3       1 RES1   0.0000
     2 O2       2.6944  22.9322 -12.5820   O.3       1 RES1   0.0000
     3 C3       1.7529  21.9866 -12.4769   C.2       1 RES1   0.0000
     4 O4       1.6221  21.2336 -11.5266   O.2       1 RES1   0.0000
     5 N5       0.9942  21.9876 -13.6044   N.am      1 RES1   0.0000
     6 C6      -0.0873  21.1213 -13.8955   C.2       1 RES1   0.0000
     7 C7      -0.5621  20.1007 -13.0585   C.2       1 RES1   0.0000
     8 C8      -1.6512  19.3317 -13.4405   C.2       1 RES1   0.0000
     9 C9      -2.3326  19.5749 -14.6406   C.2       1 RES1   0.0000
    10 C10     -3.5554  18.8075 -15.0115   C.2       1 RES1   0.0000
    11 C11     -4.0976  17.8206 -14.1795   C.2       1 RES1   0.0000
    12 C12     -5.2102  17.1221 -14.6090   C.2       1 RES1   0.0000
    13 N13     -5.8322  17.3560 -15.7759   N.2       1 RES1   0.0000
    14 C14     -5.3090  18.3070 -16.5664   C.2       1 RES1   0.0000
    15 C15     -6.0365  18.5856 -17.8417   C.3       1 RES1   0.0000
    16 C16     -7.3173  19.3902 -17.5914   C.3       1 RES1   0.0000
    17 C17     -7.1161  20.7522 -16.9505   C.2       1 RES1   0.0000
    18 C18     -7.1253  20.8715 -15.5432   C.2       1 RES1   0.0000
    19 C19     -6.9509  22.1202 -14.9281   C.2       1 RES1   0.0000
    20 C20     -6.7416  23.2652 -15.7168   C.2       1 RES1   0.0000
    21 C21     -6.7172  23.1536 -17.0961   C.2       1 RES1   0.0000
    22 C22     -6.9235  21.9177 -17.7115   C.2       1 RES1   0.0000
    23 N23     -6.3148  17.3835 -18.6260   N.am      1 RES1   0.0000
    24 C24     -5.3016  16.8711 -19.4303   C.2       1 RES1   0.0000
    25 O25     -4.1775  17.3965 -19.5038   O.2       1 RES1   0.0000
    26 C26     -5.5493  15.5918 -20.0878   C.2       1 RES1   0.0000
    27 C27     -4.6997  14.8836 -20.7834   C.2       1 RES1   0.0000
    28 C28     -5.0347  13.6067 -21.4081   C.2       1 RES1   0.0000
    29 C29     -6.3574  13.1532 -21.2921   C.2       1 RES1   0.0000
    30 C30     -6.7353  11.9717 -21.8895   C.2       1 RES1   0.0000
    31 Cl31    -8.3674  11.4058 -21.6943   Cl        1 RES1   0.0000
    32 C32     -5.8498  11.2155 -22.6220   C.2       1 RES1   0.0000
    33 C33     -4.5377  11.6457 -22.7514   C.2       1 RES1   0.0000
    34 C34     -4.1166  12.8335 -22.1406   C.2       1 RES1   0.0000
    35 N35     -2.7326  13.2063 -22.2167   N.pl3     1 RES1   0.0000
    36 C36     -1.8982  13.3380 -23.2516   C.2       1 RES1   0.0000
    37 N37     -0.7130  13.6787 -22.8243   N.2       1 RES1   0.0000
    38 N38     -0.8227  13.7596 -21.4764   N.2       1 RES1   0.0000
    39 N39     -2.0329  13.4876 -21.0877   N.2       1 RES1   0.0000
    40 C40     -4.1951  19.0257 -16.2333   C.2       1 RES1   0.0000
    41 C41     -1.8444  20.5977 -15.4653   C.2       1 RES1   0.0000
    42 C42     -0.7306  21.3445 -15.1156   C.2       1 RES1   0.0000
@<TRIPOS>BOND
     1     1     2    1
     2     2     3    1
     3     3     4    2
     4     3     5   am
     5     5     6    1
     6     6     7    2
     7     7     8    1
     8     8     9    2
     9     9    10    1
    10    10    11    2
    11    11    12    1
    12    12    13    2
    13    13    14    1
    14    14    15    1
    15    15    16    1
    16    16    17    1
    17    17    18    2
    18    18    19    1
    19    19    20    2
    20    20    21    1
    21    21    22    2
    22    15    23    1
    23    23    24   am
    24    24    25    2
    25    24    26    1
    26    26    27    2
    27    27    28    1
    28    28    29    2
    29    29    30    1
    30    30    31    1
    31    30    32    2
    32    32    33    1
    33    33    34    2
    34    34    35    1
    35    35    36    1
    36    36    37    2
    37    37    38    1
    38    38    39    2
    39    14    40    2
    40     9    41    1
    41    41    42    2
    42    42     6    1
    43    40    10    1
    44    22    17    1
    45    34    28    1
    46    39    35    1
@<TRIPOS>SUBSTRUCTURE
     1 RES1        1 GROUP             0 ****  ****    0  
@<TRIPOS>MOLECULE
ligand_91
    42    46     1     0     0
SMALL
NO_CHARGES
****
Generated from the CSD

@<TRIPOS>ATOM
     1 C1       1.7674  18.4414 -27.8628   C.3       1 RES1   0.0000
     2 O2       1.1620  17.6068 -28.9231   O.3       1 RES1   0.0000
     3 C3       0.6443  16.4401 -28.5203   C.2       1 RES1   0.0000
     4 O4       0.6419  16.0371 -27.3693   O.2       1 RES1   0.0000
     5 N5       0.1528  15.7757 -29.5992   N.am      1 RES1   0.0000
     6 C6      -0.4524  14.4957 -29.5993   C.2       1 RES1   0.0000
     7 C7      -0.6465  13.6860 -28.4705   C.2       1 RES1   0.0000
     8 C8      -1.2793  12.4576 -28.5904   C.2       1 RES1   0.0000
     9 C9      -1.7791  12.0100 -29.8207   C.2       1 RES1   0.0000
    10 C10     -2.5359  10.7310 -29.9352   C.2       1 RES1   0.0000
    11 C11     -3.0263  10.2615 -31.1597   C.2       1 RES1   0.0000
    12 C12     -3.7545   9.0870 -31.1815   C.2       1 RES1   0.0000
    13 N13     -3.9969   8.3403 -30.0920   N.2       1 RES1   0.0000
    14 C14     -3.5196   8.7947 -28.9221   C.2       1 RES1   0.0000
    15 C15     -3.7602   7.9318 -27.7260   C.3       1 RES1   0.0000
    16 C16     -4.5092   6.6484 -28.1030   C.3       1 RES1   0.0000
    17 C17     -4.5928   5.5978 -27.0095   C.2       1 RES1   0.0000
    18 C18     -3.5816   4.6177 -26.9022   C.2       1 RES1   0.0000
    19 C19     -3.6416   3.6313 -25.9064   C.2       1 RES1   0.0000
    20 C20     -4.7065   3.6281 -24.9884   C.2       1 RES1   0.0000
    21 C21     -5.6936   4.5941 -25.0787   C.2       1 RES1   0.0000
    22 C22     -5.6538   5.5566 -26.0891   C.2       1 RES1   0.0000
    23 N23     -4.4313   8.6308 -26.6312   N.am      1 RES1   0.0000
    24 C24     -3.6487   9.3227 -25.7120   C.2       1 RES1   0.0000
    25 O25     -2.4067   9.3258 -25.7611   O.2       1 RES1   0.0000
    26 C26     -4.3394  10.1813 -24.7549   C.2       1 RES1   0.0000
    27 C27     -3.7968  10.9999 -23.8932   C.2       1 RES1   0.0000
    28 C28     -4.5688  11.8269 -22.9694   C.2       1 RES1   0.0000
    29 C29     -5.9596  11.6445 -22.9402   C.2       1 RES1   0.0000
    30 C30     -6.7318  12.3749 -22.0650   C.2       1 RES1   0.0000
    31 Cl31    -8.4575  12.1661 -22.0779   Cl        1 RES1   0.0000
    32 C32     -6.1757  13.2814 -21.1923   C.2       1 RES1   0.0000
    33 C33     -4.8027  13.4764 -21.2026   C.2       1 RES1   0.0000
    34 C34     -3.9910  12.7628 -22.0934   C.2       1 RES1   0.0000
    35 N35     -2.5858  13.0513 -22.1431   N.pl3     1 RES1   0.0000
    36 C36     -1.7347  13.1754 -23.1653   C.2       1 RES1   0.0000
    37 N37     -0.5348  13.4225 -22.7150   N.2       1 RES1   0.0000
    38 N38     -0.6527  13.4515 -21.3656   N.2       1 RES1   0.0000
    39 N39     -1.8812  13.2391 -20.9979   N.2       1 RES1   0.0000
    40 C40     -2.8146   9.9598 -28.8051   C.2       1 RES1   0.0000
    41 C41     -1.5756  12.8310 -30.9383   C.2       1 RES1   0.0000
    42 C42     -0.9064  14.0406 -30.8399   C.2       1 RES1   0.0000
@<TRIPOS>BOND
     1     1     2    1
     2     2     3    1
     3     3     4    2
     4     3     5   am
     5     5     6    1
     6     6     7    2
     7     7     8    1
     8     8     9    2
     9     9    10    1
    10    10    11    2
    11    11    12    1
    12    12    13    2
    13    13    14    1
    14    14    15    1
    15    15    16    1
    16    16    17    1
    17    17    18    2
    18    18    19    1
    19    19    20    2
    20    20    21    1
    21    21    22    2
    22    15    23    1
    23    23    24   am
    24    24    25    2
    25    24    26    1
    26    26    27    2
    27    27    28    1
    28    28    29    2
    29    29    30    1
    30    30    31    1
    31    30    32    2
    32    32    33    1
    33    33    34    2
    34    34    35    1
    35    35    36    1
    36    36    37    2
    37    37    38    1
    38    38    39    2
    39    14    40    2
    40     9    41    1
    41    41    42    2
    42    42     6    1
    43    40    10    1
    44    22    17    1
    45    34    28    1
    46    39    35    1
@<TRIPOS>SUBSTRUCTURE
     1 RES1        1 GROUP             0 ****  ****    0  
@<TRIPOS>MOLECULE
ligand_92
    42    46     1     0     0
SMALL
NO_CHARGES
****
Generated from the CSD

@<TRIPOS>ATOM
     1 C1       2.2599  18.3978 -30.6310   C.3       1 RES1   0.0000
     2 O2       1.7432  17.3361 -29.7406   O.3       1 RES1   0.0000
     3 C3       1.0088  16.3866 -30.3328   C.2       1 RES1   0.0000
     4 O4       0.7486  16.3458 -31.5235   O.2       1 RES1   0.0000
     5 N5       0.5838  15.5022 -29.3925   N.am      1 RES1   0.0000
     6 C6      -0.2385  14.3699 -29.6084   C.2       1 RES1   0.0000
     7 C7      -0.7619  13.9668 -30.8457   C.2       1 RES1   0.0000
     8 C8      -1.5351  12.8191 -30.9386   C.2       1 RES1   0.0000
     9 C9      -1.7791  12.0100 -29.8207   C.2       1 RES1   0.0000
    10 C10     -2.5359  10.7310 -29.9352   C.2       1 RES1   0.0000
    11 C11     -3.0263  10.2615 -31.1597   C.2       1 RES1   0.0000
    12 C12     -3.7545   9.0870 -31.1815   C.2       1 RES1   0.0000
    13 N13     -3.9969   8.3403 -30.0920   N.2       1 RES1   0.0000
    14 C14     -3.5196   8.7947 -28.9221   C.2       1 RES1   0.0000
    15 C15     -3.7602   7.9318 -27.7260   C.3       1 RES1   0.0000
    16 C16     -4.5092   6.6484 -28.1030   C.3       1 RES1   0.0000
    17 C17     -4.5928   5.5978 -27.0095   C.2       1 RES1   0.0000
    18 C18     -3.5816   4.6177 -26.9022   C.2       1 RES1   0.0000
    19 C19     -3.6416   3.6313 -25.9064   C.2       1 RES1   0.0000
    20 C20     -4.7065   3.6281 -24.9884   C.2       1 RES1   0.0000
    21 C21     -5.6936   4.5941 -25.0787   C.2       1 RES1   0.0000
    22 C22     -5.6538   5.5566 -26.0891   C.2       1 RES1   0.0000
    23 N23     -4.4313   8.6308 -26.6312   N.am      1 RES1   0.0000
    24 C24     -3.6487   9.3227 -25.7120   C.2       1 RES1   0.0000
    25 O25     -2.4067   9.3258 -25.7611   O.2       1 RES1   0.0000
    26 C26     -4.3394  10.1813 -24.7549   C.2       1 RES1   0.0000
    27 C27     -3.7968  10.9999 -23.8932   C.2       1 RES1   0.0000
    28 C28     -4.5688  11.8269 -22.9694   C.2       1 RES1   0.0000
    29 C29     -5.9596  11.6445 -22.9402   C.2       1 RES1   0.0000
    30 C30     -6.7318  12.3749 -22.0650   C.2       1 RES1   0.0000
    31 Cl31    -8.4575  12.1661 -22.0779   Cl        1 RES1   0.0000
    32 C32     -6.1757  13.2814 -21.1923   C.2       1 RES1   0.0000
    33 C33     -4.8027  13.4764 -21.2026   C.2       1 RES1   0.0000
    34 C34     -3.9910  12.7628 -22.0934   C.2       1 RES1   0.0000
    35 N35     -2.5859  13.0513 -22.1431   N.pl3     1 RES1   0.0000
    36 C36     -1.7347  13.1754 -23.1653   C.2       1 RES1   0.0000
    37 N37     -0.5348  13.4225 -22.7149   N.2       1 RES1   0.0000
    38 N38     -0.6527  13.4515 -21.3656   N.2       1 RES1   0.0000
    39 N39     -1.8812  13.2391 -20.9979   N.2       1 RES1   0.0000
    40 C40     -2.8146   9.9598 -28.8051   C.2       1 RES1   0.0000
    41 C41     -1.2494  12.4280 -28.5922   C.2       1 RES1   0.0000
    42 C42     -0.5119  13.5957 -28.4779   C.2       1 RES1   0.0000
@<TRIPOS>BOND
     1     1     2    1
     2     2     3    1
     3     3     4    2
     4     3     5   am
     5     5     6    1
     6     6     7    2
     7     7     8    1
     8     8     9    2
     9     9    10    1
    10    10    11    2
    11    11    12    1
    12    12    13    2
    13    13    14    1
    14    14    15    1
    15    15    16    1
    16    16    17    1
    17    17    18    2
    18    18    19    1
    19    19    20    2
    20    20    21    1
    21    21    22    2
    22    15    23    1
    23    23    24   am
    24    24    25    2
    25    24    26    1
    26    26    27    2
    27    27    28    1
    28    28    29    2
    29    29    30    1
    30    30    31    1
    31    30    32    2
    32    32    33    1
    33    33    34    2
    34    34    35    1
    35    35    36    1
    36    36    37    2
    37    37    38    1
    38    38    39    2
    39    14    40    2
    40     9    41    1
    41    41    42    2
    42    42     6    1
    43    40    10    1
    44    22    17    1
    45    34    28    1
    46    39    35    1
@<TRIPOS>SUBSTRUCTURE
     1 RES1        1 GROUP             0 ****  ****    0  
@<TRIPOS>MOLECULE
ligand_93
    42    46     1     0     0
SMALL
NO_CHARGES
****
Generated from the CSD

@<TRIPOS>ATOM
     1 C1       2.1349   6.8071 -37.9733   C.3       1 RES1   0.0000
     2 O2       0.7916   7.3247 -37.6345   O.3       1 RES1   0.0000
     3 C3       0.4536   7.2626 -36.3409   C.2       1 RES1   0.0000
     4 O4       1.1635   6.8194 -35.4539   O.2       1 RES1   0.0000
     5 N5      -0.8079   7.7444 -36.1874   N.am      1 RES1   0.0000
     6 C6      -1.5401   7.8247 -34.9782   C.2       1 RES1   0.0000
     7 C7      -1.0810   7.4123 -33.7186   C.2       1 RES1   0.0000
     8 C8      -1.8813   7.5673 -32.5964   C.2       1 RES1   0.0000
     9 C9      -3.1419   8.1741 -32.6761   C.2       1 RES1   0.0000
    10 C10     -3.9661   8.4204 -31.4588   C.2       1 RES1   0.0000
    11 C11     -5.2346   9.0093 -31.5235   C.2       1 RES1   0.0000
    12 C12     -5.9231   9.2436 -30.3482   C.2       1 RES1   0.0000
    13 N13     -5.4595   8.9075 -29.1335   N.2       1 RES1   0.0000
    14 C14     -4.2442   8.3391 -29.0799   C.2       1 RES1   0.0000
    15 C15     -3.7602   7.9318 -27.7260   C.3       1 RES1   0.0000
    16 C16     -3.8327   6.4119 -27.5393   C.3       1 RES1   0.0000
    17 C17     -3.1369   5.8736 -26.3014   C.2       1 RES1   0.0000
    18 C18     -1.7773   5.4975 -26.3709   C.2       1 RES1   0.0000
    19 C19     -1.1154   4.9889 -25.2433   C.2       1 RES1   0.0000
    20 C20     -1.8027   4.8718 -24.0224   C.2       1 RES1   0.0000
    21 C21     -3.1313   5.2518 -23.9433   C.2       1 RES1   0.0000
    22 C22     -3.8015   5.7269 -25.0720   C.2       1 RES1   0.0000
    23 N23     -4.4365   8.6293 -26.6334   N.am      1 RES1   0.0000
    24 C24     -3.6718   9.4221 -25.7832   C.2       1 RES1   0.0000
    25 O25     -2.4435   9.5553 -25.9196   O.2       1 RES1   0.0000
    26 C26     -4.3837  10.2257 -24.7944   C.2       1 RES1   0.0000
    27 C27     -3.8746  11.1177 -23.9868   C.2       1 RES1   0.0000
    28 C28     -4.6660  11.8804 -23.0251   C.2       1 RES1   0.0000
    29 C29     -6.0240  11.5527 -22.8951   C.2       1 RES1   0.0000
    30 C30     -6.8086  12.2182 -21.9802   C.2       1 RES1   0.0000
    31 Cl31    -8.4989  11.8278 -21.8682   Cl        1 RES1   0.0000
    32 C32     -6.2948  13.1992 -21.1640   C.2       1 RES1   0.0000
    33 C33     -4.9545  13.5381 -21.2740   C.2       1 RES1   0.0000
    34 C34     -4.1336  12.8931 -22.2076   C.2       1 RES1   0.0000
    35 N35     -2.7741  13.3272 -22.3608   N.pl3     1 RES1   0.0000
    36 C36     -2.0129  13.5163 -23.4422   C.2       1 RES1   0.0000
    37 N37     -0.8185  13.8996 -23.0815   N.2       1 RES1   0.0000
    38 N38     -0.8465  13.9481 -21.7279   N.2       1 RES1   0.0000
    39 N39     -2.0172  13.6158 -21.2713   N.2       1 RES1   0.0000
    40 C40     -3.4831   8.0975 -30.1891   C.2       1 RES1   0.0000
    41 C41     -3.5854   8.5794 -33.9424   C.2       1 RES1   0.0000
    42 C42     -2.8137   8.3906 -35.0779   C.2       1 RES1   0.0000
@<TRIPOS>BOND
     1     1     2    1
     2     2     3    1
     3     3     4    2
     4     3     5   am
     5     5     6    1
     6     6     7    2
     7     7     8    1
     8     8     9    2
     9     9    10    1
    10    10    11    2
    11    11    12    1
    12    12    13    2
    13    13    14    1
    14    14    15    1
    15    15    16    1
    16    16    17    1
    17    17    18    2
    18    18    19    1
    19    19    20    2
    20    20    21    1
    21    21    22    2
    22    15    23    1
    23    23    24   am
    24    24    25    2
    25    24    26    1
    26    26    27    2
    27    27    28    1
    28    28    29    2
    29    29    30    1
    30    30    31    1
    31    30    32    2
    32    32    33    1
    33    33    34    2
    34    34    35    1
    35    35    36    1
    36    36    37    2
    37    37    38    1
    38    38    39    2
    39    14    40    2
    40     9    41    1
    41    41    42    2
    42    42     6    1
    43    40    10    1
    44    22    17    1
    45    34    28    1
    46    39    35    1
@<TRIPOS>SUBSTRUCTURE
     1 RES1        1 GROUP             0 ****  ****    0  
@<TRIPOS>MOLECULE
ligand_94
    42    46     1     0     0
SMALL
NO_CHARGES
****
Generated from the CSD

@<TRIPOS>ATOM
     1 C1      -0.1580   7.0719 -39.5794   C.3       1 RES1   0.0000
     2 O2      -0.0367   6.9197 -38.1134   O.3       1 RES1   0.0000
     3 C3      -1.0624   7.3893 -37.3930   C.2       1 RES1   0.0000
     4 O4      -2.0583   7.9179 -37.8576   O.2       1 RES1   0.0000
     5 N5      -0.7989   7.2059 -36.0724   N.am      1 RES1   0.0000
     6 C6      -1.6212   7.5902 -34.9857   C.2       1 RES1   0.0000
     7 C7      -2.8618   8.2361 -35.0911   C.2       1 RES1   0.0000
     8 C8      -3.5927   8.5388 -33.9518   C.2       1 RES1   0.0000
     9 C9      -3.1419   8.1741 -32.6761   C.2       1 RES1   0.0000
    10 C10     -3.9661   8.4204 -31.4588   C.2       1 RES1   0.0000
    11 C11     -5.2346   9.0093 -31.5235   C.2       1 RES1   0.0000
    12 C12     -5.9231   9.2436 -30.3482   C.2       1 RES1   0.0000
    13 N13     -5.4595   8.9075 -29.1335   N.2       1 RES1   0.0000
    14 C14     -4.2442   8.3391 -29.0799   C.2       1 RES1   0.0000
    15 C15     -3.7602   7.9318 -27.7260   C.3       1 RES1   0.0000
    16 C16     -3.8327   6.4119 -27.5393   C.3       1 RES1   0.0000
    17 C17     -3.1369   5.8736 -26.3014   C.2       1 RES1   0.0000
    18 C18     -1.7773   5.4975 -26.3709   C.2       1 RES1   0.0000
    19 C19     -1.1154   4.9889 -25.2433   C.2       1 RES1   0.0000
    20 C20     -1.8027   4.8718 -24.0224   C.2       1 RES1   0.0000
    21 C21     -3.1313   5.2518 -23.9433   C.2       1 RES1   0.0000
    22 C22     -3.8015   5.7269 -25.0720   C.2       1 RES1   0.0000
    23 N23     -4.4365   8.6293 -26.6334   N.am      1 RES1   0.0000
    24 C24     -3.6718   9.4221 -25.7832   C.2       1 RES1   0.0000
    25 O25     -2.4435   9.5553 -25.9196   O.2       1 RES1   0.0000
    26 C26     -4.3837  10.2257 -24.7944   C.2       1 RES1   0.0000
    27 C27     -3.8746  11.1177 -23.9868   C.2       1 RES1   0.0000
    28 C28     -4.6660  11.8804 -23.0251   C.2       1 RES1   0.0000
    29 C29     -6.0240  11.5527 -22.8951   C.2       1 RES1   0.0000
    30 C30     -6.8086  12.2182 -21.9802   C.2       1 RES1   0.0000
    31 Cl31    -8.4989  11.8278 -21.8682   Cl        1 RES1   0.0000
    32 C32     -6.2948  13.1992 -21.1640   C.2       1 RES1   0.0000
    33 C33     -4.9545  13.5381 -21.2740   C.2       1 RES1   0.0000
    34 C34     -4.1336  12.8931 -22.2076   C.2       1 RES1   0.0000
    35 N35     -2.7741  13.3272 -22.3608   N.pl3     1 RES1   0.0000
    36 C36     -2.0128  13.5163 -23.4422   C.2       1 RES1   0.0000
    37 N37     -0.8185  13.8996 -23.0815   N.2       1 RES1   0.0000
    38 N38     -0.8465  13.9481 -21.7279   N.2       1 RES1   0.0000
    39 N39     -2.0172  13.6158 -21.2713   N.2       1 RES1   0.0000
    40 C40     -3.4831   8.0975 -30.1891   C.2       1 RES1   0.0000
    41 C41     -1.9000   7.5303 -32.5889   C.2       1 RES1   0.0000
    42 C42     -1.1397   7.2612 -33.7160   C.2       1 RES1   0.0000
@<TRIPOS>BOND
     1     1     2    1
     2     2     3    1
     3     3     4    2
     4     3     5   am
     5     5     6    1
     6     6     7    2
     7     7     8    1
     8     8     9    2
     9     9    10    1
    10    10    11    2
    11    11    12    1
    12    12    13    2
    13    13    14    1
    14    14    15    1
    15    15    16    1
    16    16    17    1
    17    17    18    2
    18    18    19    1
    19    19    20    2
    20    20    21    1
    21    21    22    2
    22    15    23    1
    23    23    24   am
    24    24    25    2
    25    24    26    1
    26    26    27    2
    27    27    28    1
    28    28    29    2
    29    29    30    1
    30    30    31    1
    31    30    32    2
    32    32    33    1
    33    33    34    2
    34    34    35    1
    35    35    36    1
    36    36    37    2
    37    37    38    1
    38    38    39    2
    39    14    40    2
    40     9    41    1
    41    41    42    2
    42    42     6    1
    43    40    10    1
    44    22    17    1
    45    34    28    1
    46    39    35    1
@<TRIPOS>SUBSTRUCTURE
     1 RES1        1 GROUP             0 ****  ****    0  
@<TRIPOS>MOLECULE
ligand_95
    42    46     1     0     0
SMALL
NO_CHARGES
****
Generated from the CSD

@<TRIPOS>ATOM
     1 C1      -1.1144   5.6306 -29.6399   C.3       1 RES1   0.0000
     2 O2      -0.1774   5.4805 -28.5056   O.3       1 RES1   0.0000
     3 C3      -0.6750   5.7716 -27.2977   C.2       1 RES1   0.0000
     4 O4      -1.8172   6.1412 -27.0833   O.2       1 RES1   0.0000
     5 N5       0.3012   5.6152 -26.3652   N.am      1 RES1   0.0000
     6 C6       0.1855   5.8496 -24.9737   C.2       1 RES1   0.0000
     7 C7      -0.9715   6.2912 -24.3151   C.2       1 RES1   0.0000
     8 C8      -0.9727   6.4590 -22.9383   C.2       1 RES1   0.0000
     9 C9       0.1548   6.1540 -22.1640   C.2       1 RES1   0.0000
    10 C10      0.1277   6.2502 -20.6769   C.2       1 RES1   0.0000
    11 C11      1.2506   5.9661 -19.8904   C.2       1 RES1   0.0000
    12 C12      1.1381   6.0377 -18.5147   C.2       1 RES1   0.0000
    13 N13      0.0130   6.3995 -17.8770   N.2       1 RES1   0.0000
    14 C14     -1.0583   6.6748 -18.6381   C.2       1 RES1   0.0000
    15 C15     -2.2901   7.1172 -17.9168   C.3       1 RES1   0.0000
    16 C16     -3.0079   5.9341 -17.2570   C.3       1 RES1   0.0000
    17 C17     -4.1252   6.3033 -16.2969   C.2       1 RES1   0.0000
    18 C18     -3.8352   6.5014 -14.9289   C.2       1 RES1   0.0000
    19 C19     -4.8518   6.8338 -14.0211   C.2       1 RES1   0.0000
    20 C20     -6.1718   6.9950 -14.4775   C.2       1 RES1   0.0000
    21 C21     -6.4609   6.8163 -15.8192   C.2       1 RES1   0.0000
    22 C22     -5.4571   6.4529 -16.7188   C.2       1 RES1   0.0000
    23 N23     -3.2074   7.8893 -18.7535   N.am      1 RES1   0.0000
    24 C24     -2.9487   9.2436 -18.9403   C.2       1 RES1   0.0000
    25 O25     -1.9725   9.8143 -18.4242   O.2       1 RES1   0.0000
    26 C26     -3.7877   9.9613 -19.8949   C.2       1 RES1   0.0000
    27 C27     -3.6426  11.1938 -20.3036   C.2       1 RES1   0.0000
    28 C28     -4.5332  11.8342 -21.2679   C.2       1 RES1   0.0000
    29 C29     -5.8835  11.4534 -21.2587   C.2       1 RES1   0.0000
    30 C30     -6.7730  12.0489 -22.1246   C.2       1 RES1   0.0000
    31 Cl31    -8.4318  11.5291 -22.1279   Cl        1 RES1   0.0000
    32 C32     -6.3800  13.0324 -23.0026   C.2       1 RES1   0.0000
    33 C33     -5.0504  13.4258 -23.0276   C.2       1 RES1   0.0000
    34 C34     -4.1167  12.8268 -22.1726   C.2       1 RES1   0.0000
    35 N35     -2.7328  13.1906 -22.2841   N.pl3     1 RES1   0.0000
    36 C36     -1.9059  13.2500 -23.3317   C.2       1 RES1   0.0000
    37 N37     -0.7170  13.6164 -22.9373   N.2       1 RES1   0.0000
    38 N38     -0.8165  13.7889 -21.5972   N.2       1 RES1   0.0000
    39 N39     -2.0242  13.5465 -21.1820   N.2       1 RES1   0.0000
    40 C40     -1.0437   6.6014 -20.0029   C.2       1 RES1   0.0000
    41 C41      1.3025   5.7149 -22.8383   C.2       1 RES1   0.0000
    42 C42      1.3304   5.5848 -24.2177   C.2       1 RES1   0.0000
@<TRIPOS>BOND
     1     1     2    1
     2     2     3    1
     3     3     4    2
     4     3     5   am
     5     5     6    1
     6     6     7    2
     7     7     8    1
     8     8     9    2
     9     9    10    1
    10    10    11    2
    11    11    12    1
    12    12    13    2
    13    13    14    1
    14    14    15    1
    15    15    16    1
    16    16    17    1
    17    17    18    2
    18    18    19    1
    19    19    20    2
    20    20    21    1
    21    21    22    2
    22    15    23    1
    23    23    24   am
    24    24    25    2
    25    24    26    1
    26    26    27    2
    27    27    28    1
    28    28    29    2
    29    29    30    1
    30    30    31    1
    31    30    32    2
    32    32    33    1
    33    33    34    2
    34    34    35    1
    35    35    36    1
    36    36    37    2
    37    37    38    1
    38    38    39    2
    39    14    40    2
    40     9    41    1
    41    41    42    2
    42    42     6    1
    43    40    10    1
    44    22    17    1
    45    34    28    1
    46    39    35    1
@<TRIPOS>SUBSTRUCTURE
     1 RES1        1 GROUP             0 ****  ****    0  
@<TRIPOS>MOLECULE
ligand_96
    42    46     1     0     0
SMALL
NO_CHARGES
****
Generated from the CSD

@<TRIPOS>ATOM
     1 C1       6.5980   9.5527 -33.3032   C.3       1 RES1   0.0000
     2 O2       5.2319  10.0653 -33.5446   O.3       1 RES1   0.0000
     3 C3       4.2892   9.6282 -32.7009   C.2       1 RES1   0.0000
     4 O4       4.4826   8.8579 -31.7755   O.2       1 RES1   0.0000
     5 N5       3.0905  10.1581 -33.0607   N.am      1 RES1   0.0000
     6 C6       1.8412   9.9210 -32.4380   C.2       1 RES1   0.0000
     7 C7       1.6276   9.0859 -31.3315   C.2       1 RES1   0.0000
     8 C8       0.3581   8.9535 -30.7888   C.2       1 RES1   0.0000
     9 C9      -0.7316   9.6754 -31.2942   C.2       1 RES1   0.0000
    10 C10     -2.0774   9.6014 -30.6579   C.2       1 RES1   0.0000
    11 C11     -3.1800  10.3023 -31.1612   C.2       1 RES1   0.0000
    12 C12     -4.3872  10.2169 -30.4937   C.2       1 RES1   0.0000
    13 N13     -4.5804   9.4675 -29.3962   N.2       1 RES1   0.0000
    14 C14     -3.5196   8.7947 -28.9221   C.2       1 RES1   0.0000
    15 C15     -3.7602   7.9318 -27.7260   C.3       1 RES1   0.0000
    16 C16     -4.5039   6.6456 -28.1039   C.3       1 RES1   0.0000
    17 C17     -3.7877   5.7468 -29.0967   C.2       1 RES1   0.0000
    18 C18     -4.0044   5.9213 -30.4814   C.2       1 RES1   0.0000
    19 C19     -3.3616   5.0975 -31.4174   C.2       1 RES1   0.0000
    20 C20     -2.4732   4.1003 -30.9779   C.2       1 RES1   0.0000
    21 C21     -2.2451   3.9328 -29.6230   C.2       1 RES1   0.0000
    22 C22     -2.9088   4.7293 -28.6882   C.2       1 RES1   0.0000
    23 N23     -4.4365   8.6293 -26.6334   N.am      1 RES1   0.0000
    24 C24     -3.6721   9.4238 -25.7845   C.2       1 RES1   0.0000
    25 O25     -2.4443   9.5594 -25.9227   O.2       1 RES1   0.0000
    26 C26     -4.3842  10.2264 -24.7951   C.2       1 RES1   0.0000
    27 C27     -3.8757  11.1197 -23.9885   C.2       1 RES1   0.0000
    28 C28     -4.6672  11.8812 -23.0259   C.2       1 RES1   0.0000
    29 C29     -6.0244  11.5510 -22.8939   C.2       1 RES1   0.0000
    30 C30     -6.8091  12.2153 -21.9782   C.2       1 RES1   0.0000
    31 Cl31    -8.4985  11.8217 -21.8638   Cl        1 RES1   0.0000
    32 C32     -6.2960  13.1976 -21.1630   C.2       1 RES1   0.0000
    33 C33     -4.9565  13.5390 -21.2751   C.2       1 RES1   0.0000
    34 C34     -4.1356  12.8952 -22.2095   C.2       1 RES1   0.0000
    35 N35     -2.7772  13.3319 -22.3648   N.pl3     1 RES1   0.0000
    36 C36     -2.0178  13.5220 -23.4473   C.2       1 RES1   0.0000
    37 N37     -0.8237  13.9078 -23.0884   N.2       1 RES1   0.0000
    38 N38     -0.8499  13.9567 -21.7348   N.2       1 RES1   0.0000
    39 N39     -2.0194  13.6223 -21.2764   N.2       1 RES1   0.0000
    40 C40     -2.2830   8.8450 -29.5024   C.2       1 RES1   0.0000
    41 C41     -0.5006  10.5044 -32.4004   C.2       1 RES1   0.0000
    42 C42      0.7540  10.6119 -32.9793   C.2       1 RES1   0.0000
@<TRIPOS>BOND
     1     1     2    1
     2     2     3    1
     3     3     4    2
     4     3     5   am
     5     5     6    1
     6     6     7    2
     7     7     8    1
     8     8     9    2
     9     9    10    1
    10    10    11    2
    11    11    12    1
    12    12    13    2
    13    13    14    1
    14    14    15    1
    15    15    16    1
    16    16    17    1
    17    17    18    2
    18    18    19    1
    19    19    20    2
    20    20    21    1
    21    21    22    2
    22    15    23    1
    23    23    24   am
    24    24    25    2
    25    24    26    1
    26    26    27    2
    27    27    28    1
    28    28    29    2
    29    29    30    1
    30    30    31    1
    31    30    32    2
    32    32    33    1
    33    33    34    2
    34    34    35    1
    35    35    36    1
    36    36    37    2
    37    37    38    1
    38    38    39    2
    39    14    40    2
    40     9    41    1
    41    41    42    2
    42    42     6    1
    43    40    10    1
    44    22    17    1
    45    34    28    1
    46    39    35    1
@<TRIPOS>SUBSTRUCTURE
     1 RES1        1 GROUP             0 ****  ****    0  
@<TRIPOS>MOLECULE
ligand_97
    42    46     1     0     0
SMALL
NO_CHARGES
****
Generated from the CSD

@<TRIPOS>ATOM
     1 C1       5.4285  10.5400 -35.6622   C.3       1 RES1   0.0000
     2 O2       4.7991   9.9177 -34.4774   O.3       1 RES1   0.0000
     3 C3       3.5150  10.2323 -34.2684   C.2       1 RES1   0.0000
     4 O4       2.8545  10.9768 -34.9731   O.2       1 RES1   0.0000
     5 N5       3.0839   9.6128 -33.1381   N.am      1 RES1   0.0000
     6 C6       1.7947   9.7103 -32.5608   C.2       1 RES1   0.0000
     7 C7       0.7321  10.4752 -33.0640   C.2       1 RES1   0.0000
     8 C8      -0.4987  10.4699 -32.4248   C.2       1 RES1   0.0000
     9 C9      -0.7316   9.6754 -31.2942   C.2       1 RES1   0.0000
    10 C10     -2.0774   9.6014 -30.6579   C.2       1 RES1   0.0000
    11 C11     -3.1800  10.3023 -31.1612   C.2       1 RES1   0.0000
    12 C12     -4.3872  10.2169 -30.4937   C.2       1 RES1   0.0000
    13 N13     -4.5804   9.4675 -29.3962   N.2       1 RES1   0.0000
    14 C14     -3.5196   8.7947 -28.9221   C.2       1 RES1   0.0000
    15 C15     -3.7602   7.9318 -27.7260   C.3       1 RES1   0.0000
    16 C16     -4.5039   6.6456 -28.1039   C.3       1 RES1   0.0000
    17 C17     -3.7877   5.7468 -29.0967   C.2       1 RES1   0.0000
    18 C18     -4.0044   5.9213 -30.4814   C.2       1 RES1   0.0000
    19 C19     -3.3616   5.0975 -31.4174   C.2       1 RES1   0.0000
    20 C20     -2.4732   4.1003 -30.9779   C.2       1 RES1   0.0000
    21 C21     -2.2451   3.9328 -29.6230   C.2       1 RES1   0.0000
    22 C22     -2.9088   4.7293 -28.6882   C.2       1 RES1   0.0000
    23 N23     -4.4365   8.6293 -26.6334   N.am      1 RES1   0.0000
    24 C24     -3.6721   9.4238 -25.7845   C.2       1 RES1   0.0000
    25 O25     -2.4443   9.5594 -25.9227   O.2       1 RES1   0.0000
    26 C26     -4.3842  10.2264 -24.7951   C.2       1 RES1   0.0000
    27 C27     -3.8757  11.1197 -23.9885   C.2       1 RES1   0.0000
    28 C28     -4.6672  11.8812 -23.0259   C.2       1 RES1   0.0000
    29 C29     -6.0244  11.5510 -22.8940   C.2       1 RES1   0.0000
    30 C30     -6.8091  12.2153 -21.9782   C.2       1 RES1   0.0000
    31 Cl31    -8.4985  11.8217 -21.8638   Cl        1 RES1   0.0000
    32 C32     -6.2960  13.1976 -21.1630   C.2       1 RES1   0.0000
    33 C33     -4.9565  13.5390 -21.2751   C.2       1 RES1   0.0000
    34 C34     -4.1356  12.8952 -22.2095   C.2       1 RES1   0.0000
    35 N35     -2.7772  13.3319 -22.3648   N.pl3     1 RES1   0.0000
    36 C36     -2.0178  13.5220 -23.4473   C.2       1 RES1   0.0000
    37 N37     -0.8237  13.9078 -23.0884   N.2       1 RES1   0.0000
    38 N38     -0.8499  13.9567 -21.7348   N.2       1 RES1   0.0000
    39 N39     -2.0194  13.6223 -21.2764   N.2       1 RES1   0.0000
    40 C40     -2.2830   8.8450 -29.5024   C.2       1 RES1   0.0000
    41 C41      0.3413   8.9181 -30.8042   C.2       1 RES1   0.0000
    42 C42      1.5883   8.9483 -31.4080   C.2       1 RES1   0.0000
@<TRIPOS>BOND
     1     1     2    1
     2     2     3    1
     3     3     4    2
     4     3     5   am
     5     5     6    1
     6     6     7    2
     7     7     8    1
     8     8     9    2
     9     9    10    1
    10    10    11    2
    11    11    12    1
    12    12    13    2
    13    13    14    1
    14    14    15    1
    15    15    16    1
    16    16    17    1
    17    17    18    2
    18    18    19    1
    19    19    20    2
    20    20    21    1
    21    21    22    2
    22    15    23    1
    23    23    24   am
    24    24    25    2
    25    24    26    1
    26    26    27    2
    27    27    28    1
    28    28    29    2
    29    29    30    1
    30    30    31    1
    31    30    32    2
    32    32    33    1
    33    33    34    2
    34    34    35    1
    35    35    36    1
    36    36    37    2
    37    37    38    1
    38    38    39    2
    39    14    40    2
    40     9    41    1
    41    41    42    2
    42    42     6    1
    43    40    10    1
    44    22    17    1
    45    34    28    1
    46    39    35    1
@<TRIPOS>SUBSTRUCTURE
     1 RES1        1 GROUP             0 ****  ****    0  
@<TRIPOS>MOLECULE
ligand_98
    42    46     1     0     0
SMALL
NO_CHARGES
****
Generated from the CSD

@<TRIPOS>ATOM
     1 C1      -5.1078  -4.5362 -16.7677   C.3       1 RES1   0.0000
     2 O2      -5.5131  -3.1139 -16.7721   O.3       1 RES1   0.0000
     3 C3      -4.5416  -2.2332 -17.0401   C.2       1 RES1   0.0000
     4 O4      -3.3803  -2.5235 -17.2733   O.2       1 RES1   0.0000
     5 N5      -5.0534  -0.9755 -16.9823   N.am      1 RES1   0.0000
     6 C6      -4.3450   0.2346 -17.1786   C.2       1 RES1   0.0000
     7 C7      -2.9764   0.3401 -17.4672   C.2       1 RES1   0.0000
     8 C8      -2.3968   1.5841 -17.6674   C.2       1 RES1   0.0000
     9 C9      -3.1590   2.7596 -17.6322   C.2       1 RES1   0.0000
    10 C10     -2.5552   4.0887 -17.9331   C.2       1 RES1   0.0000
    11 C11     -1.5039   4.2411 -18.8450   C.2       1 RES1   0.0000
    12 C12     -0.9678   5.4998 -19.0422   C.2       1 RES1   0.0000
    13 N13     -1.4198   6.6063 -18.4302   N.2       1 RES1   0.0000
    14 C14     -2.4312   6.4528 -17.5605   C.2       1 RES1   0.0000
    15 C15     -2.9515   7.6986 -16.9197   C.3       1 RES1   0.0000
    16 C16     -3.6360   7.3961 -15.5817   C.3       1 RES1   0.0000
    17 C17     -3.9770   8.6100 -14.7353   C.2       1 RES1   0.0000
    18 C18     -3.0372   9.0975 -13.8005   C.2       1 RES1   0.0000
    19 C19     -3.3328  10.2116 -13.0007   C.2       1 RES1   0.0000
    20 C20     -4.5682  10.8673 -13.1439   C.2       1 RES1   0.0000
    21 C21     -5.4885  10.4037 -14.0679   C.2       1 RES1   0.0000
    22 C22     -5.2101   9.2754 -14.8415   C.2       1 RES1   0.0000
    23 N23     -3.8257   8.4795 -17.7935   N.am      1 RES1   0.0000
    24 C24     -3.2683   9.5293 -18.5170   C.2       1 RES1   0.0000
    25 O25     -2.0608   9.8174 -18.4527   O.2       1 RES1   0.0000
    26 C26     -4.1256  10.2067 -19.4847   C.2       1 RES1   0.0000
    27 C27     -3.7746  11.1282 -20.3419   C.2       1 RES1   0.0000
    28 C28     -4.7035  11.7537 -21.2795   C.2       1 RES1   0.0000
    29 C29     -6.0455  11.3472 -21.2342   C.2       1 RES1   0.0000
    30 C30     -6.9697  11.9275 -22.0736   C.2       1 RES1   0.0000
    31 Cl31    -8.6179  11.3762 -22.0327   Cl        1 RES1   0.0000
    32 C32     -6.6199  12.9204 -22.9594   C.2       1 RES1   0.0000
    33 C33     -5.2992  13.3391 -23.0198   C.2       1 RES1   0.0000
    34 C34     -4.3311  12.7561 -22.1925   C.2       1 RES1   0.0000
    35 N35     -2.9579  13.1465 -22.3410   N.pl3     1 RES1   0.0000
    36 C36     -2.1593  13.2165 -23.4097   C.2       1 RES1   0.0000
    37 N37     -0.9682  13.6085 -23.0475   N.2       1 RES1   0.0000
    38 N38     -1.0370  13.7861 -21.7061   N.2       1 RES1   0.0000
    39 N39     -2.2287  13.5222 -21.2592   N.2       1 RES1   0.0000
    40 C40     -3.0011   5.2417 -17.2839   C.2       1 RES1   0.0000
    41 C41     -4.5246   2.6360 -17.3416   C.2       1 RES1   0.0000
    42 C42     -5.1072   1.4027 -17.0965   C.2       1 RES1   0.0000
@<TRIPOS>BOND
     1     1     2    1
     2     2     3    1
     3     3     4    2
     4     3     5   am
     5     5     6    1
     6     6     7    2
     7     7     8    1
     8     8     9    2
     9     9    10    1
    10    10    11    2
    11    11    12    1
    12    12    13    2
    13    13    14    1
    14    14    15    1
    15    15    16    1
    16    16    17    1
    17    17    18    2
    18    18    19    1
    19    19    20    2
    20    20    21    1
    21    21    22    2
    22    15    23    1
    23    23    24   am
    24    24    25    2
    25    24    26    1
    26    26    27    2
    27    27    28    1
    28    28    29    2
    29    29    30    1
    30    30    31    1
    31    30    32    2
    32    32    33    1
    33    33    34    2
    34    34    35    1
    35    35    36    1
    36    36    37    2
    37    37    38    1
    38    38    39    2
    39    14    40    2
    40     9    41    1
    41    41    42    2
    42    42     6    1
    43    40    10    1
    44    22    17    1
    45    34    28    1
    46    39    35    1
@<TRIPOS>SUBSTRUCTURE
     1 RES1        1 GROUP             0 ****  ****    0  
@<TRIPOS>MOLECULE
ligand_99
    42    46     1     0     0
SMALL
NO_CHARGES
****
Generated from the CSD

@<TRIPOS>ATOM
     1 C1      -7.2615  -3.2665 -15.4805   C.3       1 RES1   0.0000
     2 O2      -5.9610  -2.7181 -15.9223   O.3       1 RES1   0.0000
     3 C3      -5.9336  -1.3998 -16.1521   C.2       1 RES1   0.0000
     4 O4      -6.8854  -0.6483 -16.0234   O.2       1 RES1   0.0000
     5 N5      -4.6907  -1.0479 -16.5743   N.am      1 RES1   0.0000
     6 C6      -4.2604   0.2489 -16.9456   C.2       1 RES1   0.0000
     7 C7      -5.0565   1.4038 -16.9424   C.2       1 RES1   0.0000
     8 C8      -4.5144   2.6290 -17.3013   C.2       1 RES1   0.0000
     9 C9      -3.1590   2.7596 -17.6322   C.2       1 RES1   0.0000
    10 C10     -2.5552   4.0887 -17.9331   C.2       1 RES1   0.0000
    11 C11     -1.5039   4.2411 -18.8450   C.2       1 RES1   0.0000
    12 C12     -0.9678   5.4998 -19.0422   C.2       1 RES1   0.0000
    13 N13     -1.4198   6.6063 -18.4302   N.2       1 RES1   0.0000
    14 C14     -2.4312   6.4528 -17.5605   C.2       1 RES1   0.0000
    15 C15     -2.9515   7.6986 -16.9197   C.3       1 RES1   0.0000
    16 C16     -3.6360   7.3961 -15.5817   C.3       1 RES1   0.0000
    17 C17     -3.9770   8.6100 -14.7353   C.2       1 RES1   0.0000
    18 C18     -3.0372   9.0975 -13.8005   C.2       1 RES1   0.0000
    19 C19     -3.3328  10.2116 -13.0007   C.2       1 RES1   0.0000
    20 C20     -4.5682  10.8673 -13.1439   C.2       1 RES1   0.0000
    21 C21     -5.4885  10.4037 -14.0679   C.2       1 RES1   0.0000
    22 C22     -5.2101   9.2754 -14.8415   C.2       1 RES1   0.0000
    23 N23     -3.8257   8.4795 -17.7935   N.am      1 RES1   0.0000
    24 C24     -3.2683   9.5293 -18.5170   C.2       1 RES1   0.0000
    25 O25     -2.0608   9.8174 -18.4527   O.2       1 RES1   0.0000
    26 C26     -4.1256  10.2067 -19.4847   C.2       1 RES1   0.0000
    27 C27     -3.7746  11.1282 -20.3419   C.2       1 RES1   0.0000
    28 C28     -4.7035  11.7537 -21.2795   C.2       1 RES1   0.0000
    29 C29     -6.0455  11.3472 -21.2342   C.2       1 RES1   0.0000
    30 C30     -6.9697  11.9275 -22.0736   C.2       1 RES1   0.0000
    31 Cl31    -8.6179  11.3762 -22.0327   Cl        1 RES1   0.0000
    32 C32     -6.6199  12.9204 -22.9594   C.2       1 RES1   0.0000
    33 C33     -5.2992  13.3391 -23.0198   C.2       1 RES1   0.0000
    34 C34     -4.3311  12.7561 -22.1925   C.2       1 RES1   0.0000
    35 N35     -2.9579  13.1465 -22.3410   N.pl3     1 RES1   0.0000
    36 C36     -2.1593  13.2165 -23.4097   C.2       1 RES1   0.0000
    37 N37     -0.9682  13.6085 -23.0475   N.2       1 RES1   0.0000
    38 N38     -1.0370  13.7861 -21.7061   N.2       1 RES1   0.0000
    39 N39     -2.2287  13.5222 -21.2592   N.2       1 RES1   0.0000
    40 C40     -3.0011   5.2417 -17.2839   C.2       1 RES1   0.0000
    41 C41     -2.3782   1.5955 -17.6312   C.2       1 RES1   0.0000
    42 C42     -2.9178   0.3583 -17.3170   C.2       1 RES1   0.0000
@<TRIPOS>BOND
     1     1     2    1
     2     2     3    1
     3     3     4    2
     4     3     5   am
     5     5     6    1
     6     6     7    2
     7     7     8    1
     8     8     9    2
     9     9    10    1
    10    10    11    2
    11    11    12    1
    12    12    13    2
    13    13    14    1
    14    14    15    1
    15    15    16    1
    16    16    17    1
    17    17    18    2
    18    18    19    1
    19    19    20    2
    20    20    21    1
    21    21    22    2
    22    15    23    1
    23    23    24   am
    24    24    25    2
    25    24    26    1
    26    26    27    2
    27    27    28    1
    28    28    29    2
    29    29    30    1
    30    30    31    1
    31    30    32    2
    32    32    33    1
    33    33    34    2
    34    34    35    1
    35    35    36    1
    36    36    37    2
    37    37    38    1
    38    38    39    2
    39    14    40    2
    40     9    41    1
    41    41    42    2
    42    42     6    1
    43    40    10    1
    44    22    17    1
    45    34    28    1
    46    39    35    1
@<TRIPOS>SUBSTRUCTURE
     1 RES1        1 GROUP             0 ****  ****    0  
