@<TRIPOS>MOLECULE
native_ligand
    61    64     1     0     0
SMALL
USER_CHARGES
****
Generated from the CSD

@<TRIPOS>ATOM
     1 C01    -21.9890 -52.4140 -21.5980   C.3       1 T92   -0.0430
     2 N02    -21.0930 -51.5000 -21.5750   N.4       1 T92    0.2358
     3 C03    -19.8940 -52.0380 -21.1820   C.3       1 T92   -0.0123
     4 C04    -18.8130 -50.9990 -20.8970   C.3       1 T92    0.0649
     5 C05    -21.5350 -50.5020 -20.7550   C.3       1 T92   -0.0123
     6 C06    -20.4750 -49.4370 -20.4810   C.3       1 T92    0.0649
     7 N07    -19.2750 -50.0170 -19.9330   N.pl3     1 T92   -0.3045
     8 C08    -18.3560 -49.2080 -19.0940   C.ar      1 T92    0.0297
     9 C09    -18.8820 -48.2060 -18.2850   C.ar      1 T92   -0.0528
    10 C10    -18.0310 -47.4340 -17.4820   C.ar      1 T92   -0.0489
    11 C11    -16.9870 -49.4440 -19.1100   C.ar      1 T92   -0.0528
    12 C12    -16.1390 -48.6670 -18.3100   C.ar      1 T92   -0.0489
    13 C13    -16.6650 -47.6660 -17.4940   C.ar      1 T92    0.0530
    14 N14    -15.8010 -46.8270 -16.6430   N.pl3     1 T92   -0.2515
    15 C15    -14.4750 -47.2430 -16.1790   C.ar      1 T92    0.1921
    16 N16    -13.7040 -46.3150 -15.6710   N.ar      1 T92   -0.2695
    17 C17    -12.4850 -46.5920 -15.2250   C.ar      1 T92    0.0145
    18 C18    -12.0390 -47.9120 -15.3080   C.ar      1 T92    0.0974
    19 CL19   -10.4120 -48.3090 -14.7180   Cl        1 T92   -0.0753
    20 C20    -12.8710 -48.8740 -15.8470   C.ar      1 T92    0.1457
    21 N21    -12.4450 -50.2750 -15.9470   N.pl3     1 T92   -0.2578
    22 C22    -12.6950 -51.1340 -17.1450   C.ar      1 T92    0.0997
    23 C23    -13.8370 -51.9470 -17.2350   C.ar      1 T92   -0.0449
    24 C24    -14.0240 -52.7430 -18.3800   C.ar      1 T92   -0.0816
    25 C25    -13.0910 -52.7420 -19.4310   C.ar      1 T92   -0.0810
    26 C26    -11.9470 -51.9290 -19.3390   C.ar      1 T92   -0.0370
    27 C27    -11.7620 -51.1440 -18.1990   C.ar      1 T92    0.1472
    28 O28    -10.6040 -50.3070 -18.0880   O.3       1 T92   -0.2180
    29 C29     -9.3500 -50.9540 -18.2100   C.2       1 T92    0.2541
    30 C30     -8.1370 -50.0210 -18.2310   C.3       1 T92    0.0497
    31 C31     -8.6280 -48.5910 -18.0110   C.3       1 T92   -0.0466
    32 O32     -9.2590 -52.1380 -18.2920   O.2       1 T92   -0.3644
    33 N33    -14.0860 -48.5060 -16.2690   N.ar      1 T92   -0.2355
    34 H1     -21.6595 -53.2340 -22.2529   H         1 T92    0.0778
    35 H2     -22.9309 -51.9946 -21.9813   H         1 T92    0.0778
    36 H3     -22.1465 -52.7988 -20.5796   H         1 T92    0.0778
    37 H4     -20.9785 -51.1237 -22.5031   H         1 T92    0.2032
    38 H5     -19.5337 -52.7020 -21.9816   H         1 T92    0.0834
    39 H6     -20.0610 -52.6240 -20.2662   H         1 T92    0.0834
    40 H7     -18.5507 -50.4867 -21.8344   H         1 T92    0.0562
    41 H8     -17.9236 -51.5064 -20.4951   H         1 T92    0.0562
    42 H9     -21.8405 -50.9463 -19.7963   H         1 T92    0.0834
    43 H10    -22.4025 -50.0187 -21.2282   H         1 T92    0.0834
    44 H11    -20.8787 -48.7065 -19.7645   H         1 T92    0.0562
    45 H12    -20.2276 -48.9275 -21.4240   H         1 T92    0.0562
    46 H13    -19.9503 -48.0221 -18.2756   H         1 T92    0.0490
    47 H14    -18.4421 -46.6545 -16.8508   H         1 T92    0.0507
    48 H15    -16.5767 -50.2259 -19.7387   H         1 T92    0.0490
    49 H16    -15.0698 -48.8447 -18.3254   H         1 T92    0.0507
    50 H17    -16.1481 -45.8995 -16.3598   H         1 T92    0.2145
    51 H18    -11.8539 -45.8154 -14.8083   H         1 T92    0.0852
    52 H19    -11.9459 -50.6896 -15.1471   H         1 T92    0.2139
    53 H20    -14.5652 -51.9609 -16.4322   H         1 T92    0.0506
    54 H21    -14.9055 -53.3697 -18.4530   H         1 T92    0.0501
    55 H22    -13.2517 -53.3626 -20.3052   H         1 T92    0.0495
    56 H23    -11.2190 -51.9120 -20.1419   H         1 T92    0.0519
    57 H24     -7.6283 -50.0941 -19.2035   H         1 T92    0.0518
    58 H25     -7.4379 -50.3017 -17.4295   H         1 T92    0.0518
    59 H26     -7.7699 -47.9029 -18.0226   H         1 T92    0.0255
    60 H27     -9.1386 -48.5241 -17.0390   H         1 T92    0.0255
    61 H28     -9.3289 -48.3165 -18.8131   H         1 T92    0.0255
@<TRIPOS>BOND
     1     1     2    1
     2     2     3    1
     3     2     5    1
     4     3     4    1
     5     4     7    1
     6     5     6    1
     7     6     7    1
     8     7     8    1
     9     8     9   ar
    10     8    11   ar
    11     9    10   ar
    12    10    13   ar
    13    11    12   ar
    14    12    13   ar
    15    13    14    1
    16    14    15    1
    17    15    16   ar
    18    15    33   ar
    19    16    17   ar
    20    17    18   ar
    21    18    19    1
    22    18    20   ar
    23    20    21    1
    24    20    33   ar
    25    21    22    1
    26    22    23   ar
    27    22    27   ar
    28    23    24   ar
    29    24    25   ar
    30    25    26   ar
    31    26    27   ar
    32    27    28    1
    33    28    29    1
    34    29    30    1
    35    29    32    2
    36    30    31    1
    37     1    34    1
    38     1    35    1
    39     1    36    1
    40     2    37    1
    41     3    38    1
    42     3    39    1
    43     4    40    1
    44     4    41    1
    45     5    42    1
    46     5    43    1
    47     6    44    1
    48     6    45    1
    49     9    46    1
    50    10    47    1
    51    11    48    1
    52    12    49    1
    53    14    50    1
    54    17    51    1
    55    21    52    1
    56    23    53    1
    57    24    54    1
    58    25    55    1
    59    26    56    1
    60    30    57    1
    61    30    58    1
    62    31    59    1
    63    31    60    1
    64    31    61    1
@<TRIPOS>SUBSTRUCTURE
     1 T92         1 GROUP             0 ****  ****    0  
@<TRIPOS>MOLECULE
ligand_0
    61    64     1     0     0
SMALL
USER_CHARGES
****
Generated from the CSD

@<TRIPOS>ATOM
     1 C1      -9.6185 -48.3723 -17.8936   C.3       1 RES1   0.0000
     2 C2      -8.8513 -49.6677 -18.1539   C.3       1 RES1   0.0000
     3 C3      -9.8507 -50.8267 -18.1513   C.2       1 RES1   0.0000
     4 O4     -11.0062 -50.6861 -17.9024   O.2       1 RES1   0.0000
     5 O5      -9.3022 -52.0941 -18.4656   O.3       1 RES1   0.0000
     6 C6     -10.2169 -53.1974 -18.4671   C.ar      1 RES1   0.0000
     7 C7     -10.7582 -53.6515 -19.6716   C.ar      1 RES1   0.0000
     8 C8     -11.6562 -54.7338 -19.6527   C.ar      1 RES1   0.0000
     9 C9     -11.9937 -55.3299 -18.4255   C.ar      1 RES1   0.0000
    10 C10    -11.4504 -54.8666 -17.2132   C.ar      1 RES1   0.0000
    11 C11    -10.5550 -53.7844 -17.2331   C.ar      1 RES1   0.0000
    12 N12     -9.9437 -53.2583 -15.9741   N.pl3     1 RES1   0.0000
    13 C13    -10.3420 -53.6964 -14.6311   C.ar      1 RES1   0.0000
    14 N14    -11.3823 -54.5222 -14.4712   N.ar      1 RES1   0.0000
    15 C15    -11.7441 -54.9213 -13.2611   C.ar      1 RES1   0.0000
    16 N16    -12.8851 -55.8210 -13.0730   N.pl3     1 RES1   0.0000
    17 C17    -13.7496 -56.2796 -14.1762   C.ar      1 RES1   0.0000
    18 C18    -14.2946 -57.5515 -14.1044   C.ar      1 RES1   0.0000
    19 C19    -15.1283 -58.0177 -15.1304   C.ar      1 RES1   0.0000
    20 C20    -15.4081 -57.2042 -16.2236   C.ar      1 RES1   0.0000
    21 N21    -16.2894 -57.7189 -17.3012   N.pl3     1 RES1   0.0000
    22 C22    -17.2309 -56.8910 -18.0486   C.3       1 RES1   0.0000
    23 C23    -17.3018 -57.3553 -19.4826   C.3       1 RES1   0.0000
    24 N24    -17.6654 -58.8011 -19.5544   N.4       1 RES1   1.0000
    25 C25    -17.7161 -59.1666 -20.7802   C.3       1 RES1   0.0000
    26 C26    -16.7282 -59.6210 -18.7312   C.3       1 RES1   0.0000
    27 C27    -16.6846 -59.1210 -17.3089   C.3       1 RES1   0.0000
    28 C28    -14.8645 -55.9280 -16.2998   C.ar      1 RES1   0.0000
    29 C29    -14.0358 -55.4635 -15.2700   C.ar      1 RES1   0.0000
    30 N30    -11.1030 -54.5402 -12.1853   N.ar      1 RES1   0.0000
    31 C31    -10.0578 -53.7249 -12.2517   C.ar      1 RES1   0.0000
    32 C32     -9.6504 -53.2798 -13.5103   C.ar      1 RES1   0.0000
    33 Cl33    -8.2546 -52.1884 -13.6265   Cl        1 RES1   0.0000
    34 H1     -10.1169 -48.4335 -16.9273   H         1 RES1   0.0000
    35 H2      -8.9242 -47.5334 -17.8914   H         1 RES1   0.0000
    36 H3     -10.3613 -48.2267 -18.6766   H         1 RES1   0.0000
    37 H4      -8.1091 -49.8197 -17.3716   H         1 RES1   0.0000
    38 H5      -8.3535 -49.6129 -19.1209   H         1 RES1   0.0000
    39 H6     -10.4887 -53.1742 -20.6126   H         1 RES1   0.0000
    40 H7     -12.0863 -55.1067 -20.5810   H         1 RES1   0.0000
    41 H8     -12.6898 -56.1673 -18.4127   H         1 RES1   0.0000
    42 H9     -11.7207 -55.3411 -16.2710   H         1 RES1   0.0000
    43 H10     -9.2123 -52.5590 -16.0526   H         1 RES1   0.0000
    44 H11    -13.0914 -56.1458 -12.1338   H         1 RES1   0.0000
    45 H12    -14.0750 -58.1898 -13.2498   H         1 RES1   0.0000
    46 H13    -15.5571 -59.0170 -15.0716   H         1 RES1   0.0000
    47 H14    -16.8995 -55.8540 -18.0214   H         1 RES1   0.0000
    48 H15    -18.2180 -56.9687 -17.5953   H         1 RES1   0.0000
    49 H16    -16.3314 -57.2074 -19.9541   H         1 RES1   0.0000
    50 H17    -18.0545 -56.7713 -20.0101   H         1 RES1   0.0000
    51 H18    -18.5953 -58.9062 -19.1615   H         1 RES1   0.0000
    52 H19    -16.7435 -59.0128 -21.2454   H         1 RES1   0.0000
    53 H20    -17.9813 -60.2214 -20.8338   H         1 RES1   0.0000
    54 H21    -18.4665 -58.5765 -21.3042   H         1 RES1   0.0000
    55 H22    -15.7295 -59.5608 -19.1613   H         1 RES1   0.0000
    56 H23    -17.0632 -60.6572 -18.7350   H         1 RES1   0.0000
    57 H24    -17.6703 -59.2232 -16.8574   H         1 RES1   0.0000
    58 H25    -15.9626 -59.7052 -16.7403   H         1 RES1   0.0000
    59 H26    -15.0816 -55.2914 -17.1563   H         1 RES1   0.0000
    60 H27    -13.6135 -54.4612 -15.3240   H         1 RES1   0.0000
    61 H28     -9.5331 -53.4122 -11.3501   H         1 RES1   0.0000
@<TRIPOS>BOND
     1     1     2    1
     2     2     3    1
     3     3     4    2
     4     3     5    1
     5     5     6    1
     6     6     7   ar
     7     7     8   ar
     8     8     9   ar
     9     9    10   ar
    10    10    11   ar
    11    11    12    1
    12    12    13    1
    13    13    14   ar
    14    14    15   ar
    15    15    16    1
    16    16    17    1
    17    17    18   ar
    18    18    19   ar
    19    19    20   ar
    20    20    21    1
    21    21    22    1
    22    22    23    1
    23    23    24    1
    24    24    25    1
    25    24    26    1
    26    26    27    1
    27    20    28   ar
    28    28    29   ar
    29    15    30   ar
    30    30    31   ar
    31    31    32   ar
    32    32    33    1
    33    11     6   ar
    34    32    13   ar
    35    29    17   ar
    36    27    21    1
    37     1    34    1
    38     1    35    1
    39     1    36    1
    40     2    37    1
    41     2    38    1
    42     7    39    1
    43     8    40    1
    44     9    41    1
    45    10    42    1
    46    12    43    1
    47    16    44    1
    48    18    45    1
    49    19    46    1
    50    22    47    1
    51    22    48    1
    52    23    49    1
    53    23    50    1
    54    24    51    1
    55    25    52    1
    56    25    53    1
    57    25    54    1
    58    26    55    1
    59    26    56    1
    60    27    57    1
    61    27    58    1
    62    28    59    1
    63    29    60    1
    64    31    61    1
@<TRIPOS>SUBSTRUCTURE
     1 RES1        1 GROUP             0 ****  ****    0  
@<TRIPOS>CRYSIN
    1.0000    1.0000    1.0000   90.0000   90.0000   90.0000     1     1
@<TRIPOS>MOLECULE
ligand_1
    61    64     1     0     0
SMALL
USER_CHARGES
****
Generated from the CSD

@<TRIPOS>ATOM
     1 C1      -7.7532 -48.9944 -18.2915   C.3       1 RES1   0.0000
     2 C2      -7.5576 -50.4963 -18.4925   C.3       1 RES1   0.0000
     3 C3      -8.9200 -51.1804 -18.3581   C.2       1 RES1   0.0000
     4 O4      -9.9140 -50.5943 -18.0659   O.2       1 RES1   0.0000
     5 O5      -8.9192 -52.5751 -18.6046   O.3       1 RES1   0.0000
     6 C6     -10.1826 -53.2406 -18.4824   C.ar      1 RES1   0.0000
     7 C7     -10.4883 -53.9455 -17.3163   C.ar      1 RES1   0.0000
     8 C8     -11.7321 -54.5944 -17.2159   C.ar      1 RES1   0.0000
     9 C9     -12.6359 -54.5252 -18.2898   C.ar      1 RES1   0.0000
    10 C10    -12.3227 -53.8182 -19.4653   C.ar      1 RES1   0.0000
    11 C11    -11.0794 -53.1721 -19.5652   C.ar      1 RES1   0.0000
    12 N12    -10.7002 -52.4015 -20.7891   N.pl3     1 RES1   0.0000
    13 C13    -11.4932 -52.3939 -22.0242   C.ar      1 RES1   0.0000
    14 N14    -12.5573 -53.1952 -22.1482   N.ar      1 RES1   0.0000
    15 C15    -13.2766 -53.1903 -23.2605   C.ar      1 RES1   0.0000
    16 N16    -14.4406 -54.0674 -23.4102   N.pl3     1 RES1   0.0000
    17 C17    -14.8488 -55.0571 -22.3961   C.ar      1 RES1   0.0000
    18 C18    -16.1996 -55.3210 -22.2356   C.ar      1 RES1   0.0000
    19 C19    -16.6239 -56.2624 -21.2876   C.ar      1 RES1   0.0000
    20 C20    -15.6889 -56.9319 -20.5049   C.ar      1 RES1   0.0000
    21 N21    -16.1596 -57.9214 -19.5037   N.pl3     1 RES1   0.0000
    22 C22    -15.4412 -59.1472 -19.1698   C.3       1 RES1   0.0000
    23 C23    -15.5963 -59.4530 -17.7003   C.3       1 RES1   0.0000
    24 N24    -17.0386 -59.5432 -17.3270   N.4       1 RES1   1.0000
    25 C25    -17.1392 -59.8011 -16.0771   C.3       1 RES1   0.0000
    26 C26    -17.7665 -58.3058 -17.7358   C.3       1 RES1   0.0000
    27 C27    -17.5814 -58.0355 -19.2081   C.3       1 RES1   0.0000
    28 C28    -14.3334 -56.6713 -20.6626   C.ar      1 RES1   0.0000
    29 C29    -13.9127 -55.7336 -21.6147   C.ar      1 RES1   0.0000
    30 N30    -12.9892 -52.4055 -24.2681   N.ar      1 RES1   0.0000
    31 C31    -11.9536 -51.5763 -24.2294   C.ar      1 RES1   0.0000
    32 C32    -11.1696 -51.5573 -23.0747   C.ar      1 RES1   0.0000
    33 Cl33    -9.7784 -50.4568 -22.9975   Cl        1 RES1   0.0000
    34 H1     -14.9953 -53.9897 -24.2566   H         1 RES1   0.0000
    35 H2     -11.7222 -50.9293 -25.0743   H         1 RES1   0.0000
    36 H3      -8.1668 -48.8116 -17.3008   H         1 RES1   0.0000
    37 H4      -6.7936 -48.4879 -18.3834   H         1 RES1   0.0000
    38 H5      -8.4386 -48.6133 -19.0470   H         1 RES1   0.0000
    39 H6      -6.8752 -50.8831 -17.7371   H         1 RES1   0.0000
    40 H7      -7.1470 -50.6848 -19.4833   H         1 RES1   0.0000
    41 H8     -16.9325 -54.7964 -22.8467   H         1 RES1   0.0000
    42 H9     -15.1260 -58.6611 -17.1193   H         1 RES1   0.0000
    43 H10    -15.1104 -60.4024 -17.4800   H         1 RES1   0.0000
    44 H11    -17.4421 -60.3224 -17.8372   H         1 RES1   0.0000
    45 H12    -16.6641 -59.0069 -15.5032   H         1 RES1   0.0000
    46 H13    -18.1912 -59.8671 -15.8036   H         1 RES1   0.0000
    47 H14    -16.6479 -60.7487 -15.8613   H         1 RES1   0.0000
    48 H15    -17.6858 -56.4697 -21.1638   H         1 RES1   0.0000
    49 H16    -14.3848 -59.0207 -19.4022   H         1 RES1   0.0000
    50 H17    -15.8452 -59.9724 -19.7544   H         1 RES1   0.0000
    51 H18    -17.3814 -57.4609 -17.1668   H         1 RES1   0.0000
    52 H19    -18.8279 -58.4307 -17.5267   H         1 RES1   0.0000
    53 H20    -18.0078 -58.8552 -19.7845   H         1 RES1   0.0000
    54 H21    -18.0833 -57.1060 -19.4728   H         1 RES1   0.0000
    55 H22    -13.6011 -57.1937 -20.0488   H         1 RES1   0.0000
    56 H23    -12.8504 -55.5322 -21.7451   H         1 RES1   0.0000
    57 H24     -9.7735 -53.9921 -16.4960   H         1 RES1   0.0000
    58 H25    -11.9926 -55.1458 -16.3136   H         1 RES1   0.0000
    59 H26    -13.5981 -55.0290 -18.2106   H         1 RES1   0.0000
    60 H27    -13.0353 -53.7725 -20.2875   H         1 RES1   0.0000
    61 H28     -9.8466 -51.8529 -20.7645   H         1 RES1   0.0000
@<TRIPOS>BOND
     1     1     2    1
     2     2     3    1
     3     3     4    2
     4     3     5    1
     5     5     6    1
     6     6     7   ar
     7     7     8   ar
     8     8     9   ar
     9     9    10   ar
    10    10    11   ar
    11    11    12    1
    12    12    13    1
    13    13    14   ar
    14    14    15   ar
    15    15    16    1
    16    16    17    1
    17    17    18   ar
    18    18    19   ar
    19    19    20   ar
    20    20    21    1
    21    21    22    1
    22    22    23    1
    23    23    24    1
    24    24    25    1
    25    24    26    1
    26    26    27    1
    27    20    28   ar
    28    28    29   ar
    29    15    30   ar
    30    30    31   ar
    31    31    32   ar
    32    32    33    1
    33    11     6   ar
    34    32    13   ar
    35    29    17   ar
    36    27    21    1
    37    16    34    1
    38    31    35    1
    39     1    36    1
    40     1    37    1
    41     1    38    1
    42     2    39    1
    43     2    40    1
    44    18    41    1
    45    23    42    1
    46    23    43    1
    47    24    44    1
    48    25    45    1
    49    25    46    1
    50    25    47    1
    51    19    48    1
    52    22    49    1
    53    22    50    1
    54    26    51    1
    55    26    52    1
    56    27    53    1
    57    27    54    1
    58    28    55    1
    59    29    56    1
    60     7    57    1
    61     8    58    1
    62     9    59    1
    63    10    60    1
    64    12    61    1
@<TRIPOS>SUBSTRUCTURE
     1 RES1        1 GROUP             0 ****  ****    0  
@<TRIPOS>CRYSIN
    1.0000    1.0000    1.0000   90.0000   90.0000   90.0000     1     1
@<TRIPOS>MOLECULE
ligand_2
    61    64     1     0     0
SMALL
USER_CHARGES
****
Generated from the CSD

@<TRIPOS>ATOM
     1 C1      -8.6962 -48.5664 -17.9973   C.3       1 RES1   0.0000
     2 C2      -8.1855 -49.9886 -18.2226   C.3       1 RES1   0.0000
     3 C3      -9.3852 -50.9386 -18.2031   C.2       1 RES1   0.0000
     4 O4     -10.4947 -50.5775 -17.9674   O.2       1 RES1   0.0000
     5 O5      -9.0838 -52.2935 -18.4849   O.3       1 RES1   0.0000
     6 C6     -10.1898 -53.2047 -18.4701   C.ar      1 RES1   0.0000
     7 C7     -10.8017 -53.5766 -19.6690   C.ar      1 RES1   0.0000
     8 C8     -11.8875 -54.4699 -19.6341   C.ar      1 RES1   0.0000
     9 C9     -12.3365 -54.9634 -18.3971   C.ar      1 RES1   0.0000
    10 C10    -11.7209 -54.5826 -17.1906   C.ar      1 RES1   0.0000
    11 C11    -10.6377 -53.6890 -17.2265   C.ar      1 RES1   0.0000
    12 N12     -9.9437 -53.2583 -15.9741   N.pl3     1 RES1   0.0000
    13 C13    -10.3420 -53.6964 -14.6311   C.ar      1 RES1   0.0000
    14 N14    -11.3823 -54.5222 -14.4712   N.ar      1 RES1   0.0000
    15 C15    -11.7441 -54.9213 -13.2611   C.ar      1 RES1   0.0000
    16 N16    -12.8851 -55.8210 -13.0730   N.pl3     1 RES1   0.0000
    17 C17    -13.2986 -56.3461 -11.7586   C.ar      1 RES1   0.0000
    18 C18    -14.6492 -56.5438 -11.5204   C.ar      1 RES1   0.0000
    19 C19    -15.0783 -57.0501 -10.2857   C.ar      1 RES1   0.0000
    20 C20    -14.1482 -57.3532  -9.2966   C.ar      1 RES1   0.0000
    21 N21    -14.6240 -57.8839  -7.9947   N.pl3     1 RES1   0.0000
    22 C22    -13.8999 -58.8753  -7.2055   C.3       1 RES1   0.0000
    23 C23    -14.0722 -58.5903  -5.7337   C.3       1 RES1   0.0000
    24 N24    -15.5186 -58.5476  -5.3678   N.4       1 RES1   1.0000
    25 C25    -15.6338 -58.3027  -4.1166   C.3       1 RES1   0.0000
    26 C26    -16.2513 -57.5746  -6.2307   C.3       1 RES1   0.0000
    27 C27    -16.0487 -57.8930  -7.6910   C.3       1 RES1   0.0000
    28 C28    -12.7929 -57.1574  -9.5309   C.ar      1 RES1   0.0000
    29 C29    -12.3674 -56.6560 -10.7680   C.ar      1 RES1   0.0000
    30 N30    -11.1030 -54.5402 -12.1853   N.ar      1 RES1   0.0000
    31 C31    -10.0578 -53.7249 -12.2517   C.ar      1 RES1   0.0000
    32 C32     -9.6504 -53.2798 -13.5103   C.ar      1 RES1   0.0000
    33 Cl33    -8.2546 -52.1884 -13.6265   Cl        1 RES1   0.0000
    34 H1     -10.4431 -53.1804 -20.6179   H         1 RES1   0.0000
    35 H2     -12.3762 -54.7766 -20.5577   H         1 RES1   0.0000
    36 H3     -15.8810 -56.5704  -6.0298   H         1 RES1   0.0000
    37 H4     -17.3143 -57.6226  -5.9993   H         1 RES1   0.0000
    38 H5     -16.4604 -58.8774  -7.9088   H         1 RES1   0.0000
    39 H6     -16.5548 -57.1451  -8.2996   H         1 RES1   0.0000
    40 H7     -12.0644 -57.3926  -8.7563   H         1 RES1   0.0000
    41 H8     -11.3052 -56.5077 -10.9567   H         1 RES1   0.0000
    42 H9      -9.5331 -53.4122 -11.3501   H         1 RES1   0.0000
    43 H10    -12.8416 -58.8349  -7.4591   H         1 RES1   0.0000
    44 H11    -14.2890 -59.8677  -7.4285   H         1 RES1   0.0000
    45 H12    -13.6164 -57.6292  -5.5004   H         1 RES1   0.0000
    46 H13    -13.5814 -59.3740  -5.1585   H         1 RES1   0.0000
    47 H14    -15.9086 -59.4687  -5.5400   H         1 RES1   0.0000
    48 H15    -15.1731 -57.3421  -3.8908   H         1 RES1   0.0000
    49 H16    -16.6888 -58.2713  -3.8485   H         1 RES1   0.0000
    50 H17    -15.1374 -59.0863  -3.5461   H         1 RES1   0.0000
    51 H18     -9.1528 -52.6276 -16.0573   H         1 RES1   0.0000
    52 H19    -15.3783 -56.3055 -12.2934   H         1 RES1   0.0000
    53 H20    -16.1401 -57.2062 -10.1007   H         1 RES1   0.0000
    54 H21    -13.4191 -56.0974 -13.8907   H         1 RES1   0.0000
    55 H22    -13.1778 -55.6544 -18.3719   H         1 RES1   0.0000
    56 H23    -12.0798 -54.9758 -16.2406   H         1 RES1   0.0000
    57 H24     -9.2013 -48.5104 -17.0341   H         1 RES1   0.0000
    58 H25     -7.8564 -47.8732 -18.0076   H         1 RES1   0.0000
    59 H26     -9.3950 -48.3019 -18.7896   H         1 RES1   0.0000
    60 H27     -7.4885 -50.2593 -17.4309   H         1 RES1   0.0000
    61 H28     -7.6822 -50.0508 -19.1863   H         1 RES1   0.0000
@<TRIPOS>BOND
     1     1     2    1
     2     2     3    1
     3     3     4    2
     4     3     5    1
     5     5     6    1
     6     6     7   ar
     7     7     8   ar
     8     8     9   ar
     9     9    10   ar
    10    10    11   ar
    11    11    12    1
    12    12    13    1
    13    13    14   ar
    14    14    15   ar
    15    15    16    1
    16    16    17    1
    17    17    18   ar
    18    18    19   ar
    19    19    20   ar
    20    20    21    1
    21    21    22    1
    22    22    23    1
    23    23    24    1
    24    24    25    1
    25    24    26    1
    26    26    27    1
    27    20    28   ar
    28    28    29   ar
    29    15    30   ar
    30    30    31   ar
    31    31    32   ar
    32    32    33    1
    33    11     6   ar
    34    32    13   ar
    35    29    17   ar
    36    27    21    1
    37     7    34    1
    38     8    35    1
    39    26    36    1
    40    26    37    1
    41    27    38    1
    42    27    39    1
    43    28    40    1
    44    29    41    1
    45    31    42    1
    46    22    43    1
    47    22    44    1
    48    23    45    1
    49    23    46    1
    50    24    47    1
    51    25    48    1
    52    25    49    1
    53    25    50    1
    54    12    51    1
    55    18    52    1
    56    19    53    1
    57    16    54    1
    58     9    55    1
    59    10    56    1
    60     1    57    1
    61     1    58    1
    62     1    59    1
    63     2    60    1
    64     2    61    1
@<TRIPOS>SUBSTRUCTURE
     1 RES1        1 GROUP             0 ****  ****    0  
@<TRIPOS>CRYSIN
    1.0000    1.0000    1.0000   90.0000   90.0000   90.0000     1     1
@<TRIPOS>MOLECULE
ligand_3
    61    64     1     0     0
SMALL
USER_CHARGES
****
Generated from the CSD

@<TRIPOS>ATOM
     1 C1      -8.5615 -48.6158 -18.0276   C.3       1 RES1   0.0000
     2 C2      -8.0906 -50.0523 -18.2491   C.3       1 RES1   0.0000
     3 C3      -9.3155 -50.9693 -18.2197   C.2       1 RES1   0.0000
     4 O4     -10.4136 -50.5773 -17.9802   O.2       1 RES1   0.0000
     5 O5      -9.0523 -52.3331 -18.4970   O.3       1 RES1   0.0000
     6 C6     -10.1825 -53.2140 -18.4729   C.ar      1 RES1   0.0000
     7 C7     -10.4282 -54.0006 -17.3455   C.ar      1 RES1   0.0000
     8 C8     -11.5408 -54.8609 -17.3415   C.ar      1 RES1   0.0000
     9 C9     -12.3759 -54.9154 -18.4705   C.ar      1 RES1   0.0000
    10 C10    -12.1225 -54.1252 -19.6067   C.ar      1 RES1   0.0000
    11 C11    -11.0100 -53.2676 -19.6104   C.ar      1 RES1   0.0000
    12 N12    -10.7002 -52.4015 -20.7891   N.pl3     1 RES1   0.0000
    13 C13    -11.4932 -52.3939 -22.0242   C.ar      1 RES1   0.0000
    14 N14    -12.5573 -53.1952 -22.1482   N.ar      1 RES1   0.0000
    15 C15    -13.2766 -53.1903 -23.2605   C.ar      1 RES1   0.0000
    16 N16    -14.4406 -54.0674 -23.4102   N.pl3     1 RES1   0.0000
    17 C17    -15.3137 -54.0643 -24.5986   C.ar      1 RES1   0.0000
    18 C18    -15.8724 -55.2631 -25.0119   C.ar      1 RES1   0.0000
    19 C19    -16.7146 -55.2966 -26.1321   C.ar      1 RES1   0.0000
    20 C20    -16.9890 -54.1260 -26.8317   C.ar      1 RES1   0.0000
    21 N21    -17.8795 -54.1843 -28.0178   N.pl3     1 RES1   0.0000
    22 C22    -18.8135 -53.1256 -28.3879   C.3       1 RES1   0.0000
    23 C23    -18.8941 -53.0097 -29.8903   C.3       1 RES1   0.0000
    24 N24    -19.2747 -54.3163 -30.5032   N.4       1 RES1   1.0000
    25 C25    -19.3333 -54.1884 -31.7755   C.3       1 RES1   0.0000
    26 C26    -18.3446 -55.3964 -30.0597   C.3       1 RES1   0.0000
    27 C27    -18.2909 -55.4745 -28.5545   C.3       1 RES1   0.0000
    28 C28    -16.4317 -52.9216 -26.4209   C.ar      1 RES1   0.0000
    29 C29    -15.5946 -52.8910 -25.2978   C.ar      1 RES1   0.0000
    30 N30    -12.9892 -52.4055 -24.2681   N.ar      1 RES1   0.0000
    31 C31    -11.9536 -51.5763 -24.2294   C.ar      1 RES1   0.0000
    32 C32    -11.1696 -51.5573 -23.0747   C.ar      1 RES1   0.0000
    33 Cl33    -9.7784 -50.4568 -22.9975   Cl        1 RES1   0.0000
    34 H1     -12.7808 -54.1778 -20.4726   H         1 RES1   0.0000
    35 H2      -9.8965 -51.7842 -20.7320   H         1 RES1   0.0000
    36 H3      -9.0602 -48.5420 -17.0623   H         1 RES1   0.0000
    37 H4      -7.7033 -47.9457 -18.0450   H         1 RES1   0.0000
    38 H5      -9.2567 -48.3358 -18.8177   H         1 RES1   0.0000
    39 H6      -7.3973 -50.3385 -17.4595   H         1 RES1   0.0000
    40 H7      -7.5939 -50.1322 -19.2149   H         1 RES1   0.0000
    41 H8      -9.7675 -53.9486 -16.4814   H         1 RES1   0.0000
    42 H9     -11.7534 -55.4796 -16.4709   H         1 RES1   0.0000
    43 H10    -13.2365 -55.5827 -18.4658   H         1 RES1   0.0000
    44 H11    -19.2764 -55.7311 -28.1685   H         1 RES1   0.0000
    45 H12    -17.5739 -56.2377 -28.2556   H         1 RES1   0.0000
    46 H13    -16.6446 -52.0052 -26.9694   H         1 RES1   0.0000
    47 H14    -15.1616 -51.9472 -24.9696   H         1 RES1   0.0000
    48 H15    -14.6575 -54.7112 -22.6561   H         1 RES1   0.0000
    49 H16    -17.1541 -56.2393 -26.4547   H         1 RES1   0.0000
    50 H17    -15.6570 -56.1803 -24.4659   H         1 RES1   0.0000
    51 H18    -18.4700 -52.1799 -27.9712   H         1 RES1   0.0000
    52 H19    -19.8001 -53.3602 -27.9909   H         1 RES1   0.0000
    53 H20    -11.7222 -50.9293 -25.0743   H         1 RES1   0.0000
    54 H21    -17.9234 -52.7031 -30.2773   H         1 RES1   0.0000
    55 H22    -19.6415 -52.2619 -30.1511   H         1 RES1   0.0000
    56 H23    -20.2046 -54.5538 -30.1729   H         1 RES1   0.0000
    57 H24    -18.3604 -53.8788 -32.1544   H         1 RES1   0.0000
    58 H25    -19.6109 -55.1413 -32.2237   H         1 RES1   0.0000
    59 H26    -20.0784 -53.4363 -32.0308   H         1 RES1   0.0000
    60 H27    -17.3466 -55.1870 -30.4419   H         1 RES1   0.0000
    61 H28    -18.6916 -56.3503 -30.4542   H         1 RES1   0.0000
@<TRIPOS>BOND
     1     1     2    1
     2     2     3    1
     3     3     4    2
     4     3     5    1
     5     5     6    1
     6     6     7   ar
     7     7     8   ar
     8     8     9   ar
     9     9    10   ar
    10    10    11   ar
    11    11    12    1
    12    12    13    1
    13    13    14   ar
    14    14    15   ar
    15    15    16    1
    16    16    17    1
    17    17    18   ar
    18    18    19   ar
    19    19    20   ar
    20    20    21    1
    21    21    22    1
    22    22    23    1
    23    23    24    1
    24    24    25    1
    25    24    26    1
    26    26    27    1
    27    20    28   ar
    28    28    29   ar
    29    15    30   ar
    30    30    31   ar
    31    31    32   ar
    32    32    33    1
    33    11     6   ar
    34    32    13   ar
    35    29    17   ar
    36    27    21    1
    37    10    34    1
    38    12    35    1
    39     1    36    1
    40     1    37    1
    41     1    38    1
    42     2    39    1
    43     2    40    1
    44     7    41    1
    45     8    42    1
    46     9    43    1
    47    27    44    1
    48    27    45    1
    49    28    46    1
    50    29    47    1
    51    16    48    1
    52    19    49    1
    53    18    50    1
    54    22    51    1
    55    22    52    1
    56    31    53    1
    57    23    54    1
    58    23    55    1
    59    24    56    1
    60    25    57    1
    61    25    58    1
    62    25    59    1
    63    26    60    1
    64    26    61    1
@<TRIPOS>SUBSTRUCTURE
     1 RES1        1 GROUP             0 ****  ****    0  
@<TRIPOS>CRYSIN
    1.0000    1.0000    1.0000   90.0000   90.0000   90.0000     1     1
@<TRIPOS>MOLECULE
ligand_4
    61    64     1     0     0
SMALL
USER_CHARGES
****
Generated from the CSD

@<TRIPOS>ATOM
     1 C1      -7.7555 -48.9974 -18.1468   C.3       1 RES1   0.0000
     2 C2      -7.5534 -50.5014 -18.3244   C.3       1 RES1   0.0000
     3 C3      -8.9247 -51.1794 -18.2765   C.2       1 RES1   0.0000
     4 O4      -9.9334 -50.5875 -18.0551   O.2       1 RES1   0.0000
     5 O5      -8.9135 -52.5758 -18.5132   O.3       1 RES1   0.0000
     6 C6     -10.1850 -53.2355 -18.4710   C.ar      1 RES1   0.0000
     7 C7     -10.8666 -53.5104 -19.6584   C.ar      1 RES1   0.0000
     8 C8     -12.1145 -54.1561 -19.5967   C.ar      1 RES1   0.0000
     9 C9     -12.6506 -54.5048 -18.3452   C.ar      1 RES1   0.0000
    10 C10    -11.9635 -54.2219 -17.1505   C.ar      1 RES1   0.0000
    11 C11    -10.7181 -53.5752 -17.2132   C.ar      1 RES1   0.0000
    12 N12     -9.9437 -53.2583 -15.9741   N.pl3     1 RES1   0.0000
    13 C13    -10.3420 -53.6964 -14.6311   C.ar      1 RES1   0.0000
    14 N14    -11.3823 -54.5222 -14.4712   N.ar      1 RES1   0.0000
    15 C15    -11.7441 -54.9213 -13.2611   C.ar      1 RES1   0.0000
    16 N16    -12.8851 -55.8210 -13.0730   N.pl3     1 RES1   0.0000
    17 C17    -13.6631 -56.3918 -14.1882   C.ar      1 RES1   0.0000
    18 C18    -15.0343 -56.5237 -14.0386   C.ar      1 RES1   0.0000
    19 C19    -15.8071 -57.0538 -15.0811   C.ar      1 RES1   0.0000
    20 C20    -15.1977 -57.4502 -16.2671   C.ar      1 RES1   0.0000
    21 N21    -16.0336 -58.0133 -17.3567   N.pl3     1 RES1   0.0000
    22 C22    -15.7763 -57.7950 -18.7767   C.3       1 RES1   0.0000
    23 C23    -16.1268 -59.0350 -19.5619   C.3       1 RES1   0.0000
    24 N24    -17.5436 -59.4352 -19.3161   N.4       1 RES1   1.0000
    25 C25    -17.8114 -60.4887 -19.9922   C.3       1 RES1   0.0000
    26 C26    -17.8007 -59.5898 -17.8539   C.3       1 RES1   0.0000
    27 C27    -17.4332 -58.3315 -17.1079   C.3       1 RES1   0.0000
    28 C28    -13.8233 -57.3193 -16.4221   C.ar      1 RES1   0.0000
    29 C29    -13.0548 -56.7843 -15.3800   C.ar      1 RES1   0.0000
    30 N30    -11.1030 -54.5402 -12.1853   N.ar      1 RES1   0.0000
    31 C31    -10.0578 -53.7249 -12.2517   C.ar      1 RES1   0.0000
    32 C32     -9.6504 -53.2798 -13.5103   C.ar      1 RES1   0.0000
    33 Cl33    -8.2546 -52.1884 -13.6265   Cl        1 RES1   0.0000
    34 H1     -14.7220 -57.5632 -18.9206   H         1 RES1   0.0000
    35 H2     -16.3826 -56.9618 -19.1290   H         1 RES1   0.0000
    36 H3     -15.4685 -59.8477 -19.2585   H         1 RES1   0.0000
    37 H4     -15.9913 -58.8353 -20.6238   H         1 RES1   0.0000
    38 H5     -18.1399 -58.6883 -19.6579   H         1 RES1   0.0000
    39 H6     -13.1543 -56.0643 -12.1251   H         1 RES1   0.0000
    40 H7      -8.2333 -48.8062 -17.1871   H         1 RES1   0.0000
    41 H8      -6.7897 -48.4952 -18.1779   H         1 RES1   0.0000
    42 H9      -8.3875 -48.6189 -18.9488   H         1 RES1   0.0000
    43 H10     -6.9244 -50.8856 -17.5227   H         1 RES1   0.0000
    44 H11     -7.0786 -50.6983 -19.2844   H         1 RES1   0.0000
    45 H12    -11.9781 -56.6745 -15.5012   H         1 RES1   0.0000
    46 H13     -9.5331 -53.4122 -11.3501   H         1 RES1   0.0000
    47 H14    -10.4378 -53.2287 -20.6189   H         1 RES1   0.0000
    48 H15    -17.1473 -61.2954 -19.6855   H         1 RES1   0.0000
    49 H16    -18.8449 -60.7817 -19.8136   H         1 RES1   0.0000
    50 H17    -17.6698 -60.2852 -21.0526   H         1 RES1   0.0000
    51 H18    -17.2047 -60.4176 -17.4725   H         1 RES1   0.0000
    52 H19    -18.8575 -59.8012 -17.6979   H         1 RES1   0.0000
    53 H20    -18.0594 -57.5094 -17.4514   H         1 RES1   0.0000
    54 H21    -17.5871 -58.4837 -16.0406   H         1 RES1   0.0000
    55 H22    -13.3454 -57.6312 -17.3496   H         1 RES1   0.0000
    56 H23     -9.0950 -52.7094 -16.0669   H         1 RES1   0.0000
    57 H24    -15.5122 -56.2152 -13.1100   H         1 RES1   0.0000
    58 H25    -16.8848 -57.1553 -14.9625   H         1 RES1   0.0000
    59 H26    -12.6607 -54.3839 -20.5108   H         1 RES1   0.0000
    60 H27    -13.6173 -55.0040 -18.2993   H         1 RES1   0.0000
    61 H28    -12.3919 -54.5009 -16.1890   H         1 RES1   0.0000
@<TRIPOS>BOND
     1     1     2    1
     2     2     3    1
     3     3     4    2
     4     3     5    1
     5     5     6    1
     6     6     7   ar
     7     7     8   ar
     8     8     9   ar
     9     9    10   ar
    10    10    11   ar
    11    11    12    1
    12    12    13    1
    13    13    14   ar
    14    14    15   ar
    15    15    16    1
    16    16    17    1
    17    17    18   ar
    18    18    19   ar
    19    19    20   ar
    20    20    21    1
    21    21    22    1
    22    22    23    1
    23    23    24    1
    24    24    25    1
    25    24    26    1
    26    26    27    1
    27    20    28   ar
    28    28    29   ar
    29    15    30   ar
    30    30    31   ar
    31    31    32   ar
    32    32    33    1
    33    11     6   ar
    34    32    13   ar
    35    29    17   ar
    36    27    21    1
    37    22    34    1
    38    22    35    1
    39    23    36    1
    40    23    37    1
    41    24    38    1
    42    16    39    1
    43     1    40    1
    44     1    41    1
    45     1    42    1
    46     2    43    1
    47     2    44    1
    48    29    45    1
    49    31    46    1
    50     7    47    1
    51    25    48    1
    52    25    49    1
    53    25    50    1
    54    26    51    1
    55    26    52    1
    56    27    53    1
    57    27    54    1
    58    28    55    1
    59    12    56    1
    60    18    57    1
    61    19    58    1
    62     8    59    1
    63     9    60    1
    64    10    61    1
@<TRIPOS>SUBSTRUCTURE
     1 RES1        1 GROUP             0 ****  ****    0  
@<TRIPOS>CRYSIN
    1.0000    1.0000    1.0000   90.0000   90.0000   90.0000     1     1
@<TRIPOS>MOLECULE
ligand_5
    61    64     1     0     0
SMALL
USER_CHARGES
****
Generated from the CSD

@<TRIPOS>ATOM
     1 C1      -9.5482 -48.4058 -17.7496   C.3       1 RES1   0.0000
     2 C2      -8.7928 -49.7147 -17.9742   C.3       1 RES1   0.0000
     3 C3      -9.8157 -50.8488 -18.0731   C.2       1 RES1   0.0000
     4 O4     -10.9838 -50.6844 -17.9132   O.2       1 RES1   0.0000
     5 O5      -9.2734 -52.1235 -18.3681   O.3       1 RES1   0.0000
     6 C6     -10.2103 -53.2038 -18.4633   C.ar      1 RES1   0.0000
     7 C7     -10.3830 -54.0727 -17.3839   C.ar      1 RES1   0.0000
     8 C8     -11.3051 -55.1287 -17.4970   C.ar      1 RES1   0.0000
     9 C9     -12.0268 -55.2905 -18.6921   C.ar      1 RES1   0.0000
    10 C10    -11.8466 -54.4161 -19.7796   C.ar      1 RES1   0.0000
    11 C11    -10.9240 -53.3629 -19.6661   C.ar      1 RES1   0.0000
    12 N12    -10.7002 -52.4015 -20.7891   N.pl3     1 RES1   0.0000
    13 C13    -11.4932 -52.3939 -22.0242   C.ar      1 RES1   0.0000
    14 N14    -12.5573 -53.1952 -22.1482   N.ar      1 RES1   0.0000
    15 C15    -13.2766 -53.1903 -23.2605   C.ar      1 RES1   0.0000
    16 N16    -14.4406 -54.0674 -23.4102   N.pl3     1 RES1   0.0000
    17 C17    -14.9321 -54.9561 -22.3410   C.ar      1 RES1   0.0000
    18 C18    -15.4147 -56.2070 -22.6903   C.ar      1 RES1   0.0000
    19 C19    -15.8817 -57.0819 -21.6996   C.ar      1 RES1   0.0000
    20 C20    -15.8629 -56.6943 -20.3638   C.ar      1 RES1   0.0000
    21 N21    -16.3663 -57.6340 -19.3310   N.pl3     1 RES1   0.0000
    22 C22    -15.7991 -57.7521 -17.9913   C.3       1 RES1   0.0000
    23 C23    -16.8929 -58.0309 -16.9899   C.3       1 RES1   0.0000
    24 N24    -17.6611 -59.2528 -17.3703   N.4       1 RES1   1.0000
    25 C25    -18.5814 -59.4631 -16.5057   C.3       1 RES1   0.0000
    26 C26    -18.1767 -59.1369 -18.7663   C.3       1 RES1   0.0000
    27 C27    -17.0533 -58.8543 -19.7322   C.3       1 RES1   0.0000
    28 C28    -15.3793 -55.4413 -20.0084   C.ar      1 RES1   0.0000
    29 C29    -14.9087 -54.5716 -21.0008   C.ar      1 RES1   0.0000
    30 N30    -12.9892 -52.4055 -24.2681   N.ar      1 RES1   0.0000
    31 C31    -11.9536 -51.5763 -24.2294   C.ar      1 RES1   0.0000
    32 C32    -11.1696 -51.5573 -23.0747   C.ar      1 RES1   0.0000
    33 Cl33    -9.7784 -50.4568 -22.9975   Cl        1 RES1   0.0000
    34 H1     -16.2593 -58.0653 -21.9758   H         1 RES1   0.0000
    35 H2     -19.2530 -58.6064 -16.4748   H         1 RES1   0.0000
    36 H3     -19.1425 -60.3545 -16.7823   H         1 RES1   0.0000
    37 H4     -18.1316 -59.6073 -15.5245   H         1 RES1   0.0000
    38 H5     -18.9002 -58.3243 -18.8130   H         1 RES1   0.0000
    39 H6     -18.6614 -60.0711 -19.0463   H         1 RES1   0.0000
    40 H7     -16.3504 -59.6860 -19.7255   H         1 RES1   0.0000
    41 H8     -17.4590 -58.7300 -20.7351   H         1 RES1   0.0000
    42 H9     -15.3661 -55.1365 -18.9630   H         1 RES1   0.0000
    43 H10    -14.9348 -54.0631 -24.2967   H         1 RES1   0.0000
    44 H11    -14.5231 -53.5914 -20.7245   H         1 RES1   0.0000
    45 H12    -11.7222 -50.9293 -25.0743   H         1 RES1   0.0000
    46 H13    -12.7398 -56.1091 -18.7781   H         1 RES1   0.0000
    47 H14    -12.4153 -54.5541 -20.6980   H         1 RES1   0.0000
    48 H15    -15.4312 -56.5109 -23.7359   H         1 RES1   0.0000
    49 H16    -10.1228 -48.4720 -16.8269   H         1 RES1   0.0000
    50 H17     -8.8371 -47.5843 -17.6763   H         1 RES1   0.0000
    51 H18    -10.2231 -48.2282 -18.5856   H         1 RES1   0.0000
    52 H19     -8.1185 -49.8987 -17.1391   H         1 RES1   0.0000
    53 H20     -8.2189 -49.6549 -18.8978   H         1 RES1   0.0000
    54 H21     -9.9583 -51.7157 -20.6919   H         1 RES1   0.0000
    55 H22    -15.2983 -56.8215 -17.7285   H         1 RES1   0.0000
    56 H23    -15.0790 -58.5689 -17.9754   H         1 RES1   0.0000
    57 H24    -17.5708 -57.1794 -16.9554   H         1 RES1   0.0000
    58 H25    -16.4477 -58.1806 -16.0074   H         1 RES1   0.0000
    59 H26    -17.0227 -60.0413 -17.3407   H         1 RES1   0.0000
    60 H27     -9.8116 -53.9346 -16.4672   H         1 RES1   0.0000
    61 H28    -11.4585 -55.8151 -16.6656   H         1 RES1   0.0000
@<TRIPOS>BOND
     1     1     2    1
     2     2     3    1
     3     3     4    2
     4     3     5    1
     5     5     6    1
     6     6     7   ar
     7     7     8   ar
     8     8     9   ar
     9     9    10   ar
    10    10    11   ar
    11    11    12    1
    12    12    13    1
    13    13    14   ar
    14    14    15   ar
    15    15    16    1
    16    16    17    1
    17    17    18   ar
    18    18    19   ar
    19    19    20   ar
    20    20    21    1
    21    21    22    1
    22    22    23    1
    23    23    24    1
    24    24    25    1
    25    24    26    1
    26    26    27    1
    27    20    28   ar
    28    28    29   ar
    29    15    30   ar
    30    30    31   ar
    31    31    32   ar
    32    32    33    1
    33    11     6   ar
    34    32    13   ar
    35    29    17   ar
    36    27    21    1
    37    19    34    1
    38    25    35    1
    39    25    36    1
    40    25    37    1
    41    26    38    1
    42    26    39    1
    43    27    40    1
    44    27    41    1
    45    28    42    1
    46    16    43    1
    47    29    44    1
    48    31    45    1
    49     9    46    1
    50    10    47    1
    51    18    48    1
    52     1    49    1
    53     1    50    1
    54     1    51    1
    55     2    52    1
    56     2    53    1
    57    12    54    1
    58    22    55    1
    59    22    56    1
    60    23    57    1
    61    23    58    1
    62    24    59    1
    63     7    60    1
    64     8    61    1
@<TRIPOS>SUBSTRUCTURE
     1 RES1        1 GROUP             0 ****  ****    0  
@<TRIPOS>CRYSIN
    1.0000    1.0000    1.0000   90.0000   90.0000   90.0000     1     1
@<TRIPOS>MOLECULE
ligand_6
    61    64     1     0     0
SMALL
USER_CHARGES
****
Generated from the CSD

@<TRIPOS>ATOM
     1 C1      -8.6912 -48.5681 -17.9982   C.3       1 RES1   0.0000
     2 C2      -8.1819 -49.9909 -18.2231   C.3       1 RES1   0.0000
     3 C3      -9.3827 -50.9396 -18.2036   C.2       1 RES1   0.0000
     4 O4     -10.4917 -50.5773 -17.9680   O.2       1 RES1   0.0000
     5 O5      -9.0826 -52.2949 -18.4850   O.3       1 RES1   0.0000
     6 C6     -10.1896 -53.2050 -18.4701   C.ar      1 RES1   0.0000
     7 C7     -10.8017 -53.5765 -19.6690   C.ar      1 RES1   0.0000
     8 C8     -11.8885 -54.4687 -19.6339   C.ar      1 RES1   0.0000
     9 C9     -12.3381 -54.9614 -18.3969   C.ar      1 RES1   0.0000
    10 C10    -11.7222 -54.5810 -17.1904   C.ar      1 RES1   0.0000
    11 C11    -10.6380 -53.6885 -17.2265   C.ar      1 RES1   0.0000
    12 N12     -9.9437 -53.2583 -15.9741   N.pl3     1 RES1   0.0000
    13 C13    -10.3420 -53.6964 -14.6311   C.ar      1 RES1   0.0000
    14 N14    -11.3823 -54.5222 -14.4712   N.ar      1 RES1   0.0000
    15 C15    -11.7441 -54.9213 -13.2611   C.ar      1 RES1   0.0000
    16 N16    -12.8851 -55.8210 -13.0730   N.pl3     1 RES1   0.0000
    17 C17    -13.3578 -56.2694 -11.7501   C.ar      1 RES1   0.0000
    18 C18    -13.7953 -57.5768 -11.6123   C.ar      1 RES1   0.0000
    19 C19    -14.2431 -58.0405 -10.3675   C.ar      1 RES1   0.0000
    20 C20    -14.2506 -57.1875  -9.2687   C.ar      1 RES1   0.0000
    21 N21    -14.7330 -57.6971  -7.9608   N.pl3     1 RES1   0.0000
    22 C22    -14.1759 -57.2934  -6.6736   C.3       1 RES1   0.0000
    23 C23    -15.2700 -57.2211  -5.6369   C.3       1 RES1   0.0000
    24 N24    -15.9934 -58.5229  -5.5379   N.4       1 RES1   1.0000
    25 C25    -16.9150 -58.4313  -4.6541   C.3       1 RES1   0.0000
    26 C26    -16.4983 -58.9476  -6.8768   C.3       1 RES1   0.0000
    27 C27    -15.3751 -59.0023  -7.8819   C.3       1 RES1   0.0000
    28 C28    -13.8122 -55.8759  -9.4017   C.ar      1 RES1   0.0000
    29 C29    -13.3605 -55.4174 -10.6461   C.ar      1 RES1   0.0000
    30 N30    -11.1030 -54.5402 -12.1853   N.ar      1 RES1   0.0000
    31 C31    -10.0578 -53.7249 -12.2517   C.ar      1 RES1   0.0000
    32 C32     -9.6504 -53.2798 -13.5103   C.ar      1 RES1   0.0000
    33 Cl33    -8.2546 -52.1884 -13.6265   Cl        1 RES1   0.0000
    34 H1     -13.0101 -54.3917 -10.7517   H         1 RES1   0.0000
    35 H2      -9.5331 -53.4122 -11.3501   H         1 RES1   0.0000
    36 H3     -17.6149 -57.6472  -4.9394   H         1 RES1   0.0000
    37 H4     -17.4435 -59.3806  -4.5810   H         1 RES1   0.0000
    38 H5     -16.4706 -58.1881  -3.6901   H         1 RES1   0.0000
    39 H6     -17.2478 -58.2350  -7.2179   H         1 RES1   0.0000
    40 H7     -16.9489 -59.9353  -6.7913   H         1 RES1   0.0000
    41 H8     -14.6451 -59.7482  -7.5709   H         1 RES1   0.0000
    42 H9     -15.7744 -59.2705  -8.8589   H         1 RES1   0.0000
    43 H10    -13.8196 -55.2071  -8.5423   H         1 RES1   0.0000
    44 H11     -9.1525 -52.6279 -16.0573   H         1 RES1   0.0000
    45 H12    -13.7090 -56.3147  -6.7738   H         1 RES1   0.0000
    46 H13    -13.4293 -58.0214  -6.3596   H         1 RES1   0.0000
    47 H14    -15.9761 -56.4407  -5.9169   H         1 RES1   0.0000
    48 H15    -14.8301 -56.9827  -4.6697   H         1 RES1   0.0000
    49 H16    -15.3296 -59.2225  -5.2214   H         1 RES1   0.0000
    50 H17    -13.3762 -56.1532 -13.8968   H         1 RES1   0.0000
    51 H18    -13.7913 -58.2450 -12.4722   H         1 RES1   0.0000
    52 H19    -12.3774 -54.7751 -20.5575   H         1 RES1   0.0000
    53 H20    -13.1801 -55.6515 -18.3717   H         1 RES1   0.0000
    54 H21    -12.0816 -54.9736 -16.2403   H         1 RES1   0.0000
    55 H22    -10.4426 -53.1809 -20.6179   H         1 RES1   0.0000
    56 H23     -9.1964 -48.5114 -17.0352   H         1 RES1   0.0000
    57 H24     -7.8507 -47.8758 -18.0085   H         1 RES1   0.0000
    58 H25     -9.3895 -48.3030 -18.7906   H         1 RES1   0.0000
    59 H26     -7.4853 -50.2622 -17.4312   H         1 RES1   0.0000
    60 H27     -7.6785 -50.0538 -19.1867   H         1 RES1   0.0000
    61 H28    -14.5852 -59.0688 -10.2606   H         1 RES1   0.0000
@<TRIPOS>BOND
     1     1     2    1
     2     2     3    1
     3     3     4    2
     4     3     5    1
     5     5     6    1
     6     6     7   ar
     7     7     8   ar
     8     8     9   ar
     9     9    10   ar
    10    10    11   ar
    11    11    12    1
    12    12    13    1
    13    13    14   ar
    14    14    15   ar
    15    15    16    1
    16    16    17    1
    17    17    18   ar
    18    18    19   ar
    19    19    20   ar
    20    20    21    1
    21    21    22    1
    22    22    23    1
    23    23    24    1
    24    24    25    1
    25    24    26    1
    26    26    27    1
    27    20    28   ar
    28    28    29   ar
    29    15    30   ar
    30    30    31   ar
    31    31    32   ar
    32    32    33    1
    33    11     6   ar
    34    32    13   ar
    35    29    17   ar
    36    27    21    1
    37    29    34    1
    38    31    35    1
    39    25    36    1
    40    25    37    1
    41    25    38    1
    42    26    39    1
    43    26    40    1
    44    27    41    1
    45    27    42    1
    46    28    43    1
    47    12    44    1
    48    22    45    1
    49    22    46    1
    50    23    47    1
    51    23    48    1
    52    24    49    1
    53    16    50    1
    54    18    51    1
    55     8    52    1
    56     9    53    1
    57    10    54    1
    58     7    55    1
    59     1    56    1
    60     1    57    1
    61     1    58    1
    62     2    59    1
    63     2    60    1
    64    19    61    1
@<TRIPOS>SUBSTRUCTURE
     1 RES1        1 GROUP             0 ****  ****    0  
@<TRIPOS>CRYSIN
    1.0000    1.0000    1.0000   90.0000   90.0000   90.0000     1     1
@<TRIPOS>MOLECULE
ligand_7
    61    64     1     0     0
SMALL
USER_CHARGES
****
Generated from the CSD

@<TRIPOS>ATOM
     1 C1      -8.5663 -48.6140 -18.0263   C.3       1 RES1   0.0000
     2 C2      -8.0939 -50.0501 -18.2477   C.3       1 RES1   0.0000
     3 C3      -9.3180 -50.9683 -18.2190   C.2       1 RES1   0.0000
     4 O4     -10.4165 -50.5773 -17.9799   O.2       1 RES1   0.0000
     5 O5      -9.0533 -52.3317 -18.4963   O.3       1 RES1   0.0000
     6 C6     -10.1827 -53.2137 -18.4727   C.ar      1 RES1   0.0000
     7 C7     -10.4281 -54.0007 -17.3456   C.ar      1 RES1   0.0000
     8 C8     -11.5399 -54.8621 -17.3421   C.ar      1 RES1   0.0000
     9 C9     -12.3745 -54.9173 -18.4715   C.ar      1 RES1   0.0000
    10 C10    -12.1214 -54.1267 -19.6075   C.ar      1 RES1   0.0000
    11 C11    -11.0096 -53.2680 -19.6106   C.ar      1 RES1   0.0000
    12 N12    -10.7002 -52.4015 -20.7891   N.pl3     1 RES1   0.0000
    13 C13    -11.4932 -52.3939 -22.0242   C.ar      1 RES1   0.0000
    14 N14    -12.5573 -53.1952 -22.1482   N.ar      1 RES1   0.0000
    15 C15    -13.2766 -53.1903 -23.2605   C.ar      1 RES1   0.0000
    16 N16    -14.4406 -54.0674 -23.4102   N.pl3     1 RES1   0.0000
    17 C17    -15.2567 -54.1334 -24.6367   C.ar      1 RES1   0.0000
    18 C18    -16.6295 -54.2728 -24.5109   C.ar      1 RES1   0.0000
    19 C19    -17.4378 -54.3300 -25.6548   C.ar      1 RES1   0.0000
    20 C20    -16.8621 -54.2488 -26.9185   C.ar      1 RES1   0.0000
    21 N21    -17.7354 -54.3160 -28.1167   N.pl3     1 RES1   0.0000
    22 C22    -17.4912 -53.5676 -29.3458   C.3       1 RES1   0.0000
    23 C23    -17.9010 -54.3909 -30.5422   C.3       1 RES1   0.0000
    24 N24    -19.3283 -54.8132 -30.4312   N.4       1 RES1   1.0000
    25 C25    -19.6467 -55.5101 -31.4567   C.3       1 RES1   0.0000
    26 C26    -19.5692 -55.5196 -29.1384   C.3       1 RES1   0.0000
    27 C27    -19.1423 -54.6646 -27.9715   C.3       1 RES1   0.0000
    28 C28    -15.4861 -54.1083 -27.0498   C.ar      1 RES1   0.0000
    29 C29    -14.6820 -54.0463 -25.9042   C.ar      1 RES1   0.0000
    30 N30    -12.9892 -52.4055 -24.2681   N.ar      1 RES1   0.0000
    31 C31    -11.9536 -51.5763 -24.2294   C.ar      1 RES1   0.0000
    32 C32    -11.1696 -51.5573 -23.0747   C.ar      1 RES1   0.0000
    33 Cl33    -9.7784 -50.4568 -22.9975   Cl        1 RES1   0.0000
    34 H1      -9.7677 -53.9482 -16.4813   H         1 RES1   0.0000
    35 H2     -11.7522 -55.4811 -16.4716   H         1 RES1   0.0000
    36 H3     -13.2344 -55.5855 -18.4673   H         1 RES1   0.0000
    37 H4     -13.6039 -53.9296 -26.0040   H         1 RES1   0.0000
    38 H5     -11.7222 -50.9293 -25.0743   H         1 RES1   0.0000
    39 H6     -14.6989 -54.6610 -22.6284   H         1 RES1   0.0000
    40 H7     -17.0811 -54.3380 -23.5221   H         1 RES1   0.0000
    41 H8      -7.4008 -50.3357 -17.4578   H         1 RES1   0.0000
    42 H9      -7.5966 -50.1295 -19.2133   H         1 RES1   0.0000
    43 H10    -16.4311 -53.3293 -29.4182   H         1 RES1   0.0000
    44 H11    -18.0701 -52.6454 -29.3274   H         1 RES1   0.0000
    45 H12    -17.2700 -55.2766 -30.5991   H         1 RES1   0.0000
    46 H13    -17.7739 -53.7960 -31.4454   H         1 RES1   0.0000
    47 H14    -19.9004 -53.9748 -30.4370   H         1 RES1   0.0000
    48 H15    -19.0097 -56.3918 -31.5084   H         1 RES1   0.0000
    49 H16    -20.6880 -55.8188 -31.3768   H         1 RES1   0.0000
    50 H17    -19.5133 -54.9126 -32.3573   H         1 RES1   0.0000
    51 H18    -18.9999 -56.4479 -29.1276   H         1 RES1   0.0000
    52 H19    -20.6309 -55.7438 -29.0468   H         1 RES1   0.0000
    53 H20    -19.7414 -53.7555 -27.9487   H         1 RES1   0.0000
    54 H21    -19.2859 -55.2173 -27.0443   H         1 RES1   0.0000
    55 H22    -15.0346 -54.0466 -28.0389   H         1 RES1   0.0000
    56 H23    -12.7793 -54.1798 -20.4737   H         1 RES1   0.0000
    57 H24     -9.8968 -51.7839 -20.7318   H         1 RES1   0.0000
    58 H25     -9.0655 -48.5408 -17.0612   H         1 RES1   0.0000
    59 H26     -7.7087 -47.9431 -18.0432   H         1 RES1   0.0000
    60 H27     -9.2614 -48.3346 -18.8167   H         1 RES1   0.0000
    61 H28    -18.5167 -54.4380 -25.5541   H         1 RES1   0.0000
@<TRIPOS>BOND
     1     1     2    1
     2     2     3    1
     3     3     4    2
     4     3     5    1
     5     5     6    1
     6     6     7   ar
     7     7     8   ar
     8     8     9   ar
     9     9    10   ar
    10    10    11   ar
    11    11    12    1
    12    12    13    1
    13    13    14   ar
    14    14    15   ar
    15    15    16    1
    16    16    17    1
    17    17    18   ar
    18    18    19   ar
    19    19    20   ar
    20    20    21    1
    21    21    22    1
    22    22    23    1
    23    23    24    1
    24    24    25    1
    25    24    26    1
    26    26    27    1
    27    20    28   ar
    28    28    29   ar
    29    15    30   ar
    30    30    31   ar
    31    31    32   ar
    32    32    33    1
    33    11     6   ar
    34    32    13   ar
    35    29    17   ar
    36    27    21    1
    37     7    34    1
    38     8    35    1
    39     9    36    1
    40    29    37    1
    41    31    38    1
    42    16    39    1
    43    18    40    1
    44     2    41    1
    45     2    42    1
    46    22    43    1
    47    22    44    1
    48    23    45    1
    49    23    46    1
    50    24    47    1
    51    25    48    1
    52    25    49    1
    53    25    50    1
    54    26    51    1
    55    26    52    1
    56    27    53    1
    57    27    54    1
    58    28    55    1
    59    10    56    1
    60    12    57    1
    61     1    58    1
    62     1    59    1
    63     1    60    1
    64    19    61    1
@<TRIPOS>SUBSTRUCTURE
     1 RES1        1 GROUP             0 ****  ****    0  
@<TRIPOS>CRYSIN
    1.0000    1.0000    1.0000   90.0000   90.0000   90.0000     1     1
@<TRIPOS>MOLECULE
ligand_8
    61    64     1     0     0
SMALL
USER_CHARGES
****
Generated from the CSD

@<TRIPOS>ATOM
     1 C1      -8.5675 -48.6122 -18.0364   C.3       1 RES1   0.0000
     2 C2      -8.0930 -50.0523 -18.2243   C.3       1 RES1   0.0000
     3 C3      -9.3206 -50.9662 -18.2268   C.2       1 RES1   0.0000
     4 O4     -10.4253 -50.5689 -18.0304   O.2       1 RES1   0.0000
     5 O5      -9.0515 -52.3338 -18.4784   O.3       1 RES1   0.0000
     6 C6     -10.1823 -53.2141 -18.4686   C.ar      1 RES1   0.0000
     7 C7     -10.9574 -53.3389 -17.3137   C.ar      1 RES1   0.0000
     8 C8     -12.0617 -54.2099 -17.3223   C.ar      1 RES1   0.0000
     9 C9     -12.3577 -54.9385 -18.4871   C.ar      1 RES1   0.0000
    10 C10    -11.5716 -54.8141 -19.6474   C.ar      1 RES1   0.0000
    11 C11    -10.4678 -53.9453 -19.6370   C.ar      1 RES1   0.0000
    12 N12     -9.6047 -53.7710 -20.8454   N.pl3     1 RES1   0.0000
    13 C13     -9.8118 -54.4958 -22.1048   C.ar      1 RES1   0.0000
    14 N14    -10.8126 -55.3759 -22.2206   N.ar      1 RES1   0.0000
    15 C15    -11.0040 -56.0309 -23.3559   C.ar      1 RES1   0.0000
    16 N16    -12.0931 -57.0013 -23.4928   N.pl3     1 RES1   0.0000
    17 C17    -12.3926 -57.7160 -24.7475   C.ar      1 RES1   0.0000
    18 C18    -12.8616 -59.0176 -24.6714   C.ar      1 RES1   0.0000
    19 C19    -13.1653 -59.7247 -25.8431   C.ar      1 RES1   0.0000
    20 C20    -12.9942 -59.1208 -27.0845   C.ar      1 RES1   0.0000
    21 N21    -13.3172 -59.8887 -28.3129   N.pl3     1 RES1   0.0000
    22 C22    -13.1309 -61.3303 -28.4450   C.3       1 RES1   0.0000
    23 C23    -14.2335 -61.9184 -29.2909   C.3       1 RES1   0.0000
    24 N24    -14.2941 -61.2484 -30.6233   N.4       1 RES1   1.0000
    25 C25    -15.2377 -61.7655 -31.3169   C.3       1 RES1   0.0000
    26 C26    -14.4196 -59.7696 -30.4637   C.3       1 RES1   0.0000
    27 C27    -13.3023 -59.2248 -29.6095   C.3       1 RES1   0.0000
    28 C28    -12.5248 -57.8157 -27.1659   C.ar      1 RES1   0.0000
    29 C29    -12.2272 -57.1103 -25.9926   C.ar      1 RES1   0.0000
    30 N30    -10.2409 -55.8410 -24.4025   N.ar      1 RES1   0.0000
    31 C31     -9.2275 -54.9844 -24.3771   C.ar      1 RES1   0.0000
    32 C32     -8.9924 -54.2793 -23.1956   C.ar      1 RES1   0.0000
    33 Cl33    -7.6428 -53.1269 -23.1356   Cl        1 RES1   0.0000
    34 H1      -8.8323 -53.1147 -20.7918   H         1 RES1   0.0000
    35 H2      -9.0993 -48.5258 -17.0900   H         1 RES1   0.0000
    36 H3      -7.7074 -47.9443 -18.0317   H         1 RES1   0.0000
    37 H4      -9.2340 -48.3401 -18.8535   H         1 RES1   0.0000
    38 H5     -12.9944 -59.4919 -23.7001   H         1 RES1   0.0000
    39 H6     -13.5353 -60.7471 -25.7815   H         1 RES1   0.0000
    40 H7     -13.1509 -61.7884 -27.4573   H         1 RES1   0.0000
    41 H8     -12.1698 -61.5278 -28.9173   H         1 RES1   0.0000
    42 H9     -15.1858 -61.7839 -28.7800   H         1 RES1   0.0000
    43 H10    -14.0453 -62.9814 -29.4341   H         1 RES1   0.0000
    44 H11    -13.4194 -61.4347 -31.1033   H         1 RES1   0.0000
    45 H12    -16.1857 -61.6299 -30.7983   H         1 RES1   0.0000
    46 H13    -15.2829 -61.2774 -32.2893   H         1 RES1   0.0000
    47 H14    -15.0473 -62.8290 -31.4531   H         1 RES1   0.0000
    48 H15     -7.4284 -50.3306 -17.4077   H         1 RES1   0.0000
    49 H16     -7.5631 -50.1448 -19.1712   H         1 RES1   0.0000
    50 H17    -12.6721 -57.1917 -22.6812   H         1 RES1   0.0000
    51 H18    -15.3738 -59.5415 -29.9910   H         1 RES1   0.0000
    52 H19    -14.3795 -59.3001 -31.4455   H         1 RES1   0.0000
    53 H20    -12.3475 -59.4074 -30.1003   H         1 RES1   0.0000
    54 H21    -13.4401 -58.1535 -29.4708   H         1 RES1   0.0000
    55 H22    -12.3888 -57.3431 -28.1375   H         1 RES1   0.0000
    56 H23    -11.8159 -55.3843 -20.5425   H         1 RES1   0.0000
    57 H24    -11.8653 -56.0850 -26.0532   H         1 RES1   0.0000
    58 H25     -8.5975 -54.8359 -25.2529   H         1 RES1   0.0000
    59 H26    -10.7102 -52.7697 -16.4188   H         1 RES1   0.0000
    60 H27    -12.6821 -54.3188 -16.4340   H         1 RES1   0.0000
    61 H28    -13.2127 -55.6129 -18.4917   H         1 RES1   0.0000
@<TRIPOS>BOND
     1     1     2    1
     2     2     3    1
     3     3     4    2
     4     3     5    1
     5     5     6    1
     6     6     7   ar
     7     7     8   ar
     8     8     9   ar
     9     9    10   ar
    10    10    11   ar
    11    11    12    1
    12    12    13    1
    13    13    14   ar
    14    14    15   ar
    15    15    16    1
    16    16    17    1
    17    17    18   ar
    18    18    19   ar
    19    19    20   ar
    20    20    21    1
    21    21    22    1
    22    22    23    1
    23    23    24    1
    24    24    25    1
    25    24    26    1
    26    26    27    1
    27    20    28   ar
    28    28    29   ar
    29    15    30   ar
    30    30    31   ar
    31    31    32   ar
    32    32    33    1
    33    11     6   ar
    34    32    13   ar
    35    29    17   ar
    36    27    21    1
    37    12    34    1
    38     1    35    1
    39     1    36    1
    40     1    37    1
    41    18    38    1
    42    19    39    1
    43    22    40    1
    44    22    41    1
    45    23    42    1
    46    23    43    1
    47    24    44    1
    48    25    45    1
    49    25    46    1
    50    25    47    1
    51     2    48    1
    52     2    49    1
    53    16    50    1
    54    26    51    1
    55    26    52    1
    56    27    53    1
    57    27    54    1
    58    28    55    1
    59    10    56    1
    60    29    57    1
    61    31    58    1
    62     7    59    1
    63     8    60    1
    64     9    61    1
@<TRIPOS>SUBSTRUCTURE
     1 RES1        1 GROUP             0 ****  ****    0  
@<TRIPOS>CRYSIN
    1.0000    1.0000    1.0000   90.0000   90.0000   90.0000     1     1
@<TRIPOS>MOLECULE
ligand_9
    61    64     1     0     0
SMALL
USER_CHARGES
****
Generated from the CSD

@<TRIPOS>ATOM
     1 C1      -8.6735 -48.5863 -17.8944   C.3       1 RES1   0.0000
     2 C2      -8.1707 -50.0028 -18.1684   C.3       1 RES1   0.0000
     3 C3      -9.3712 -50.9517 -18.1443   C.2       1 RES1   0.0000
     4 O4     -10.4740 -50.5956 -17.8725   O.2       1 RES1   0.0000
     5 O5      -9.0789 -52.2992 -18.4679   O.3       1 RES1   0.0000
     6 C6     -10.1887 -53.2061 -18.4661   C.ar      1 RES1   0.0000
     7 C7     -11.2780 -52.9750 -19.3087   C.ar      1 RES1   0.0000
     8 C8     -12.3591 -53.8746 -19.2909   C.ar      1 RES1   0.0000
     9 C9     -12.3233 -54.9803 -18.4243   C.ar      1 RES1   0.0000
    10 C10    -11.2263 -55.2074 -17.5730   C.ar      1 RES1   0.0000
    11 C11    -10.1480 -54.3073 -17.5902   C.ar      1 RES1   0.0000
    12 N12     -8.9551 -54.5067 -16.7112   N.pl3     1 RES1   0.0000
    13 C13     -8.8233 -55.6141 -15.7570   C.ar      1 RES1   0.0000
    14 N14     -9.8038 -56.5153 -15.6289   N.ar      1 RES1   0.0000
    15 C15     -9.6882 -57.5172 -14.7702   C.ar      1 RES1   0.0000
    16 N16    -10.7576 -58.5069 -14.6171   N.pl3     1 RES1   0.0000
    17 C17    -10.6621 -59.6756 -13.7229   C.ar      1 RES1   0.0000
    18 C18    -11.8111 -60.1175 -13.0870   C.ar      1 RES1   0.0000
    19 C19    -11.7599 -61.2309 -12.2368   C.ar      1 RES1   0.0000
    20 C20    -10.5542 -61.8928 -12.0289   C.ar      1 RES1   0.0000
    21 N21    -10.5208 -63.0667 -11.1212   N.pl3     1 RES1   0.0000
    22 C22    -11.3600 -63.2032  -9.9349   C.3       1 RES1   0.0000
    23 C23    -11.7637 -64.6455  -9.7507   C.3       1 RES1   0.0000
    24 N24    -10.5615 -65.5271  -9.6769   N.4       1 RES1   1.0000
    25 C25    -10.9339 -66.7422  -9.5228   C.3       1 RES1   0.0000
    26 C26     -9.6857 -65.3237 -10.8685   C.3       1 RES1   0.0000
    27 C27     -9.3104 -63.8705 -11.0174   C.3       1 RES1   0.0000
    28 C28     -9.3995 -61.4540 -12.6647   C.ar      1 RES1   0.0000
    29 C29     -9.4555 -60.3440 -13.5177   C.ar      1 RES1   0.0000
    30 N30     -8.6213 -57.6740 -14.0280   N.ar      1 RES1   0.0000
    31 C31     -7.5996 -56.8293 -14.0928   C.ar      1 RES1   0.0000
    32 C32     -7.6880 -55.7582 -14.9834   C.ar      1 RES1   0.0000
    33 Cl33    -6.3345 -54.6137 -15.0895   Cl        1 RES1   0.0000
    34 H1      -8.4550 -61.9706 -12.5008   H         1 RES1   0.0000
    35 H2      -8.5533 -60.0018 -14.0225   H         1 RES1   0.0000
    36 H3     -11.6092 -58.3815 -15.1549   H         1 RES1   0.0000
    37 H4     -12.7552 -59.5992 -13.2479   H         1 RES1   0.0000
    38 H5      -8.1937 -53.8388 -16.7781   H         1 RES1   0.0000
    39 H6     -12.2530 -62.5911 -10.0526   H         1 RES1   0.0000
    40 H7     -10.8042 -62.8698  -9.0598   H         1 RES1   0.0000
    41 H8     -12.3813 -64.9537 -10.5930   H         1 RES1   0.0000
    42 H9     -12.3341 -64.7416  -8.8280   H         1 RES1   0.0000
    43 H10    -10.0313 -65.2592  -8.8539   H         1 RES1   0.0000
    44 H11    -12.6642 -61.5777 -11.7390   H         1 RES1   0.0000
    45 H12    -11.2903 -52.1102 -19.9705   H         1 RES1   0.0000
    46 H13    -13.2166 -53.7156 -19.9431   H         1 RES1   0.0000
    47 H14     -9.1551 -48.5545 -16.9182   H         1 RES1   0.0000
    48 H15     -7.8330 -47.8940 -17.9072   H         1 RES1   0.0000
    49 H16     -9.3907 -48.3008 -18.6625   H         1 RES1   0.0000
    50 H17     -7.4553 -50.2945 -17.4010   H         1 RES1   0.0000
    51 H18     -7.6909 -50.0407 -19.1452   H         1 RES1   0.0000
    52 H19    -13.1615 -55.6754 -18.4114   H         1 RES1   0.0000
    53 H20    -11.2134 -56.0704 -16.9089   H         1 RES1   0.0000
    54 H21    -11.5533 -67.0419 -10.3669   H         1 RES1   0.0000
    55 H22    -10.0575 -67.3864  -9.4688   H         1 RES1   0.0000
    56 H23    -11.5077 -66.8320  -8.6016   H         1 RES1   0.0000
    57 H24    -10.2176 -65.6481 -11.7617   H         1 RES1   0.0000
    58 H25     -8.7795 -65.9159 -10.7504   H         1 RES1   0.0000
    59 H26     -8.7365 -63.5525 -10.1483   H         1 RES1   0.0000
    60 H27     -8.7097 -63.7406 -11.9164   H         1 RES1   0.0000
    61 H28     -6.7177 -56.9679 -13.4691   H         1 RES1   0.0000
@<TRIPOS>BOND
     1     1     2    1
     2     2     3    1
     3     3     4    2
     4     3     5    1
     5     5     6    1
     6     6     7   ar
     7     7     8   ar
     8     8     9   ar
     9     9    10   ar
    10    10    11   ar
    11    11    12    1
    12    12    13    1
    13    13    14   ar
    14    14    15   ar
    15    15    16    1
    16    16    17    1
    17    17    18   ar
    18    18    19   ar
    19    19    20   ar
    20    20    21    1
    21    21    22    1
    22    22    23    1
    23    23    24    1
    24    24    25    1
    25    24    26    1
    26    26    27    1
    27    20    28   ar
    28    28    29   ar
    29    15    30   ar
    30    30    31   ar
    31    31    32   ar
    32    32    33    1
    33    11     6   ar
    34    32    13   ar
    35    29    17   ar
    36    27    21    1
    37    28    34    1
    38    29    35    1
    39    16    36    1
    40    18    37    1
    41    12    38    1
    42    22    39    1
    43    22    40    1
    44    23    41    1
    45    23    42    1
    46    24    43    1
    47    19    44    1
    48     7    45    1
    49     8    46    1
    50     1    47    1
    51     1    48    1
    52     1    49    1
    53     2    50    1
    54     2    51    1
    55     9    52    1
    56    10    53    1
    57    25    54    1
    58    25    55    1
    59    25    56    1
    60    26    57    1
    61    26    58    1
    62    27    59    1
    63    27    60    1
    64    31    61    1
@<TRIPOS>SUBSTRUCTURE
     1 RES1        1 GROUP             0 ****  ****    0  
@<TRIPOS>CRYSIN
    1.0000    1.0000    1.0000   90.0000   90.0000   90.0000     1     1
@<TRIPOS>MOLECULE
ligand_10
    61    64     1     0     0
SMALL
USER_CHARGES
****
Generated from the CSD

@<TRIPOS>ATOM
     1 C1      -9.6200 -48.3722 -17.8936   C.3       1 RES1   0.0000
     2 C2      -8.8524 -49.6673 -18.1539   C.3       1 RES1   0.0000
     3 C3      -9.8514 -50.8267 -18.1513   C.2       1 RES1   0.0000
     4 O4     -11.0070 -50.6865 -17.9025   O.2       1 RES1   0.0000
     5 O5      -9.3025 -52.0940 -18.4656   O.3       1 RES1   0.0000
     6 C6     -10.2169 -53.1975 -18.4671   C.ar      1 RES1   0.0000
     7 C7     -10.7580 -53.6518 -19.6716   C.ar      1 RES1   0.0000
     8 C8     -11.6557 -54.7343 -19.6527   C.ar      1 RES1   0.0000
     9 C9     -11.9930 -55.3305 -18.4256   C.ar      1 RES1   0.0000
    10 C10    -11.4499 -54.8670 -17.2132   C.ar      1 RES1   0.0000
    11 C11    -10.5548 -53.7846 -17.2331   C.ar      1 RES1   0.0000
    12 N12     -9.9437 -53.2583 -15.9741   N.pl3     1 RES1   0.0000
    13 C13    -10.3420 -53.6964 -14.6311   C.ar      1 RES1   0.0000
    14 N14    -11.3823 -54.5222 -14.4712   N.ar      1 RES1   0.0000
    15 C15    -11.7441 -54.9213 -13.2611   C.ar      1 RES1   0.0000
    16 N16    -12.8851 -55.8210 -13.0730   N.pl3     1 RES1   0.0000
    17 C17    -13.7494 -56.2799 -14.1762   C.ar      1 RES1   0.0000
    18 C18    -14.2950 -57.5515 -14.1039   C.ar      1 RES1   0.0000
    19 C19    -15.1286 -58.0179 -15.1299   C.ar      1 RES1   0.0000
    20 C20    -15.4076 -57.2048 -16.2237   C.ar      1 RES1   0.0000
    21 N21    -16.2888 -57.7197 -17.3014   N.pl3     1 RES1   0.0000
    22 C22    -17.2636 -58.7899 -17.1149   C.3       1 RES1   0.0000
    23 C23    -18.4898 -58.5237 -17.9532   C.3       1 RES1   0.0000
    24 N24    -18.1236 -58.3592 -19.3908   N.4       1 RES1   1.0000
    25 C25    -19.1810 -58.1332 -20.0760   C.3       1 RES1   0.0000
    26 C26    -17.0789 -57.3050 -19.5506   C.3       1 RES1   0.0000
    27 C27    -15.8752 -57.6074 -18.6936   C.3       1 RES1   0.0000
    28 C28    -14.8634 -55.9289 -16.3004   C.ar      1 RES1   0.0000
    29 C29    -14.0350 -55.4642 -15.2706   C.ar      1 RES1   0.0000
    30 N30    -11.1030 -54.5402 -12.1853   N.ar      1 RES1   0.0000
    31 C31    -10.0578 -53.7249 -12.2517   C.ar      1 RES1   0.0000
    32 C32     -9.6504 -53.2798 -13.5103   C.ar      1 RES1   0.0000
    33 Cl33    -8.2546 -52.1884 -13.6265   Cl        1 RES1   0.0000
    34 H1     -17.5484 -58.8392 -16.0650   H         1 RES1   0.0000
    35 H2     -16.8201 -59.7380 -17.4156   H         1 RES1   0.0000
    36 H3     -18.9721 -57.6130 -17.6012   H         1 RES1   0.0000
    37 H4     -19.1789 -59.3611 -17.8539   H         1 RES1   0.0000
    38 H5     -15.0798 -55.2927 -17.1573   H         1 RES1   0.0000
    39 H6     -13.6124 -54.4620 -15.3250   H         1 RES1   0.0000
    40 H7     -10.4886 -53.1745 -20.6126   H         1 RES1   0.0000
    41 H8     -13.0916 -56.1456 -12.1337   H         1 RES1   0.0000
    42 H9      -9.5331 -53.4122 -11.3501   H         1 RES1   0.0000
    43 H10    -12.0858 -55.1073 -20.5810   H         1 RES1   0.0000
    44 H11    -12.6888 -56.1682 -18.4128   H         1 RES1   0.0000
    45 H12    -11.7201 -55.3415 -16.2710   H         1 RES1   0.0000
    46 H13    -14.0759 -58.1894 -13.2489   H         1 RES1   0.0000
    47 H14    -15.5579 -59.0170 -15.0707   H         1 RES1   0.0000
    48 H15    -10.1184 -48.4336 -16.9273   H         1 RES1   0.0000
    49 H16     -8.9259 -47.5330 -17.8914   H         1 RES1   0.0000
    50 H17    -10.3628 -48.2269 -18.6766   H         1 RES1   0.0000
    51 H18     -8.1101 -49.8190 -17.3716   H         1 RES1   0.0000
    52 H19     -8.3546 -49.6123 -19.1209   H         1 RES1   0.0000
    53 H20     -9.2124 -52.5588 -16.0526   H         1 RES1   0.0000
    54 H21    -17.7287 -59.2373 -19.7119   H         1 RES1   0.0000
    55 H22    -19.6591 -57.2233 -19.7162   H         1 RES1   0.0000
    56 H23    -18.9149 -58.0130 -21.1251   H         1 RES1   0.0000
    57 H24    -19.8685 -58.9710 -19.9695   H         1 RES1   0.0000
    58 H25    -17.4947 -56.3429 -19.2549   H         1 RES1   0.0000
    59 H26    -16.7719 -57.2623 -20.5946   H         1 RES1   0.0000
    60 H27    -15.4260 -58.5456 -19.0160   H         1 RES1   0.0000
    61 H28    -15.1473 -56.8035 -18.7927   H         1 RES1   0.0000
@<TRIPOS>BOND
     1     1     2    1
     2     2     3    1
     3     3     4    2
     4     3     5    1
     5     5     6    1
     6     6     7   ar
     7     7     8   ar
     8     8     9   ar
     9     9    10   ar
    10    10    11   ar
    11    11    12    1
    12    12    13    1
    13    13    14   ar
    14    14    15   ar
    15    15    16    1
    16    16    17    1
    17    17    18   ar
    18    18    19   ar
    19    19    20   ar
    20    20    21    1
    21    21    22    1
    22    22    23    1
    23    23    24    1
    24    24    25    1
    25    24    26    1
    26    26    27    1
    27    20    28   ar
    28    28    29   ar
    29    15    30   ar
    30    30    31   ar
    31    31    32   ar
    32    32    33    1
    33    11     6   ar
    34    32    13   ar
    35    29    17   ar
    36    27    21    1
    37    22    34    1
    38    22    35    1
    39    23    36    1
    40    23    37    1
    41    28    38    1
    42    29    39    1
    43     7    40    1
    44    16    41    1
    45    31    42    1
    46     8    43    1
    47     9    44    1
    48    10    45    1
    49    18    46    1
    50    19    47    1
    51     1    48    1
    52     1    49    1
    53     1    50    1
    54     2    51    1
    55     2    52    1
    56    12    53    1
    57    24    54    1
    58    25    55    1
    59    25    56    1
    60    25    57    1
    61    26    58    1
    62    26    59    1
    63    27    60    1
    64    27    61    1
@<TRIPOS>SUBSTRUCTURE
     1 RES1        1 GROUP             0 ****  ****    0  
@<TRIPOS>CRYSIN
    1.0000    1.0000    1.0000   90.0000   90.0000   90.0000     1     1
@<TRIPOS>MOLECULE
ligand_11
    61    64     1     0     0
SMALL
USER_CHARGES
****
Generated from the CSD

@<TRIPOS>ATOM
     1 C1      -7.7520 -48.9950 -18.2920   C.3       1 RES1   0.0000
     2 C2      -7.5569 -50.4970 -18.4929   C.3       1 RES1   0.0000
     3 C3      -8.9195 -51.1807 -18.3583   C.2       1 RES1   0.0000
     4 O4      -9.9133 -50.5943 -18.0661   O.2       1 RES1   0.0000
     5 O5      -8.9191 -52.5754 -18.6047   O.3       1 RES1   0.0000
     6 C6     -10.1827 -53.2405 -18.4823   C.ar      1 RES1   0.0000
     7 C7     -10.4885 -53.9452 -17.3162   C.ar      1 RES1   0.0000
     8 C8     -11.7325 -54.5938 -17.2156   C.ar      1 RES1   0.0000
     9 C9     -12.6364 -54.5244 -18.2895   C.ar      1 RES1   0.0000
    10 C10    -12.3230 -53.8177 -19.4650   C.ar      1 RES1   0.0000
    11 C11    -11.0795 -53.1719 -19.5651   C.ar      1 RES1   0.0000
    12 N12    -10.7002 -52.4015 -20.7891   N.pl3     1 RES1   0.0000
    13 C13    -11.4932 -52.3939 -22.0242   C.ar      1 RES1   0.0000
    14 N14    -12.5573 -53.1952 -22.1482   N.ar      1 RES1   0.0000
    15 C15    -13.2766 -53.1903 -23.2605   C.ar      1 RES1   0.0000
    16 N16    -14.4406 -54.0674 -23.4102   N.pl3     1 RES1   0.0000
    17 C17    -14.8490 -55.0569 -22.3960   C.ar      1 RES1   0.0000
    18 C18    -16.1997 -55.3212 -22.2361   C.ar      1 RES1   0.0000
    19 C19    -16.6242 -56.2625 -21.2880   C.ar      1 RES1   0.0000
    20 C20    -15.6893 -56.9314 -20.5046   C.ar      1 RES1   0.0000
    21 N21    -16.1602 -57.9207 -19.5033   N.pl3     1 RES1   0.0000
    22 C22    -17.4460 -58.6072 -19.5787   C.3       1 RES1   0.0000
    23 C23    -17.3088 -60.0193 -19.0650   C.3       1 RES1   0.0000
    24 N24    -16.7630 -60.0273 -17.6757   N.4       1 RES1   1.0000
    25 C25    -16.6559 -61.2360 -17.2677   C.3       1 RES1   0.0000
    26 C26    -15.4813 -59.2651 -17.6094   C.3       1 RES1   0.0000
    27 C27    -15.6622 -57.8632 -18.1355   C.3       1 RES1   0.0000
    28 C28    -14.3339 -56.6703 -20.6616   C.ar      1 RES1   0.0000
    29 C29    -13.9130 -55.7327 -21.6138   C.ar      1 RES1   0.0000
    30 N30    -12.9892 -52.4055 -24.2681   N.ar      1 RES1   0.0000
    31 C31    -11.9536 -51.5763 -24.2294   C.ar      1 RES1   0.0000
    32 C32    -11.1696 -51.5573 -23.0747   C.ar      1 RES1   0.0000
    33 Cl33    -9.7784 -50.4568 -22.9975   Cl        1 RES1   0.0000
    34 H1     -17.4341 -59.5569 -17.0769   H         1 RES1   0.0000
    35 H2     -15.9826 -61.7830 -17.9260   H         1 RES1   0.0000
    36 H3     -16.2578 -61.2431 -16.2541   H         1 RES1   0.0000
    37 H4     -17.6362 -61.7101 -17.2759   H         1 RES1   0.0000
    38 H5     -14.7303 -59.7771 -18.2092   H         1 RES1   0.0000
    39 H6     -15.1479 -59.2172 -16.5738   H         1 RES1   0.0000
    40 H7     -16.9325 -54.7970 -22.8478   H         1 RES1   0.0000
    41 H8      -9.8465 -51.8530 -20.7645   H         1 RES1   0.0000
    42 H9     -14.9952 -53.9898 -24.2567   H         1 RES1   0.0000
    43 H10     -8.1654 -48.8120 -17.3013   H         1 RES1   0.0000
    44 H11     -6.7922 -48.4888 -18.3840   H         1 RES1   0.0000
    45 H12     -8.4374 -48.6137 -19.0475   H         1 RES1   0.0000
    46 H13     -6.8745 -50.8840 -17.7376   H         1 RES1   0.0000
    47 H14     -7.1465 -50.6857 -19.4838   H         1 RES1   0.0000
    48 H15     -9.7737 -53.9920 -16.4960   H         1 RES1   0.0000
    49 H16    -11.9930 -55.1450 -16.3133   H         1 RES1   0.0000
    50 H17    -13.5988 -55.0278 -18.2102   H         1 RES1   0.0000
    51 H18    -13.0356 -53.7719 -20.2872   H         1 RES1   0.0000
    52 H19    -11.7222 -50.9293 -25.0743   H         1 RES1   0.0000
    53 H20    -17.7816 -58.6314 -20.6144   H         1 RES1   0.0000
    54 H21    -18.1762 -58.0726 -18.9729   H         1 RES1   0.0000
    55 H22    -16.6341 -60.5724 -19.7168   H         1 RES1   0.0000
    56 H23    -18.2877 -60.4965 -19.0668   H         1 RES1   0.0000
    57 H24    -17.6861 -56.4702 -21.1647   H         1 RES1   0.0000
    58 H25    -16.3771 -57.3300 -17.5106   H         1 RES1   0.0000
    59 H26    -14.7059 -57.3424 -18.1185   H         1 RES1   0.0000
    60 H27    -13.6017 -57.1922 -20.0472   H         1 RES1   0.0000
    61 H28    -12.8508 -55.5309 -21.7436   H         1 RES1   0.0000
@<TRIPOS>BOND
     1     1     2    1
     2     2     3    1
     3     3     4    2
     4     3     5    1
     5     5     6    1
     6     6     7   ar
     7     7     8   ar
     8     8     9   ar
     9     9    10   ar
    10    10    11   ar
    11    11    12    1
    12    12    13    1
    13    13    14   ar
    14    14    15   ar
    15    15    16    1
    16    16    17    1
    17    17    18   ar
    18    18    19   ar
    19    19    20   ar
    20    20    21    1
    21    21    22    1
    22    22    23    1
    23    23    24    1
    24    24    25    1
    25    24    26    1
    26    26    27    1
    27    20    28   ar
    28    28    29   ar
    29    15    30   ar
    30    30    31   ar
    31    31    32   ar
    32    32    33    1
    33    11     6   ar
    34    32    13   ar
    35    29    17   ar
    36    27    21    1
    37    24    34    1
    38    25    35    1
    39    25    36    1
    40    25    37    1
    41    26    38    1
    42    26    39    1
    43    18    40    1
    44    12    41    1
    45    16    42    1
    46     1    43    1
    47     1    44    1
    48     1    45    1
    49     2    46    1
    50     2    47    1
    51     7    48    1
    52     8    49    1
    53     9    50    1
    54    10    51    1
    55    31    52    1
    56    22    53    1
    57    22    54    1
    58    23    55    1
    59    23    56    1
    60    19    57    1
    61    27    58    1
    62    27    59    1
    63    28    60    1
    64    29    61    1
@<TRIPOS>SUBSTRUCTURE
     1 RES1        1 GROUP             0 ****  ****    0  
@<TRIPOS>CRYSIN
    1.0000    1.0000    1.0000   90.0000   90.0000   90.0000     1     1
@<TRIPOS>MOLECULE
ligand_12
    61    64     1     0     0
SMALL
USER_CHARGES
****
Generated from the CSD

@<TRIPOS>ATOM
     1 C1      -8.7443 -48.5503 -17.9890   C.3       1 RES1   0.0000
     2 C2      -8.2196 -49.9669 -18.2174   C.3       1 RES1   0.0000
     3 C3      -9.4098 -50.9289 -18.1990   C.2       1 RES1   0.0000
     4 O4     -10.5226 -50.5793 -17.9619   O.2       1 RES1   0.0000
     5 O5      -9.0950 -52.2802 -18.4836   O.3       1 RES1   0.0000
     6 C6     -10.1918 -53.2025 -18.4698   C.ar      1 RES1   0.0000
     7 C7     -10.8006 -53.5782 -19.6691   C.ar      1 RES1   0.0000
     8 C8     -11.8775 -54.4823 -19.6352   C.ar      1 RES1   0.0000
     9 C9     -12.3208 -54.9826 -18.3990   C.ar      1 RES1   0.0000
    10 C10    -11.7083 -54.5980 -17.1921   C.ar      1 RES1   0.0000
    11 C11    -10.6341 -53.6935 -17.2269   C.ar      1 RES1   0.0000
    12 N12     -9.9437 -53.2583 -15.9741   N.pl3     1 RES1   0.0000
    13 C13    -10.3420 -53.6964 -14.6311   C.ar      1 RES1   0.0000
    14 N14    -11.3823 -54.5222 -14.4712   N.ar      1 RES1   0.0000
    15 C15    -11.7441 -54.9213 -13.2611   C.ar      1 RES1   0.0000
    16 N16    -12.8851 -55.8210 -13.0730   N.pl3     1 RES1   0.0000
    17 C17    -13.2985 -56.3463 -11.7586   C.ar      1 RES1   0.0000
    18 C18    -14.6491 -56.5437 -11.5202   C.ar      1 RES1   0.0000
    19 C19    -15.0781 -57.0502 -10.2855   C.ar      1 RES1   0.0000
    20 C20    -14.1479 -57.3536  -9.2967   C.ar      1 RES1   0.0000
    21 N21    -14.6236 -57.8844  -7.9948   N.pl3     1 RES1   0.0000
    22 C22    -15.9034 -58.5614  -7.8097   C.3       1 RES1   0.0000
    23 C23    -15.7619 -59.6636  -6.7888   C.3       1 RES1   0.0000
    24 N24    -15.2330 -59.1278  -5.5000   N.4       1 RES1   1.0000
    25 C25    -15.1220 -60.0836  -4.6556   C.3       1 RES1   0.0000
    26 C26    -13.9579 -58.3845  -5.7228   C.3       1 RES1   0.0000
    27 C27    -14.1427 -57.2971  -6.7514   C.3       1 RES1   0.0000
    28 C28    -12.7926 -57.1580  -9.5311   C.ar      1 RES1   0.0000
    29 C29    -12.3672 -56.6565 -10.7682   C.ar      1 RES1   0.0000
    30 N30    -11.1030 -54.5402 -12.1853   N.ar      1 RES1   0.0000
    31 C31    -10.0578 -53.7249 -12.2517   C.ar      1 RES1   0.0000
    32 C32     -9.6504 -53.2798 -13.5103   C.ar      1 RES1   0.0000
    33 Cl33    -8.2546 -52.1884 -13.6265   Cl        1 RES1   0.0000
    34 H1     -12.0627 -54.9966 -16.2427   H         1 RES1   0.0000
    35 H2      -9.1554 -52.6244 -16.0570   H         1 RES1   0.0000
    36 H3     -11.3050 -56.5084 -10.9571   H         1 RES1   0.0000
    37 H4      -9.5331 -53.4122 -11.3501   H         1 RES1   0.0000
    38 H5     -16.1398 -57.2062 -10.1004   H         1 RES1   0.0000
    39 H6     -10.4465 -53.1767 -20.6174   H         1 RES1   0.0000
    40 H7     -12.3637 -54.7920 -20.5591   H         1 RES1   0.0000
    41 H8     -13.1552 -55.6820 -18.3747   H         1 RES1   0.0000
    42 H9     -16.2262 -58.9879  -8.7583   H         1 RES1   0.0000
    43 H10    -16.6448 -57.8426  -7.4638   H         1 RES1   0.0000
    44 H11    -15.0753 -60.4178  -7.1705   H         1 RES1   0.0000
    45 H12    -16.7371 -60.1157  -6.6141   H         1 RES1   0.0000
    46 H13    -15.9148 -58.4703  -5.1352   H         1 RES1   0.0000
    47 H14     -7.5194 -50.2322 -17.4267   H         1 RES1   0.0000
    48 H15     -7.7163 -50.0222 -19.1815   H         1 RES1   0.0000
    49 H16    -13.4192 -56.0973 -13.8907   H         1 RES1   0.0000
    50 H17    -15.3783 -56.3051 -12.2930   H         1 RES1   0.0000
    51 H18    -14.4368 -60.8348  -5.0456   H         1 RES1   0.0000
    52 H19    -14.7362 -59.6938  -3.7148   H         1 RES1   0.0000
    53 H20    -16.0987 -60.5353  -4.4881   H         1 RES1   0.0000
    54 H21    -13.1959 -59.0799  -6.0718   H         1 RES1   0.0000
    55 H22    -13.6375 -57.9363  -4.7835   H         1 RES1   0.0000
    56 H23    -14.8690 -56.5720  -6.3872   H         1 RES1   0.0000
    57 H24    -13.1906 -56.7993  -6.9290   H         1 RES1   0.0000
    58 H25    -12.0641 -57.3934  -8.7567   H         1 RES1   0.0000
    59 H26     -9.2493 -48.5012 -17.0254   H         1 RES1   0.0000
    60 H27     -7.9114 -47.8488 -17.9985   H         1 RES1   0.0000
    61 H28     -9.4462 -48.2912 -18.7803   H         1 RES1   0.0000
@<TRIPOS>BOND
     1     1     2    1
     2     2     3    1
     3     3     4    2
     4     3     5    1
     5     5     6    1
     6     6     7   ar
     7     7     8   ar
     8     8     9   ar
     9     9    10   ar
    10    10    11   ar
    11    11    12    1
    12    12    13    1
    13    13    14   ar
    14    14    15   ar
    15    15    16    1
    16    16    17    1
    17    17    18   ar
    18    18    19   ar
    19    19    20   ar
    20    20    21    1
    21    21    22    1
    22    22    23    1
    23    23    24    1
    24    24    25    1
    25    24    26    1
    26    26    27    1
    27    20    28   ar
    28    28    29   ar
    29    15    30   ar
    30    30    31   ar
    31    31    32   ar
    32    32    33    1
    33    11     6   ar
    34    32    13   ar
    35    29    17   ar
    36    27    21    1
    37    10    34    1
    38    12    35    1
    39    29    36    1
    40    31    37    1
    41    19    38    1
    42     7    39    1
    43     8    40    1
    44     9    41    1
    45    22    42    1
    46    22    43    1
    47    23    44    1
    48    23    45    1
    49    24    46    1
    50     2    47    1
    51     2    48    1
    52    16    49    1
    53    18    50    1
    54    25    51    1
    55    25    52    1
    56    25    53    1
    57    26    54    1
    58    26    55    1
    59    27    56    1
    60    27    57    1
    61    28    58    1
    62     1    59    1
    63     1    60    1
    64     1    61    1
@<TRIPOS>SUBSTRUCTURE
     1 RES1        1 GROUP             0 ****  ****    0  
@<TRIPOS>CRYSIN
    1.0000    1.0000    1.0000   90.0000   90.0000   90.0000     1     1
@<TRIPOS>MOLECULE
ligand_13
    61    64     1     0     0
SMALL
USER_CHARGES
****
Generated from the CSD

@<TRIPOS>ATOM
     1 C1      -7.9983 -48.8558 -18.6303   C.3       1 RES1   0.0000
     2 C2      -7.7290 -50.3527 -18.7764   C.3       1 RES1   0.0000
     3 C3      -9.0380 -51.1034 -18.5210   C.2       1 RES1   0.0000
     4 O4     -10.0437 -50.5594 -18.1899   O.2       1 RES1   0.0000
     5 O5      -8.9720 -52.5063 -18.7042   O.3       1 RES1   0.0000
     6 C6     -10.1885 -53.2316 -18.4849   C.ar      1 RES1   0.0000
     7 C7     -11.3238 -52.9317 -19.2406   C.ar      1 RES1   0.0000
     8 C8     -12.5092 -53.6525 -19.0091   C.ar      1 RES1   0.0000
     9 C9     -12.5280 -54.6521 -18.0214   C.ar      1 RES1   0.0000
    10 C10    -11.3836 -54.9482 -17.2583   C.ar      1 RES1   0.0000
    11 C11    -10.2008 -54.2264 -17.4891   C.ar      1 RES1   0.0000
    12 N12     -8.9551 -54.5067 -16.7112   N.pl3     1 RES1   0.0000
    13 C13     -8.8233 -55.6141 -15.7570   C.ar      1 RES1   0.0000
    14 N14     -9.8038 -56.5153 -15.6289   N.ar      1 RES1   0.0000
    15 C15     -9.6882 -57.5172 -14.7702   C.ar      1 RES1   0.0000
    16 N16    -10.7576 -58.5069 -14.6171   N.pl3     1 RES1   0.0000
    17 C17    -11.9885 -58.5064 -15.4291   C.ar      1 RES1   0.0000
    18 C18    -13.1840 -58.8491 -14.8182   C.ar      1 RES1   0.0000
    19 C19    -14.3754 -58.8507 -15.5568   C.ar      1 RES1   0.0000
    20 C20    -14.3587 -58.5099 -16.9054   C.ar      1 RES1   0.0000
    21 N21    -15.6306 -58.5224 -17.6703   N.pl3     1 RES1   0.0000
    22 C22    -16.7227 -59.4578 -17.4198   C.3       1 RES1   0.0000
    23 C23    -18.0496 -58.7736 -17.6390   C.3       1 RES1   0.0000
    24 N24    -18.1271 -58.1947 -19.0126   N.4       1 RES1   1.0000
    25 C25    -19.2604 -57.6204 -19.1688   C.3       1 RES1   0.0000
    26 C26    -16.9663 -57.2921 -19.2696   C.3       1 RES1   0.0000
    27 C27    -15.6627 -58.0134 -19.0349   C.3       1 RES1   0.0000
    28 C28    -13.1627 -58.1648 -17.5223   C.ar      1 RES1   0.0000
    29 C29    -11.9747 -58.1593 -16.7797   C.ar      1 RES1   0.0000
    30 N30     -8.6213 -57.6740 -14.0280   N.ar      1 RES1   0.0000
    31 C31     -7.5996 -56.8293 -14.0928   C.ar      1 RES1   0.0000
    32 C32     -7.6880 -55.7582 -14.9834   C.ar      1 RES1   0.0000
    33 Cl33    -6.3345 -54.6137 -15.0895   Cl        1 RES1   0.0000
    34 H1     -15.5756 -58.8434 -19.7345   H         1 RES1   0.0000
    35 H2     -14.8335 -57.3236 -19.1850   H         1 RES1   0.0000
    36 H3     -13.1487 -57.8997 -18.5785   H         1 RES1   0.0000
    37 H4     -11.0368 -57.8829 -17.2591   H         1 RES1   0.0000
    38 H5     -11.4144 -55.7274 -16.4981   H         1 RES1   0.0000
    39 H6      -8.1558 -53.8970 -16.8508   H         1 RES1   0.0000
    40 H7     -10.6453 -59.2312 -13.9150   H         1 RES1   0.0000
    41 H8      -6.7177 -56.9679 -13.4691   H         1 RES1   0.0000
    42 H9      -8.3576 -48.6482 -17.6235   H         1 RES1   0.0000
    43 H10     -7.0776 -48.3022 -18.8085   H         1 RES1   0.0000
    44 H11     -8.7517 -48.5501 -19.3548   H         1 RES1   0.0000
    45 H12     -6.9783 -50.6643 -18.0516   H         1 RES1   0.0000
    46 H13     -7.3724 -50.5662 -19.7830   H         1 RES1   0.0000
    47 H14    -13.1980 -59.1175 -13.7629   H         1 RES1   0.0000
    48 H15    -15.3143 -59.1188 -15.0747   H         1 RES1   0.0000
    49 H16    -16.6653 -59.8121 -16.3916   H         1 RES1   0.0000
    50 H17    -16.6363 -60.3035 -18.1005   H         1 RES1   0.0000
    51 H18    -18.1644 -57.9747 -16.9079   H         1 RES1   0.0000
    52 H19    -18.8510 -59.4999 -17.5119   H         1 RES1   0.0000
    53 H20    -18.0751 -58.9619 -19.6751   H         1 RES1   0.0000
    54 H21    -19.3690 -56.8254 -18.4325   H         1 RES1   0.0000
    55 H22    -19.3181 -57.1976 -20.1707   H         1 RES1   0.0000
    56 H23    -20.0582 -58.3496 -19.0360   H         1 RES1   0.0000
    57 H24    -17.0255 -56.4353 -18.6000   H         1 RES1   0.0000
    58 H25    -17.0031 -56.9488 -20.3024   H         1 RES1   0.0000
    59 H26    -11.2918 -52.1505 -19.9987   H         1 RES1   0.0000
    60 H27    -13.4048 -53.4378 -19.5903   H         1 RES1   0.0000
    61 H28    -13.4469 -55.2087 -17.8431   H         1 RES1   0.0000
@<TRIPOS>BOND
     1     1     2    1
     2     2     3    1
     3     3     4    2
     4     3     5    1
     5     5     6    1
     6     6     7   ar
     7     7     8   ar
     8     8     9   ar
     9     9    10   ar
    10    10    11   ar
    11    11    12    1
    12    12    13    1
    13    13    14   ar
    14    14    15   ar
    15    15    16    1
    16    16    17    1
    17    17    18   ar
    18    18    19   ar
    19    19    20   ar
    20    20    21    1
    21    21    22    1
    22    22    23    1
    23    23    24    1
    24    24    25    1
    25    24    26    1
    26    26    27    1
    27    20    28   ar
    28    28    29   ar
    29    15    30   ar
    30    30    31   ar
    31    31    32   ar
    32    32    33    1
    33    11     6   ar
    34    32    13   ar
    35    29    17   ar
    36    27    21    1
    37    27    34    1
    38    27    35    1
    39    28    36    1
    40    29    37    1
    41    10    38    1
    42    12    39    1
    43    16    40    1
    44    31    41    1
    45     1    42    1
    46     1    43    1
    47     1    44    1
    48     2    45    1
    49     2    46    1
    50    18    47    1
    51    19    48    1
    52    22    49    1
    53    22    50    1
    54    23    51    1
    55    23    52    1
    56    24    53    1
    57    25    54    1
    58    25    55    1
    59    25    56    1
    60    26    57    1
    61    26    58    1
    62     7    59    1
    63     8    60    1
    64     9    61    1
@<TRIPOS>SUBSTRUCTURE
     1 RES1        1 GROUP             0 ****  ****    0  
@<TRIPOS>CRYSIN
    1.0000    1.0000    1.0000   90.0000   90.0000   90.0000     1     1
@<TRIPOS>MOLECULE
ligand_14
    61    64     1     0     0
SMALL
USER_CHARGES
****
Generated from the CSD

@<TRIPOS>ATOM
     1 C1      -8.6637 -48.5886 -17.9050   C.3       1 RES1   0.0000
     2 C2      -8.1639 -50.0066 -18.1768   C.3       1 RES1   0.0000
     3 C3      -9.3662 -50.9532 -18.1500   C.2       1 RES1   0.0000
     4 O4     -10.4681 -50.5944 -17.8780   O.2       1 RES1   0.0000
     5 O5      -9.0768 -52.3019 -18.4713   O.3       1 RES1   0.0000
     6 C6     -10.1883 -53.2066 -18.4668   C.ar      1 RES1   0.0000
     7 C7     -11.2782 -52.9748 -19.3085   C.ar      1 RES1   0.0000
     8 C8     -12.3609 -53.8723 -19.2880   C.ar      1 RES1   0.0000
     9 C9     -12.3262 -54.9767 -18.4196   C.ar      1 RES1   0.0000
    10 C10    -11.2286 -55.2045 -17.5692   C.ar      1 RES1   0.0000
    11 C11    -10.1487 -54.3065 -17.5892   C.ar      1 RES1   0.0000
    12 N12     -8.9551 -54.5067 -16.7112   N.pl3     1 RES1   0.0000
    13 C13     -8.8233 -55.6141 -15.7570   C.ar      1 RES1   0.0000
    14 N14     -9.8038 -56.5153 -15.6289   N.ar      1 RES1   0.0000
    15 C15     -9.6882 -57.5172 -14.7702   C.ar      1 RES1   0.0000
    16 N16    -10.7576 -58.5069 -14.6171   N.pl3     1 RES1   0.0000
    17 C17    -10.7023 -59.6213 -13.6529   C.ar      1 RES1   0.0000
    18 C18    -11.2083 -60.8530 -14.0359   C.ar      1 RES1   0.0000
    19 C19    -11.1645 -61.9374 -13.1487   C.ar      1 RES1   0.0000
    20 C20    -10.6142 -61.7777 -11.8811   C.ar      1 RES1   0.0000
    21 N21    -10.5818 -62.9375 -10.9554   N.pl3     1 RES1   0.0000
    22 C22    -11.6086 -63.9739 -10.9118   C.3       1 RES1   0.0000
    23 C23    -10.9789 -65.3130 -10.6165   C.3       1 RES1   0.0000
    24 N24    -10.1961 -65.2622  -9.3467   N.4       1 RES1   1.0000
    25 C25     -9.6730 -66.4091  -9.1233   C.3       1 RES1   0.0000
    26 C26     -9.1964 -64.1544  -9.3885   C.3       1 RES1   0.0000
    27 C27     -9.8666 -62.8374  -9.6903   C.3       1 RES1   0.0000
    28 C28    -10.1050 -60.5449 -11.4927   C.ar      1 RES1   0.0000
    29 C29    -10.1459 -59.4646 -12.3839   C.ar      1 RES1   0.0000
    30 N30     -8.6213 -57.6740 -14.0280   N.ar      1 RES1   0.0000
    31 C31     -7.5996 -56.8293 -14.0928   C.ar      1 RES1   0.0000
    32 C32     -7.6880 -55.7582 -14.9834   C.ar      1 RES1   0.0000
    33 Cl33    -6.3345 -54.6137 -15.0895   Cl        1 RES1   0.0000
    34 H1     -13.2188 -53.7128 -19.9395   H         1 RES1   0.0000
    35 H2     -13.1657 -55.6702 -18.4046   H         1 RES1   0.0000
    36 H3     -11.2165 -56.0664 -16.9037   H         1 RES1   0.0000
    37 H4      -9.1445 -48.5541 -16.9285   H         1 RES1   0.0000
    38 H5      -7.8219 -47.8979 -17.9198   H         1 RES1   0.0000
    39 H6      -9.3810 -48.3031 -18.6730   H         1 RES1   0.0000
    40 H7      -7.4484 -50.2983 -17.4094   H         1 RES1   0.0000
    41 H8      -7.6849 -50.0473 -19.1540   H         1 RES1   0.0000
    42 H9     -12.1167 -64.0187 -11.8740   H         1 RES1   0.0000
    43 H10    -12.3295 -63.7346 -10.1315   H         1 RES1   0.0000
    44 H11    -11.6406 -60.9788 -15.0275   H         1 RES1   0.0000
    45 H12    -11.5614 -62.9051 -13.4519   H         1 RES1   0.0000
    46 H13     -8.1933 -53.8394 -16.7788   H         1 RES1   0.0000
    47 H14    -10.3138 -65.5831 -11.4354   H         1 RES1   0.0000
    48 H15    -11.7627 -66.0632 -10.5229   H         1 RES1   0.0000
    49 H16    -10.8446 -65.0654  -8.5911   H         1 RES1   0.0000
    50 H17     -9.0121 -66.6734  -9.9475   H         1 RES1   0.0000
    51 H18     -9.1016 -66.3732  -8.1970   H         1 RES1   0.0000
    52 H19    -10.4603 -67.1563  -9.0354   H         1 RES1   0.0000
    53 H20    -11.5800 -58.4210 -15.2058   H         1 RES1   0.0000
    54 H21    -11.2897 -52.1110 -19.9716   H         1 RES1   0.0000
    55 H22     -9.7416 -58.4988 -12.0844   H         1 RES1   0.0000
    56 H23     -6.7177 -56.9679 -13.4691   H         1 RES1   0.0000
    57 H24     -8.4612 -64.3664 -10.1634   H         1 RES1   0.0000
    58 H25     -8.6972 -64.0877  -8.4229   H         1 RES1   0.0000
    59 H26    -10.5690 -62.5962  -8.8939   H         1 RES1   0.0000
    60 H27     -9.1135 -62.0539  -9.7597   H         1 RES1   0.0000
    61 H28     -9.6759 -60.4187 -10.4998   H         1 RES1   0.0000
@<TRIPOS>BOND
     1     1     2    1
     2     2     3    1
     3     3     4    2
     4     3     5    1
     5     5     6    1
     6     6     7   ar
     7     7     8   ar
     8     8     9   ar
     9     9    10   ar
    10    10    11   ar
    11    11    12    1
    12    12    13    1
    13    13    14   ar
    14    14    15   ar
    15    15    16    1
    16    16    17    1
    17    17    18   ar
    18    18    19   ar
    19    19    20   ar
    20    20    21    1
    21    21    22    1
    22    22    23    1
    23    23    24    1
    24    24    25    1
    25    24    26    1
    26    26    27    1
    27    20    28   ar
    28    28    29   ar
    29    15    30   ar
    30    30    31   ar
    31    31    32   ar
    32    32    33    1
    33    11     6   ar
    34    32    13   ar
    35    29    17   ar
    36    27    21    1
    37     8    34    1
    38     9    35    1
    39    10    36    1
    40     1    37    1
    41     1    38    1
    42     1    39    1
    43     2    40    1
    44     2    41    1
    45    22    42    1
    46    22    43    1
    47    18    44    1
    48    19    45    1
    49    12    46    1
    50    23    47    1
    51    23    48    1
    52    24    49    1
    53    25    50    1
    54    25    51    1
    55    25    52    1
    56    16    53    1
    57     7    54    1
    58    29    55    1
    59    31    56    1
    60    26    57    1
    61    26    58    1
    62    27    59    1
    63    27    60    1
    64    28    61    1
@<TRIPOS>SUBSTRUCTURE
     1 RES1        1 GROUP             0 ****  ****    0  
@<TRIPOS>CRYSIN
    1.0000    1.0000    1.0000   90.0000   90.0000   90.0000     1     1
@<TRIPOS>MOLECULE
ligand_15
    61    64     1     0     0
SMALL
USER_CHARGES
****
Generated from the CSD

@<TRIPOS>ATOM
     1 C1      -9.5492 -48.4049 -17.7504   C.3       1 RES1   0.0000
     2 C2      -8.7937 -49.7139 -17.9744   C.3       1 RES1   0.0000
     3 C3      -9.8166 -50.8480 -18.0732   C.2       1 RES1   0.0000
     4 O4     -10.9847 -50.6836 -17.9138   O.2       1 RES1   0.0000
     5 O5      -9.2742 -52.1228 -18.3678   O.3       1 RES1   0.0000
     6 C6     -10.2110 -53.2031 -18.4629   C.ar      1 RES1   0.0000
     7 C7     -10.3840 -54.0718 -17.3833   C.ar      1 RES1   0.0000
     8 C8     -11.3061 -55.1278 -17.4964   C.ar      1 RES1   0.0000
     9 C9     -12.0273 -55.2899 -18.6917   C.ar      1 RES1   0.0000
    10 C10    -11.8469 -54.4158 -19.7793   C.ar      1 RES1   0.0000
    11 C11    -10.9243 -53.3626 -19.6659   C.ar      1 RES1   0.0000
    12 N12    -10.7002 -52.4015 -20.7891   N.pl3     1 RES1   0.0000
    13 C13    -11.4932 -52.3939 -22.0242   C.ar      1 RES1   0.0000
    14 N14    -12.5573 -53.1952 -22.1482   N.ar      1 RES1   0.0000
    15 C15    -13.2766 -53.1903 -23.2605   C.ar      1 RES1   0.0000
    16 N16    -14.4406 -54.0674 -23.4102   N.pl3     1 RES1   0.0000
    17 C17    -14.9318 -54.9565 -22.3411   C.ar      1 RES1   0.0000
    18 C18    -15.4142 -56.2074 -22.6908   C.ar      1 RES1   0.0000
    19 C19    -15.8808 -57.0827 -21.7003   C.ar      1 RES1   0.0000
    20 C20    -15.8620 -56.6954 -20.3643   C.ar      1 RES1   0.0000
    21 N21    -16.3650 -57.6355 -19.3317   N.pl3     1 RES1   0.0000
    22 C22    -16.4343 -59.0823 -19.5116   C.3       1 RES1   0.0000
    23 C23    -16.1281 -59.7802 -18.2093   C.3       1 RES1   0.0000
    24 N24    -17.0491 -59.3166 -17.1301   N.4       1 RES1   1.0000
    25 C25    -16.7651 -59.9230 -16.0390   C.3       1 RES1   0.0000
    26 C26    -17.0100 -57.8295 -17.0075   C.3       1 RES1   0.0000
    27 C27    -17.3168 -57.1732 -18.3304   C.3       1 RES1   0.0000
    28 C28    -15.3786 -55.4425 -20.0086   C.ar      1 RES1   0.0000
    29 C29    -14.9082 -54.5723 -21.0008   C.ar      1 RES1   0.0000
    30 N30    -12.9892 -52.4055 -24.2681   N.ar      1 RES1   0.0000
    31 C31    -11.9536 -51.5763 -24.2294   C.ar      1 RES1   0.0000
    32 C32    -11.1696 -51.5573 -23.0747   C.ar      1 RES1   0.0000
    33 Cl33    -9.7784 -50.4568 -22.9975   Cl        1 RES1   0.0000
    34 H1     -12.4155 -54.5540 -20.6977   H         1 RES1   0.0000
    35 H2     -10.1240 -48.4708 -16.8278   H         1 RES1   0.0000
    36 H3      -8.8381 -47.5833 -17.6771   H         1 RES1   0.0000
    37 H4     -10.2239 -48.2275 -18.5866   H         1 RES1   0.0000
    38 H5      -8.1196 -49.8977 -17.1391   H         1 RES1   0.0000
    39 H6      -8.2195 -49.6543 -18.8978   H         1 RES1   0.0000
    40 H7     -15.7362 -59.7027 -15.7584   H         1 RES1   0.0000
    41 H8     -17.4365 -59.5855 -15.2508   H         1 RES1   0.0000
    42 H9     -16.8810 -60.9966 -16.1796   H         1 RES1   0.0000
    43 H10    -16.0173 -57.5246 -16.6797   H         1 RES1   0.0000
    44 H11    -17.7483 -57.5126 -16.2723   H         1 RES1   0.0000
    45 H12    -14.9350 -54.0628 -24.2966   H         1 RES1   0.0000
    46 H13     -9.9581 -51.7159 -20.6921   H         1 RES1   0.0000
    47 H14    -15.4309 -56.5110 -23.7365   H         1 RES1   0.0000
    48 H15    -16.2581 -58.0661 -21.9767   H         1 RES1   0.0000
    49 H16    -18.3271 -57.4359 -18.6407   H         1 RES1   0.0000
    50 H17    -17.2385 -56.0920 -18.2265   H         1 RES1   0.0000
    51 H18    -15.3654 -55.1381 -18.9631   H         1 RES1   0.0000
    52 H19    -14.5227 -53.5921 -20.7242   H         1 RES1   0.0000
    53 H20    -11.7222 -50.9293 -25.0743   H         1 RES1   0.0000
    54 H21     -9.8128 -53.9335 -16.4665   H         1 RES1   0.0000
    55 H22    -11.4599 -55.8140 -16.6649   H         1 RES1   0.0000
    56 H23    -12.7402 -56.1086 -18.7778   H         1 RES1   0.0000
    57 H24    -15.7080 -59.3873 -20.2635   H         1 RES1   0.0000
    58 H25    -17.4352 -59.3571 -19.8412   H         1 RES1   0.0000
    59 H26    -15.1011 -59.5621 -17.9203   H         1 RES1   0.0000
    60 H27    -16.2472 -60.8543 -18.3433   H         1 RES1   0.0000
    61 H28    -17.9929 -59.5806 -17.3942   H         1 RES1   0.0000
@<TRIPOS>BOND
     1     1     2    1
     2     2     3    1
     3     3     4    2
     4     3     5    1
     5     5     6    1
     6     6     7   ar
     7     7     8   ar
     8     8     9   ar
     9     9    10   ar
    10    10    11   ar
    11    11    12    1
    12    12    13    1
    13    13    14   ar
    14    14    15   ar
    15    15    16    1
    16    16    17    1
    17    17    18   ar
    18    18    19   ar
    19    19    20   ar
    20    20    21    1
    21    21    22    1
    22    22    23    1
    23    23    24    1
    24    24    25    1
    25    24    26    1
    26    26    27    1
    27    20    28   ar
    28    28    29   ar
    29    15    30   ar
    30    30    31   ar
    31    31    32   ar
    32    32    33    1
    33    11     6   ar
    34    32    13   ar
    35    29    17   ar
    36    27    21    1
    37    10    34    1
    38     1    35    1
    39     1    36    1
    40     1    37    1
    41     2    38    1
    42     2    39    1
    43    25    40    1
    44    25    41    1
    45    25    42    1
    46    26    43    1
    47    26    44    1
    48    16    45    1
    49    12    46    1
    50    18    47    1
    51    19    48    1
    52    27    49    1
    53    27    50    1
    54    28    51    1
    55    29    52    1
    56    31    53    1
    57     7    54    1
    58     8    55    1
    59     9    56    1
    60    22    57    1
    61    22    58    1
    62    23    59    1
    63    23    60    1
    64    24    61    1
@<TRIPOS>SUBSTRUCTURE
     1 RES1        1 GROUP             0 ****  ****    0  
@<TRIPOS>CRYSIN
    1.0000    1.0000    1.0000   90.0000   90.0000   90.0000     1     1
@<TRIPOS>MOLECULE
ligand_16
    61    64     1     0     0
SMALL
USER_CHARGES
****
Generated from the CSD

@<TRIPOS>ATOM
     1 C1      -8.6769 -48.5731 -18.0008   C.3       1 RES1   0.0000
     2 C2      -8.1718 -49.9975 -18.2248   C.3       1 RES1   0.0000
     3 C3      -9.3754 -50.9427 -18.2049   C.2       1 RES1   0.0000
     4 O4     -10.4834 -50.5770 -17.9698   O.2       1 RES1   0.0000
     5 O5      -9.0792 -52.2990 -18.4855   O.3       1 RES1   0.0000
     6 C6     -10.1889 -53.2058 -18.4702   C.ar      1 RES1   0.0000
     7 C7     -10.8018 -53.5763 -19.6690   C.ar      1 RES1   0.0000
     8 C8     -11.8912 -54.4653 -19.6336   C.ar      1 RES1   0.0000
     9 C9     -12.3425 -54.9559 -18.3964   C.ar      1 RES1   0.0000
    10 C10    -11.7258 -54.5766 -17.1900   C.ar      1 RES1   0.0000
    11 C11    -10.6390 -53.6873 -17.2263   C.ar      1 RES1   0.0000
    12 N12     -9.9437 -53.2583 -15.9741   N.pl3     1 RES1   0.0000
    13 C13    -10.3420 -53.6964 -14.6311   C.ar      1 RES1   0.0000
    14 N14    -11.3823 -54.5222 -14.4712   N.ar      1 RES1   0.0000
    15 C15    -11.7441 -54.9213 -13.2611   C.ar      1 RES1   0.0000
    16 N16    -12.8851 -55.8210 -13.0730   N.pl3     1 RES1   0.0000
    17 C17    -13.3575 -56.2697 -11.7501   C.ar      1 RES1   0.0000
    18 C18    -13.7951 -57.5772 -11.6126   C.ar      1 RES1   0.0000
    19 C19    -14.2426 -58.0412 -10.3679   C.ar      1 RES1   0.0000
    20 C20    -14.2497 -57.1885  -9.2688   C.ar      1 RES1   0.0000
    21 N21    -14.7319 -57.6985  -7.9610   N.pl3     1 RES1   0.0000
    22 C22    -14.7520 -59.1112  -7.5947   C.3       1 RES1   0.0000
    23 C23    -14.4360 -59.2692  -6.1277   C.3       1 RES1   0.0000
    24 N24    -15.3824 -58.4723  -5.2927   N.4       1 RES1   1.0000
    25 C25    -15.0896 -58.6238  -4.0558   C.3       1 RES1   0.0000
    26 C26    -15.3932 -57.0442  -5.7271   C.3       1 RES1   0.0000
    27 C27    -15.7083 -56.9326  -7.1979   C.3       1 RES1   0.0000
    28 C28    -13.8113 -55.8769  -9.4015   C.ar      1 RES1   0.0000
    29 C29    -13.3599 -55.4181 -10.6459   C.ar      1 RES1   0.0000
    30 N30    -11.1030 -54.5402 -12.1853   N.ar      1 RES1   0.0000
    31 C31    -10.0578 -53.7249 -12.2517   C.ar      1 RES1   0.0000
    32 C32     -9.6504 -53.2798 -13.5103   C.ar      1 RES1   0.0000
    33 Cl33    -8.2546 -52.1884 -13.6265   Cl        1 RES1   0.0000
    34 H1     -13.3764 -56.1530 -13.8968   H         1 RES1   0.0000
    35 H2     -14.5848 -59.0695 -10.2613   H         1 RES1   0.0000
    36 H3     -13.1866 -55.6435 -18.3709   H         1 RES1   0.0000
    37 H4     -12.0866 -54.9676 -16.2398   H         1 RES1   0.0000
    38 H5     -14.0087 -59.6469  -8.1833   H         1 RES1   0.0000
    39 H6     -15.7400 -59.5220  -7.7969   H         1 RES1   0.0000
    40 H7     -13.4196 -58.9250  -5.9424   H         1 RES1   0.0000
    41 H8     -14.5184 -60.3205  -5.8560   H         1 RES1   0.0000
    42 H9      -9.1821 -48.5143 -17.0378   H         1 RES1   0.0000
    43 H10     -7.8343 -47.8833 -18.0114   H         1 RES1   0.0000
    44 H11     -9.3744 -48.3064 -18.7935   H         1 RES1   0.0000
    45 H12     -7.4761 -50.2704 -17.4327   H         1 RES1   0.0000
    46 H13     -7.6684 -50.0625 -19.1883   H         1 RES1   0.0000
    47 H14    -13.8185 -55.2083  -8.5419   H         1 RES1   0.0000
    48 H15    -13.0095 -54.3924 -10.7513   H         1 RES1   0.0000
    49 H16    -10.4413 -53.1824 -20.6181   H         1 RES1   0.0000
    50 H17    -12.3808 -54.7709 -20.5571   H         1 RES1   0.0000
    51 H18    -13.7914 -58.2452 -12.4727   H         1 RES1   0.0000
    52 H19     -9.5331 -53.4122 -11.3501   H         1 RES1   0.0000
    53 H20    -16.3144 -58.8471  -5.4382   H         1 RES1   0.0000
    54 H21    -14.0713 -58.2805  -3.8791   H         1 RES1   0.0000
    55 H22    -15.7795 -58.0428  -3.4456   H         1 RES1   0.0000
    56 H23    -15.1688 -59.6770  -3.7904   H         1 RES1   0.0000
    57 H24    -14.4143 -56.6063  -5.5377   H         1 RES1   0.0000
    58 H25    -16.1487 -56.5040  -5.1584   H         1 RES1   0.0000
    59 H26    -16.7062 -57.3256  -7.3866   H         1 RES1   0.0000
    60 H27    -15.6667 -55.8872  -7.5002   H         1 RES1   0.0000
    61 H28     -9.1519 -52.6288 -16.0575   H         1 RES1   0.0000
@<TRIPOS>BOND
     1     1     2    1
     2     2     3    1
     3     3     4    2
     4     3     5    1
     5     5     6    1
     6     6     7   ar
     7     7     8   ar
     8     8     9   ar
     9     9    10   ar
    10    10    11   ar
    11    11    12    1
    12    12    13    1
    13    13    14   ar
    14    14    15   ar
    15    15    16    1
    16    16    17    1
    17    17    18   ar
    18    18    19   ar
    19    19    20   ar
    20    20    21    1
    21    21    22    1
    22    22    23    1
    23    23    24    1
    24    24    25    1
    25    24    26    1
    26    26    27    1
    27    20    28   ar
    28    28    29   ar
    29    15    30   ar
    30    30    31   ar
    31    31    32   ar
    32    32    33    1
    33    11     6   ar
    34    32    13   ar
    35    29    17   ar
    36    27    21    1
    37    16    34    1
    38    19    35    1
    39     9    36    1
    40    10    37    1
    41    22    38    1
    42    22    39    1
    43    23    40    1
    44    23    41    1
    45     1    42    1
    46     1    43    1
    47     1    44    1
    48     2    45    1
    49     2    46    1
    50    28    47    1
    51    29    48    1
    52     7    49    1
    53     8    50    1
    54    18    51    1
    55    31    52    1
    56    24    53    1
    57    25    54    1
    58    25    55    1
    59    25    56    1
    60    26    57    1
    61    26    58    1
    62    27    59    1
    63    27    60    1
    64    12    61    1
@<TRIPOS>SUBSTRUCTURE
     1 RES1        1 GROUP             0 ****  ****    0  
@<TRIPOS>CRYSIN
    1.0000    1.0000    1.0000   90.0000   90.0000   90.0000     1     1
@<TRIPOS>MOLECULE
ligand_17
    61    64     1     0     0
SMALL
USER_CHARGES
****
Generated from the CSD

@<TRIPOS>ATOM
     1 C1      -8.5801 -48.6089 -18.0227   C.3       1 RES1   0.0000
     2 C2      -8.1035 -50.0436 -18.2439   C.3       1 RES1   0.0000
     3 C3      -9.3251 -50.9652 -18.2169   C.2       1 RES1   0.0000
     4 O4     -10.4250 -50.5773 -17.9791   O.2       1 RES1   0.0000
     5 O5      -9.0563 -52.3278 -18.4943   O.3       1 RES1   0.0000
     6 C6     -10.1833 -53.2129 -18.4723   C.ar      1 RES1   0.0000
     7 C7     -10.4280 -54.0008 -17.3457   C.ar      1 RES1   0.0000
     8 C8     -11.5374 -54.8653 -17.3438   C.ar      1 RES1   0.0000
     9 C9     -12.3704 -54.9225 -18.4742   C.ar      1 RES1   0.0000
    10 C10    -12.1181 -54.1309 -19.6097   C.ar      1 RES1   0.0000
    11 C11    -11.0087 -53.2692 -19.6112   C.ar      1 RES1   0.0000
    12 N12    -10.7002 -52.4015 -20.7891   N.pl3     1 RES1   0.0000
    13 C13    -11.4932 -52.3939 -22.0242   C.ar      1 RES1   0.0000
    14 N14    -12.5573 -53.1952 -22.1482   N.ar      1 RES1   0.0000
    15 C15    -13.2766 -53.1903 -23.2605   C.ar      1 RES1   0.0000
    16 N16    -14.4406 -54.0674 -23.4102   N.pl3     1 RES1   0.0000
    17 C17    -15.2570 -54.1331 -24.6365   C.ar      1 RES1   0.0000
    18 C18    -16.6298 -54.2727 -24.5105   C.ar      1 RES1   0.0000
    19 C19    -17.4383 -54.3295 -25.6542   C.ar      1 RES1   0.0000
    20 C20    -16.8628 -54.2478 -26.9180   C.ar      1 RES1   0.0000
    21 N21    -17.7364 -54.3148 -28.1161   N.pl3     1 RES1   0.0000
    22 C22    -19.1579 -53.9835 -28.1073   C.3       1 RES1   0.0000
    23 C23    -19.5414 -53.3183 -29.4064   C.3       1 RES1   0.0000
    24 N24    -19.1866 -54.1834 -30.5698   N.4       1 RES1   1.0000
    25 C25    -19.5211 -53.5939 -31.6558   C.3       1 RES1   0.0000
    26 C26    -17.7437 -54.5626 -30.5231   C.3       1 RES1   0.0000
    27 C27    -17.4031 -55.2189 -29.2085   C.3       1 RES1   0.0000
    28 C28    -15.4870 -54.1072 -27.0496   C.ar      1 RES1   0.0000
    29 C29    -14.6826 -54.0455 -25.9041   C.ar      1 RES1   0.0000
    30 N30    -12.9892 -52.4055 -24.2681   N.ar      1 RES1   0.0000
    31 C31    -11.9536 -51.5763 -24.2294   C.ar      1 RES1   0.0000
    32 C32    -11.1696 -51.5573 -23.0747   C.ar      1 RES1   0.0000
    33 Cl33    -9.7784 -50.4568 -22.9975   Cl        1 RES1   0.0000
    34 H1      -9.7689 -53.9466 -16.4805   H         1 RES1   0.0000
    35 H2     -11.7491 -55.4851 -16.4738   H         1 RES1   0.0000
    36 H3     -11.7222 -50.9293 -25.0743   H         1 RES1   0.0000
    37 H4     -13.2285 -55.5930 -18.4712   H         1 RES1   0.0000
    38 H5     -12.7748 -54.1856 -20.4767   H         1 RES1   0.0000
    39 H6      -9.0807 -48.5373 -17.0582   H         1 RES1   0.0000
    40 H7      -7.7243 -47.9356 -18.0384   H         1 RES1   0.0000
    41 H8      -9.2750 -48.3312 -18.8138   H         1 RES1   0.0000
    42 H9      -7.4105 -50.3275 -17.4533   H         1 RES1   0.0000
    43 H10     -7.6048 -50.1213 -19.2089   H         1 RES1   0.0000
    44 H11     -9.8974 -51.7831 -20.7314   H         1 RES1   0.0000
    45 H12    -19.3651 -53.3059 -27.2804   H         1 RES1   0.0000
    46 H13    -19.7399 -54.8956 -27.9837   H         1 RES1   0.0000
    47 H14    -19.0123 -52.3703 -29.4919   H         1 RES1   0.0000
    48 H15    -20.6151 -53.1364 -29.4110   H         1 RES1   0.0000
    49 H16    -14.6987 -54.6612 -22.6285   H         1 RES1   0.0000
    50 H17    -17.0812 -54.3384 -23.5216   H         1 RES1   0.0000
    51 H18    -17.1355 -53.6673 -30.6430   H         1 RES1   0.0000
    52 H19    -17.5310 -55.2573 -31.3343   H         1 RES1   0.0000
    53 H20    -17.9733 -56.1408 -29.1041   H         1 RES1   0.0000
    54 H21    -16.3383 -55.4456 -29.1806   H         1 RES1   0.0000
    55 H22    -15.0357 -54.0452 -28.0388   H         1 RES1   0.0000
    56 H23    -19.7330 -55.0359 -30.4995   H         1 RES1   0.0000
    57 H24    -18.9907 -52.6459 -31.7325   H         1 RES1   0.0000
    58 H25    -19.2627 -54.2242 -32.5054   H         1 RES1   0.0000
    59 H26    -20.5945 -53.4101 -31.6533   H         1 RES1   0.0000
    60 H27    -13.6045 -53.9287 -26.0041   H         1 RES1   0.0000
    61 H28    -18.5172 -54.4376 -25.5533   H         1 RES1   0.0000
@<TRIPOS>BOND
     1     1     2    1
     2     2     3    1
     3     3     4    2
     4     3     5    1
     5     5     6    1
     6     6     7   ar
     7     7     8   ar
     8     8     9   ar
     9     9    10   ar
    10    10    11   ar
    11    11    12    1
    12    12    13    1
    13    13    14   ar
    14    14    15   ar
    15    15    16    1
    16    16    17    1
    17    17    18   ar
    18    18    19   ar
    19    19    20   ar
    20    20    21    1
    21    21    22    1
    22    22    23    1
    23    23    24    1
    24    24    25    1
    25    24    26    1
    26    26    27    1
    27    20    28   ar
    28    28    29   ar
    29    15    30   ar
    30    30    31   ar
    31    31    32   ar
    32    32    33    1
    33    11     6   ar
    34    32    13   ar
    35    29    17   ar
    36    27    21    1
    37     7    34    1
    38     8    35    1
    39    31    36    1
    40     9    37    1
    41    10    38    1
    42     1    39    1
    43     1    40    1
    44     1    41    1
    45     2    42    1
    46     2    43    1
    47    12    44    1
    48    22    45    1
    49    22    46    1
    50    23    47    1
    51    23    48    1
    52    16    49    1
    53    18    50    1
    54    26    51    1
    55    26    52    1
    56    27    53    1
    57    27    54    1
    58    28    55    1
    59    24    56    1
    60    25    57    1
    61    25    58    1
    62    25    59    1
    63    29    60    1
    64    19    61    1
@<TRIPOS>SUBSTRUCTURE
     1 RES1        1 GROUP             0 ****  ****    0  
@<TRIPOS>CRYSIN
    1.0000    1.0000    1.0000   90.0000   90.0000   90.0000     1     1
@<TRIPOS>MOLECULE
ligand_18
    61    64     1     0     0
SMALL
USER_CHARGES
****
Generated from the CSD

@<TRIPOS>ATOM
     1 C1      -8.5808 -48.6086 -18.0225   C.3       1 RES1   0.0000
     2 C2      -8.1040 -50.0432 -18.2437   C.3       1 RES1   0.0000
     3 C3      -9.3254 -50.9650 -18.2168   C.2       1 RES1   0.0000
     4 O4     -10.4254 -50.5772 -17.9791   O.2       1 RES1   0.0000
     5 O5      -9.0565 -52.3276 -18.4942   O.3       1 RES1   0.0000
     6 C6     -10.1833 -53.2128 -18.4723   C.ar      1 RES1   0.0000
     7 C7     -10.4280 -54.0008 -17.3457   C.ar      1 RES1   0.0000
     8 C8     -11.5372 -54.8655 -17.3439   C.ar      1 RES1   0.0000
     9 C9     -12.3702 -54.9227 -18.4744   C.ar      1 RES1   0.0000
    10 C10    -12.1179 -54.1311 -19.6098   C.ar      1 RES1   0.0000
    11 C11    -11.0087 -53.2692 -19.6112   C.ar      1 RES1   0.0000
    12 N12    -10.7002 -52.4015 -20.7891   N.pl3     1 RES1   0.0000
    13 C13    -11.4932 -52.3939 -22.0242   C.ar      1 RES1   0.0000
    14 N14    -12.5573 -53.1952 -22.1482   N.ar      1 RES1   0.0000
    15 C15    -13.2766 -53.1903 -23.2605   C.ar      1 RES1   0.0000
    16 N16    -14.4406 -54.0674 -23.4102   N.pl3     1 RES1   0.0000
    17 C17    -15.3110 -54.0676 -24.6006   C.ar      1 RES1   0.0000
    18 C18    -15.6308 -52.8533 -25.1864   C.ar      1 RES1   0.0000
    19 C19    -16.4482 -52.8157 -26.3245   C.ar      1 RES1   0.0000
    20 C20    -16.9413 -53.9982 -26.8665   C.ar      1 RES1   0.0000
    21 N21    -17.8090 -53.9358 -28.0691   N.pl3     1 RES1   0.0000
    22 C22    -18.7565 -54.9804 -28.4451   C.3       1 RES1   0.0000
    23 C23    -19.9888 -54.3635 -29.0597   C.3       1 RES1   0.0000
    24 N24    -19.6266 -53.5054 -30.2261   N.4       1 RES1   1.0000
    25 C25    -20.6893 -52.9950 -30.7249   C.3       1 RES1   0.0000
    26 C26    -18.6090 -52.4863 -29.8338   C.3       1 RES1   0.0000
    27 C27    -17.3981 -53.1444 -29.2211   C.3       1 RES1   0.0000
    28 C28    -16.6230 -55.2182 -26.2832   C.ar      1 RES1   0.0000
    29 C29    -15.8015 -55.2522 -25.1488   C.ar      1 RES1   0.0000
    30 N30    -12.9892 -52.4055 -24.2681   N.ar      1 RES1   0.0000
    31 C31    -11.9536 -51.5763 -24.2294   C.ar      1 RES1   0.0000
    32 C32    -11.1696 -51.5573 -23.0747   C.ar      1 RES1   0.0000
    33 Cl33    -9.7784 -50.4568 -22.9975   Cl        1 RES1   0.0000
    34 H1      -9.0814 -48.5371 -17.0581   H         1 RES1   0.0000
    35 H2      -7.7251 -47.9352 -18.0381   H         1 RES1   0.0000
    36 H3      -9.2757 -48.3310 -18.8137   H         1 RES1   0.0000
    37 H4      -7.4110 -50.3270 -17.4530   H         1 RES1   0.0000
    38 H5      -7.6053 -50.1208 -19.2087   H         1 RES1   0.0000
    39 H6      -9.8974 -51.7831 -20.7314   H         1 RES1   0.0000
    40 H7     -20.4941 -53.7544 -28.3116   H         1 RES1   0.0000
    41 H8     -20.6564 -55.1564 -29.3935   H         1 RES1   0.0000
    42 H9     -19.2095 -54.1032 -30.9324   H         1 RES1   0.0000
    43 H10    -21.1903 -52.3904 -29.9704   H         1 RES1   0.0000
    44 H11    -20.4262 -52.3687 -31.5760   H         1 RES1   0.0000
    45 H12    -21.3554 -53.7918 -31.0526   H         1 RES1   0.0000
    46 H13    -19.0402 -55.5458 -27.5587   H         1 RES1   0.0000
    47 H14    -18.2891 -55.6481 -29.1674   H         1 RES1   0.0000
    48 H15    -15.5450 -56.2076 -24.6934   H         1 RES1   0.0000
    49 H16    -11.7222 -50.9293 -25.0743   H         1 RES1   0.0000
    50 H17    -11.7488 -55.4854 -16.4739   H         1 RES1   0.0000
    51 H18    -13.2283 -55.5933 -18.4715   H         1 RES1   0.0000
    52 H19    -12.7745 -54.1859 -20.4769   H         1 RES1   0.0000
    53 H20    -19.0492 -51.8035 -29.1086   H         1 RES1   0.0000
    54 H21    -18.3031 -51.9290 -30.7179   H         1 RES1   0.0000
    55 H22    -16.9252 -53.7927 -29.9574   H         1 RES1   0.0000
    56 H23    -16.6908 -52.3798 -28.9031   H         1 RES1   0.0000
    57 H24    -17.0103 -56.1441 -26.7059   H         1 RES1   0.0000
    58 H25    -15.2466 -51.9269 -24.7620   H         1 RES1   0.0000
    59 H26    -16.6973 -51.8606 -26.7845   H         1 RES1   0.0000
    60 H27     -9.7690 -53.9465 -16.4804   H         1 RES1   0.0000
    61 H28    -14.6595 -54.7088 -22.6546   H         1 RES1   0.0000
@<TRIPOS>BOND
     1     1     2    1
     2     2     3    1
     3     3     4    2
     4     3     5    1
     5     5     6    1
     6     6     7   ar
     7     7     8   ar
     8     8     9   ar
     9     9    10   ar
    10    10    11   ar
    11    11    12    1
    12    12    13    1
    13    13    14   ar
    14    14    15   ar
    15    15    16    1
    16    16    17    1
    17    17    18   ar
    18    18    19   ar
    19    19    20   ar
    20    20    21    1
    21    21    22    1
    22    22    23    1
    23    23    24    1
    24    24    25    1
    25    24    26    1
    26    26    27    1
    27    20    28   ar
    28    28    29   ar
    29    15    30   ar
    30    30    31   ar
    31    31    32   ar
    32    32    33    1
    33    11     6   ar
    34    32    13   ar
    35    29    17   ar
    36    27    21    1
    37     1    34    1
    38     1    35    1
    39     1    36    1
    40     2    37    1
    41     2    38    1
    42    12    39    1
    43    23    40    1
    44    23    41    1
    45    24    42    1
    46    25    43    1
    47    25    44    1
    48    25    45    1
    49    22    46    1
    50    22    47    1
    51    29    48    1
    52    31    49    1
    53     8    50    1
    54     9    51    1
    55    10    52    1
    56    26    53    1
    57    26    54    1
    58    27    55    1
    59    27    56    1
    60    28    57    1
    61    18    58    1
    62    19    59    1
    63     7    60    1
    64    16    61    1
@<TRIPOS>SUBSTRUCTURE
     1 RES1        1 GROUP             0 ****  ****    0  
@<TRIPOS>CRYSIN
    1.0000    1.0000    1.0000   90.0000   90.0000   90.0000     1     1
@<TRIPOS>MOLECULE
ligand_19
    61    64     1     0     0
SMALL
USER_CHARGES
****
Generated from the CSD

@<TRIPOS>ATOM
     1 C1      -9.3050 -48.5105 -17.3861   C.3       1 RES1   0.0000
     2 C2      -8.6168 -49.8302 -17.7313   C.3       1 RES1   0.0000
     3 C3      -9.6928 -50.9081 -17.8821   C.2       1 RES1   0.0000
     4 O4     -10.8471 -50.7057 -17.6737   O.2       1 RES1   0.0000
     5 O5      -9.2178 -52.1790 -18.2883   O.3       1 RES1   0.0000
     6 C6     -10.2074 -53.2029 -18.4504   C.ar      1 RES1   0.0000
     7 C7     -11.2534 -53.0227 -19.3578   C.ar      1 RES1   0.0000
     8 C8     -12.2166 -54.0375 -19.5012   C.ar      1 RES1   0.0000
     9 C9     -12.1100 -55.2053 -18.7266   C.ar      1 RES1   0.0000
    10 C10    -11.0576 -55.3814 -17.8096   C.ar      1 RES1   0.0000
    11 C11    -10.0972 -54.3664 -17.6659   C.ar      1 RES1   0.0000
    12 N12     -8.9551 -54.5067 -16.7112   N.pl3     1 RES1   0.0000
    13 C13     -8.8233 -55.6141 -15.7570   C.ar      1 RES1   0.0000
    14 N14     -9.8038 -56.5153 -15.6289   N.ar      1 RES1   0.0000
    15 C15     -9.6882 -57.5172 -14.7702   C.ar      1 RES1   0.0000
    16 N16    -10.7576 -58.5069 -14.6171   N.pl3     1 RES1   0.0000
    17 C17    -12.0432 -58.4328 -15.3356   C.ar      1 RES1   0.0000
    18 C18    -12.6327 -57.1910 -15.5101   C.ar      1 RES1   0.0000
    19 C19    -13.8503 -57.0813 -16.1960   C.ar      1 RES1   0.0000
    20 C20    -14.4697 -58.2200 -16.7010   C.ar      1 RES1   0.0000
    21 N21    -15.7608 -58.0823 -17.4200   N.3       1 RES1   0.0000
    22 C22    -15.6600 -58.5781 -18.8048   C.3       1 RES1   0.0000
    23 C23    -16.9768 -58.4618 -19.5304   C.3       1 RES1   0.0000
    24 N24    -17.3844 -57.0235 -19.5567   N.4       1 RES1   1.0000
    25 C25    -18.4171 -56.8187 -20.2849   C.3       1 RES1   0.0000
    26 C26    -17.5607 -56.5716 -18.1443   C.3       1 RES1   0.0000
    27 C27    -16.2479 -56.6975 -17.4078   C.3       1 RES1   0.0000
    28 C28    -13.8822 -59.4672 -16.5291   C.ar      1 RES1   0.0000
    29 C29    -12.6627 -59.5724 -15.8475   C.ar      1 RES1   0.0000
    30 N30     -8.6213 -57.6740 -14.0280   N.ar      1 RES1   0.0000
    31 C31     -7.5996 -56.8293 -14.0928   C.ar      1 RES1   0.0000
    32 C32     -7.6880 -55.7582 -14.9834   C.ar      1 RES1   0.0000
    33 Cl33    -6.3345 -54.6137 -15.0895   Cl        1 RES1   0.0000
    34 H1     -19.2547 -57.3969 -19.8977   H         1 RES1   0.0000
    35 H2     -18.6688 -55.7593 -20.2682   H         1 RES1   0.0000
    36 H3     -18.2063 -57.1256 -21.3083   H         1 RES1   0.0000
    37 H4     -18.3117 -57.1909 -17.6561   H         1 RES1   0.0000
    38 H5     -17.8847 -55.5320 -18.1336   H         1 RES1   0.0000
    39 H6     -15.5091 -56.0572 -17.8875   H         1 RES1   0.0000
    40 H7     -16.3882 -56.3798 -16.3757   H         1 RES1   0.0000
    41 H8     -11.3224 -52.1090 -19.9463   H         1 RES1   0.0000
    42 H9     -13.0380 -53.9194 -20.2064   H         1 RES1   0.0000
    43 H10     -9.8558 -48.6215 -16.4532   H         1 RES1   0.0000
    44 H11     -8.5553 -47.7286 -17.2742   H         1 RES1   0.0000
    45 H12     -9.9944 -48.2408 -18.1848   H         1 RES1   0.0000
    46 H13     -7.9284 -50.1061 -16.9339   H         1 RES1   0.0000
    47 H14     -8.0670 -49.7255 -18.6655   H         1 RES1   0.0000
    48 H15     -6.7177 -56.9679 -13.4691   H         1 RES1   0.0000
    49 H16    -12.8571 -55.9897 -18.8384   H         1 RES1   0.0000
    50 H17    -10.9884 -56.2934 -17.2185   H         1 RES1   0.0000
    51 H18    -12.1495 -56.2991 -15.1139   H         1 RES1   0.0000
    52 H19    -15.3580 -59.6242 -18.7851   H         1 RES1   0.0000
    53 H20    -14.9103 -57.9938 -19.3362   H         1 RES1   0.0000
    54 H21    -17.7340 -59.0478 -19.0116   H         1 RES1   0.0000
    55 H22    -16.8675 -58.8304 -20.5493   H         1 RES1   0.0000
    56 H23    -16.6164 -56.4933 -19.9558   H         1 RES1   0.0000
    57 H24     -8.2303 -53.7963 -16.7237   H         1 RES1   0.0000
    58 H25    -10.6055 -59.2847 -13.9829   H         1 RES1   0.0000
    59 H26    -14.3675 -60.3592 -16.9225   H         1 RES1   0.0000
    60 H27    -12.1967 -60.5480 -15.7169   H         1 RES1   0.0000
    61 H28    -14.3115 -56.1044 -16.3336   H         1 RES1   0.0000
@<TRIPOS>BOND
     1     1     2    1
     2     2     3    1
     3     3     4    2
     4     3     5    1
     5     5     6    1
     6     6     7   ar
     7     7     8   ar
     8     8     9   ar
     9     9    10   ar
    10    10    11   ar
    11    11    12    1
    12    12    13    1
    13    13    14   ar
    14    14    15   ar
    15    15    16    1
    16    16    17    1
    17    17    18   ar
    18    18    19   ar
    19    19    20   ar
    20    20    21    1
    21    21    22    1
    22    22    23    1
    23    23    24    1
    24    24    25    1
    25    24    26    1
    26    26    27    1
    27    20    28   ar
    28    28    29   ar
    29    15    30   ar
    30    30    31   ar
    31    31    32   ar
    32    32    33    1
    33    11     6   ar
    34    32    13   ar
    35    29    17   ar
    36    27    21    1
    37    25    34    1
    38    25    35    1
    39    25    36    1
    40    26    37    1
    41    26    38    1
    42    27    39    1
    43    27    40    1
    44     7    41    1
    45     8    42    1
    46     1    43    1
    47     1    44    1
    48     1    45    1
    49     2    46    1
    50     2    47    1
    51    31    48    1
    52     9    49    1
    53    10    50    1
    54    18    51    1
    55    22    52    1
    56    22    53    1
    57    23    54    1
    58    23    55    1
    59    24    56    1
    60    12    57    1
    61    16    58    1
    62    28    59    1
    63    29    60    1
    64    19    61    1
@<TRIPOS>SUBSTRUCTURE
     1 RES1        1 GROUP             0 ****  ****    0  
@<TRIPOS>CRYSIN
    1.0000    1.0000    1.0000   90.0000   90.0000   90.0000     1     1
@<TRIPOS>MOLECULE
ligand_20
    61    64     1     0     0
SMALL
USER_CHARGES
****
Generated from the CSD

@<TRIPOS>ATOM
     1 C1      -7.7552 -48.9981 -18.1477   C.3       1 RES1   0.0000
     2 C2      -7.5530 -50.5021 -18.3248   C.3       1 RES1   0.0000
     3 C3      -8.9243 -51.1801 -18.2770   C.2       1 RES1   0.0000
     4 O4      -9.9330 -50.5882 -18.0559   O.2       1 RES1   0.0000
     5 O5      -8.9130 -52.5765 -18.5132   O.3       1 RES1   0.0000
     6 C6     -10.1845 -53.2363 -18.4711   C.ar      1 RES1   0.0000
     7 C7     -10.8658 -53.5116 -19.6585   C.ar      1 RES1   0.0000
     8 C8     -12.1137 -54.1574 -19.5968   C.ar      1 RES1   0.0000
     9 C9     -12.6501 -54.5057 -18.3454   C.ar      1 RES1   0.0000
    10 C10    -11.9633 -54.2223 -17.1506   C.ar      1 RES1   0.0000
    11 C11    -10.7178 -53.5756 -17.2133   C.ar      1 RES1   0.0000
    12 N12     -9.9437 -53.2583 -15.9741   N.pl3     1 RES1   0.0000
    13 C13    -10.3420 -53.6964 -14.6311   C.ar      1 RES1   0.0000
    14 N14    -11.3823 -54.5222 -14.4712   N.ar      1 RES1   0.0000
    15 C15    -11.7441 -54.9213 -13.2611   C.ar      1 RES1   0.0000
    16 N16    -12.8851 -55.8210 -13.0730   N.pl3     1 RES1   0.0000
    17 C17    -13.6635 -56.3913 -14.1881   C.ar      1 RES1   0.0000
    18 C18    -15.0347 -56.5229 -14.0384   C.ar      1 RES1   0.0000
    19 C19    -15.8078 -57.0526 -15.0808   C.ar      1 RES1   0.0000
    20 C20    -15.1987 -57.4488 -16.2671   C.ar      1 RES1   0.0000
    21 N21    -16.0350 -58.0114 -17.3566   N.3       1 RES1   0.0000
    22 C22    -17.4361 -58.1762 -16.9279   C.3       1 RES1   0.0000
    23 C23    -18.2932 -58.7250 -18.0405   C.3       1 RES1   0.0000
    24 N24    -17.7504 -60.0560 -18.4520   N.4       1 RES1   1.0000
    25 C25    -18.5087 -60.6584 -19.2892   C.3       1 RES1   0.0000
    26 C26    -16.3617 -59.8470 -18.9599   C.3       1 RES1   0.0000
    27 C27    -15.5002 -59.2851 -17.8535   C.3       1 RES1   0.0000
    28 C28    -13.8244 -57.3182 -16.4223   C.ar      1 RES1   0.0000
    29 C29    -13.0555 -56.7837 -15.3802   C.ar      1 RES1   0.0000
    30 N30    -11.1030 -54.5402 -12.1853   N.ar      1 RES1   0.0000
    31 C31    -10.0578 -53.7249 -12.2517   C.ar      1 RES1   0.0000
    32 C32     -9.6504 -53.2798 -13.5103   C.ar      1 RES1   0.0000
    33 Cl33    -8.2546 -52.1884 -13.6265   Cl        1 RES1   0.0000
    34 H1      -9.5331 -53.4122 -11.3501   H         1 RES1   0.0000
    35 H2      -6.9242 -50.8861 -17.5229   H         1 RES1   0.0000
    36 H3      -7.0780 -50.6993 -19.2847   H         1 RES1   0.0000
    37 H4      -9.0952 -52.7091 -16.0668   H         1 RES1   0.0000
    38 H5     -17.6900 -60.6343 -17.6200   H         1 RES1   0.0000
    39 H6     -18.6161 -60.0491 -20.1854   H         1 RES1   0.0000
    40 H7     -18.0673 -61.6182 -19.5535   H         1 RES1   0.0000
    41 H8     -19.4878 -60.8203 -18.8409   H         1 RES1   0.0000
    42 H9     -16.3819 -59.1481 -19.7948   H         1 RES1   0.0000
    43 H10    -15.9499 -60.7986 -19.2929   H         1 RES1   0.0000
    44 H11     -8.2333 -48.8066 -17.1882   H         1 RES1   0.0000
    45 H12     -6.7894 -48.4959 -18.1787   H         1 RES1   0.0000
    46 H13     -8.3870 -48.6198 -18.9500   H         1 RES1   0.0000
    47 H14    -15.4659 -59.9999 -17.0327   H         1 RES1   0.0000
    48 H15    -14.4935 -59.1224 -18.2355   H         1 RES1   0.0000
    49 H16    -13.3468 -57.6299 -17.3500   H         1 RES1   0.0000
    50 H17    -11.9788 -56.6742 -15.5016   H         1 RES1   0.0000
    51 H18    -17.8293 -57.2074 -16.6232   H         1 RES1   0.0000
    52 H19    -17.4694 -58.8633 -16.0837   H         1 RES1   0.0000
    53 H20    -18.2731 -58.0428 -18.8891   H         1 RES1   0.0000
    54 H21    -19.3182 -58.8395 -17.6910   H         1 RES1   0.0000
    55 H22    -12.3920 -54.5008 -16.1890   H         1 RES1   0.0000
    56 H23    -15.5124 -56.2144 -13.1097   H         1 RES1   0.0000
    57 H24    -16.8855 -57.1540 -14.9620   H         1 RES1   0.0000
    58 H25    -10.4368 -53.2301 -20.6191   H         1 RES1   0.0000
    59 H26    -12.6597 -54.3856 -20.5110   H         1 RES1   0.0000
    60 H27    -13.6168 -55.0050 -18.2996   H         1 RES1   0.0000
    61 H28    -13.1540 -56.0646 -12.1251   H         1 RES1   0.0000
@<TRIPOS>BOND
     1     1     2    1
     2     2     3    1
     3     3     4    2
     4     3     5    1
     5     5     6    1
     6     6     7   ar
     7     7     8   ar
     8     8     9   ar
     9     9    10   ar
    10    10    11   ar
    11    11    12    1
    12    12    13    1
    13    13    14   ar
    14    14    15   ar
    15    15    16    1
    16    16    17    1
    17    17    18   ar
    18    18    19   ar
    19    19    20   ar
    20    20    21    1
    21    21    22    1
    22    22    23    1
    23    23    24    1
    24    24    25    1
    25    24    26    1
    26    26    27    1
    27    20    28   ar
    28    28    29   ar
    29    15    30   ar
    30    30    31   ar
    31    31    32   ar
    32    32    33    1
    33    11     6   ar
    34    32    13   ar
    35    29    17   ar
    36    27    21    1
    37    31    34    1
    38     2    35    1
    39     2    36    1
    40    12    37    1
    41    24    38    1
    42    25    39    1
    43    25    40    1
    44    25    41    1
    45    26    42    1
    46    26    43    1
    47     1    44    1
    48     1    45    1
    49     1    46    1
    50    27    47    1
    51    27    48    1
    52    28    49    1
    53    29    50    1
    54    22    51    1
    55    22    52    1
    56    23    53    1
    57    23    54    1
    58    10    55    1
    59    18    56    1
    60    19    57    1
    61     7    58    1
    62     8    59    1
    63     9    60    1
    64    16    61    1
@<TRIPOS>SUBSTRUCTURE
     1 RES1        1 GROUP             0 ****  ****    0  
@<TRIPOS>CRYSIN
    1.0000    1.0000    1.0000   90.0000   90.0000   90.0000     1     1
@<TRIPOS>MOLECULE
ligand_21
    61    64     1     0     0
SMALL
USER_CHARGES
****
Generated from the CSD

@<TRIPOS>ATOM
     1 C1      -8.2191 -48.8063 -18.1808   C.3       1 RES1   0.0000
     2 C2      -7.8653 -50.2825 -18.3538   C.3       1 RES1   0.0000
     3 C3      -9.1595 -51.0971 -18.2927   C.2       1 RES1   0.0000
     4 O4     -10.2219 -50.6106 -18.0660   O.2       1 RES1   0.0000
     5 O5      -9.0070 -52.4862 -18.5238   O.3       1 RES1   0.0000
     6 C6     -10.2039 -53.2725 -18.4692   C.ar      1 RES1   0.0000
     7 C7     -10.8621 -53.6215 -19.6503   C.ar      1 RES1   0.0000
     8 C8     -12.0368 -54.3914 -19.5764   C.ar      1 RES1   0.0000
     9 C9     -12.5255 -54.7871 -18.3195   C.ar      1 RES1   0.0000
    10 C10    -11.8625 -54.4294 -17.1312   C.ar      1 RES1   0.0000
    11 C11    -10.6903 -53.6589 -17.2060   C.ar      1 RES1   0.0000
    12 N12     -9.9437 -53.2583 -15.9741   N.pl3     1 RES1   0.0000
    13 C13     -9.8634 -54.0872 -14.7655   C.ar      1 RES1   0.0000
    14 N14    -10.4327 -55.2975 -14.7379   N.ar      1 RES1   0.0000
    15 C15    -10.3611 -56.0494 -13.6497   C.ar      1 RES1   0.0000
    16 N16    -10.9855 -57.3742 -13.6056   N.pl3     1 RES1   0.0000
    17 C17    -11.6300 -58.0086 -14.7703   C.ar      1 RES1   0.0000
    18 C18    -12.4108 -59.1343 -14.5625   C.ar      1 RES1   0.0000
    19 C19    -13.0461 -59.7585 -15.6449   C.ar      1 RES1   0.0000
    20 C20    -12.8918 -59.2494 -16.9303   C.ar      1 RES1   0.0000
    21 N21    -13.5693 -59.9282 -18.0631   N.pl3     1 RES1   0.0000
    22 C22    -13.7890 -61.3693 -18.1356   C.3       1 RES1   0.0000
    23 C23    -15.1118 -61.6575 -18.8021   C.3       1 RES1   0.0000
    24 N24    -15.1741 -61.0242 -20.1522   N.4       1 RES1   1.0000
    25 C25    -16.3057 -61.2835 -20.6918   C.3       1 RES1   0.0000
    26 C26    -14.8829 -59.5630 -20.0622   C.3       1 RES1   0.0000
    27 C27    -13.5563 -59.3203 -19.3869   C.3       1 RES1   0.0000
    28 C28    -12.1105 -58.1206 -17.1437   C.ar      1 RES1   0.0000
    29 C29    -11.4812 -57.4964 -16.0587   C.ar      1 RES1   0.0000
    30 N30     -9.7307 -55.6524 -12.5733   N.ar      1 RES1   0.0000
    31 C31     -9.1346 -54.4680 -12.5144   C.ar      1 RES1   0.0000
    32 C32     -9.1932 -53.6460 -13.6410   C.ar      1 RES1   0.0000
    33 Cl33    -8.4037 -52.0565 -13.5882   Cl        1 RES1   0.0000
    34 H1     -13.7947 -61.7842 -17.1288   H         1 RES1   0.0000
    35 H2     -12.9872 -61.8276 -18.7126   H         1 RES1   0.0000
    36 H3     -15.9166 -61.2615 -18.1845   H         1 RES1   0.0000
    37 H4     -15.2314 -62.7348 -18.9072   H         1 RES1   0.0000
    38 H5     -14.4529 -61.4486 -20.7266   H         1 RES1   0.0000
    39 H6     -17.1050 -60.8874 -20.0672   H         1 RES1   0.0000
    40 H7     -16.3523 -60.8219 -21.6770   H         1 RES1   0.0000
    41 H8     -16.4224 -62.3618 -20.7902   H         1 RES1   0.0000
    42 H9     -10.9738 -57.8821 -12.7269   H         1 RES1   0.0000
    43 H10     -9.4656 -52.3630 -15.9736   H         1 RES1   0.0000
    44 H11     -8.7071 -48.6604 -17.2183   H         1 RES1   0.0000
    45 H12     -7.3101 -48.2080 -18.2213   H         1 RES1   0.0000
    46 H13     -8.8923 -48.4983 -18.9795   H         1 RES1   0.0000
    47 H14     -7.1945 -50.5964 -17.5554   H         1 RES1   0.0000
    48 H15     -7.3797 -50.4344 -19.3166   H         1 RES1   0.0000
    49 H16    -10.8734 -56.6077 -16.2222   H         1 RES1   0.0000
    50 H17     -8.6147 -54.1468 -11.6130   H         1 RES1   0.0000
    51 H18    -12.5310 -59.5346 -13.5569   H         1 RES1   0.0000
    52 H19    -13.4356 -55.3825 -18.2642   H         1 RES1   0.0000
    53 H20    -12.2533 -54.7460 -16.1653   H         1 RES1   0.0000
    54 H21    -10.4713 -53.3020 -20.6152   H         1 RES1   0.0000
    55 H22    -12.5632 -54.6785 -20.4854   H         1 RES1   0.0000
    56 H23    -15.6700 -59.0771 -19.4874   H         1 RES1   0.0000
    57 H24    -14.8543 -59.1424 -21.0663   H         1 RES1   0.0000
    58 H25    -12.7591 -59.7630 -19.9822   H         1 RES1   0.0000
    59 H26    -13.3870 -58.2486 -19.2930   H         1 RES1   0.0000
    60 H27    -11.9878 -57.7227 -18.1500   H         1 RES1   0.0000
    61 H28    -13.6606 -60.6422 -15.4795   H         1 RES1   0.0000
@<TRIPOS>BOND
     1     1     2    1
     2     2     3    1
     3     3     4    2
     4     3     5    1
     5     5     6    1
     6     6     7   ar
     7     7     8   ar
     8     8     9   ar
     9     9    10   ar
    10    10    11   ar
    11    11    12    1
    12    12    13    1
    13    13    14   ar
    14    14    15   ar
    15    15    16    1
    16    16    17    1
    17    17    18   ar
    18    18    19   ar
    19    19    20   ar
    20    20    21    1
    21    21    22    1
    22    22    23    1
    23    23    24    1
    24    24    25    1
    25    24    26    1
    26    26    27    1
    27    20    28   ar
    28    28    29   ar
    29    15    30   ar
    30    30    31   ar
    31    31    32   ar
    32    32    33    1
    33    11     6   ar
    34    32    13   ar
    35    29    17   ar
    36    27    21    1
    37    22    34    1
    38    22    35    1
    39    23    36    1
    40    23    37    1
    41    24    38    1
    42    25    39    1
    43    25    40    1
    44    25    41    1
    45    16    42    1
    46    12    43    1
    47     1    44    1
    48     1    45    1
    49     1    46    1
    50     2    47    1
    51     2    48    1
    52    29    49    1
    53    31    50    1
    54    18    51    1
    55     9    52    1
    56    10    53    1
    57     7    54    1
    58     8    55    1
    59    26    56    1
    60    26    57    1
    61    27    58    1
    62    27    59    1
    63    28    60    1
    64    19    61    1
@<TRIPOS>SUBSTRUCTURE
     1 RES1        1 GROUP             0 ****  ****    0  
@<TRIPOS>CRYSIN
    1.0000    1.0000    1.0000   90.0000   90.0000   90.0000     1     1
@<TRIPOS>MOLECULE
ligand_22
    61    64     1     0     0
SMALL
USER_CHARGES
****
Generated from the CSD

@<TRIPOS>ATOM
     1 C1      -9.0990 -48.4967 -17.8360   C.3       1 RES1   0.0000
     2 C2      -8.4825 -49.8779 -18.0516   C.3       1 RES1   0.0000
     3 C3      -9.6153 -50.9052 -18.1144   C.2       1 RES1   0.0000
     4 O4     -10.7579 -50.6222 -17.9377   O.2       1 RES1   0.0000
     5 O5      -9.2085 -52.2320 -18.3974   O.3       1 RES1   0.0000
     6 C6     -10.2503 -53.2143 -18.4589   C.ar      1 RES1   0.0000
     7 C7     -10.4891 -54.0455 -17.3624   C.ar      1 RES1   0.0000
     8 C8     -11.5140 -55.0053 -17.4426   C.ar      1 RES1   0.0000
     9 C9     -12.2700 -55.1116 -18.6225   C.ar      1 RES1   0.0000
    10 C10    -12.0234 -54.2759 -19.7272   C.ar      1 RES1   0.0000
    11 C11    -10.9983 -53.3189 -19.6467   C.ar      1 RES1   0.0000
    12 N12    -10.7002 -52.4015 -20.7891   N.pl3     1 RES1   0.0000
    13 C13    -11.7216 -51.8933 -21.7126   C.ar      1 RES1   0.0000
    14 N14    -13.0104 -52.2020 -21.5301   N.ar      1 RES1   0.0000
    15 C15    -13.9355 -51.7441 -22.3602   C.ar      1 RES1   0.0000
    16 N16    -15.3494 -52.0799 -22.1738   N.pl3     1 RES1   0.0000
    17 C17    -15.8591 -52.8404 -21.0177   C.ar      1 RES1   0.0000
    18 C18    -17.1559 -53.3261 -21.0653   C.ar      1 RES1   0.0000
    19 C19    -17.6709 -54.0610 -19.9884   C.ar      1 RES1   0.0000
    20 C20    -16.8809 -54.3020 -18.8691   C.ar      1 RES1   0.0000
    21 N21    -17.4471 -55.0783 -17.7378   N.pl3     1 RES1   0.0000
    22 C22    -18.8506 -55.0321 -17.3398   C.3       1 RES1   0.0000
    23 C23    -19.2981 -56.3927 -16.8649   C.3       1 RES1   0.0000
    24 N24    -18.4282 -56.8788 -15.7537   N.4       1 RES1   1.0000
    25 C25    -18.8294 -58.0334 -15.3733   C.3       1 RES1   0.0000
    26 C26    -16.9923 -56.8565 -16.1609   C.3       1 RES1   0.0000
    27 C27    -16.5889 -55.4816 -16.6319   C.3       1 RES1   0.0000
    28 C28    -15.5799 -53.8176 -18.8169   C.ar      1 RES1   0.0000
    29 C29    -15.0667 -53.0879 -19.8973   C.ar      1 RES1   0.0000
    30 N30    -13.6358 -50.9723 -23.3742   N.ar      1 RES1   0.0000
    31 C31    -12.3833 -50.6136 -23.6278   C.ar      1 RES1   0.0000
    32 C32    -11.3807 -51.0810 -22.7767   C.ar      1 RES1   0.0000
    33 Cl33    -9.6968 -50.6154 -23.0938   Cl        1 RES1   0.0000
    34 H1      -9.6602 -48.4913 -16.9027   H         1 RES1   0.0000
    35 H2      -8.3081 -47.7496 -17.7883   H         1 RES1   0.0000
    36 H3      -9.7681 -48.2647 -18.6633   H         1 RES1   0.0000
    37 H4      -7.8147 -50.1162 -17.2251   H         1 RES1   0.0000
    38 H5      -7.9226 -49.8895 -18.9856   H         1 RES1   0.0000
    39 H6     -14.9616 -54.0042 -17.9401   H         1 RES1   0.0000
    40 H7     -14.0450 -52.7126 -19.8619   H         1 RES1   0.0000
    41 H8     -19.2439 -57.0960 -17.6945   H         1 RES1   0.0000
    42 H9     -20.3259 -56.3271 -16.5111   H         1 RES1   0.0000
    43 H10    -18.5383 -56.2401 -14.9725   H         1 RES1   0.0000
    44 H11    -18.7753 -58.7299 -16.2087   H         1 RES1   0.0000
    45 H12    -18.1953 -58.3891 -14.5625   H         1 RES1   0.0000
    46 H13    -19.8589 -57.9634 -15.0251   H         1 RES1   0.0000
    47 H14     -9.7376 -52.1141 -20.9341   H         1 RES1   0.0000
    48 H15    -11.7200 -55.6606 -16.5975   H         1 RES1   0.0000
    49 H16    -13.0627 -55.8558 -18.6830   H         1 RES1   0.0000
    50 H17    -12.6199 -54.3698 -20.6335   H         1 RES1   0.0000
    51 H18    -19.4573 -54.7303 -18.1923   H         1 RES1   0.0000
    52 H19    -18.9731 -54.3105 -16.5334   H         1 RES1   0.0000
    53 H20    -17.7758 -53.1367 -21.9404   H         1 RES1   0.0000
    54 H21    -18.6898 -54.4434 -20.0281   H         1 RES1   0.0000
    55 H22    -16.8397 -57.5697 -16.9696   H         1 RES1   0.0000
    56 H23    -16.3753 -57.1369 -15.3084   H         1 RES1   0.0000
    57 H24    -16.6938 -54.7716 -15.8129   H         1 RES1   0.0000
    58 H25    -15.5522 -55.5012 -16.9648   H         1 RES1   0.0000
    59 H26    -16.0132 -51.7729 -22.8776   H         1 RES1   0.0000
    60 H27    -12.1448 -49.9730 -24.4756   H         1 RES1   0.0000
    61 H28     -9.8901 -53.9518 -16.4578   H         1 RES1   0.0000
@<TRIPOS>BOND
     1     1     2    1
     2     2     3    1
     3     3     4    2
     4     3     5    1
     5     5     6    1
     6     6     7   ar
     7     7     8   ar
     8     8     9   ar
     9     9    10   ar
    10    10    11   ar
    11    11    12    1
    12    12    13    1
    13    13    14   ar
    14    14    15   ar
    15    15    16    1
    16    16    17    1
    17    17    18   ar
    18    18    19   ar
    19    19    20   ar
    20    20    21    1
    21    21    22    1
    22    22    23    1
    23    23    24    1
    24    24    25    1
    25    24    26    1
    26    26    27    1
    27    20    28   ar
    28    28    29   ar
    29    15    30   ar
    30    30    31   ar
    31    31    32   ar
    32    32    33    1
    33    11     6   ar
    34    32    13   ar
    35    29    17   ar
    36    27    21    1
    37     1    34    1
    38     1    35    1
    39     1    36    1
    40     2    37    1
    41     2    38    1
    42    28    39    1
    43    29    40    1
    44    23    41    1
    45    23    42    1
    46    24    43    1
    47    25    44    1
    48    25    45    1
    49    25    46    1
    50    12    47    1
    51     8    48    1
    52     9    49    1
    53    10    50    1
    54    22    51    1
    55    22    52    1
    56    18    53    1
    57    19    54    1
    58    26    55    1
    59    26    56    1
    60    27    57    1
    61    27    58    1
    62    16    59    1
    63    31    60    1
    64     7    61    1
@<TRIPOS>SUBSTRUCTURE
     1 RES1        1 GROUP             0 ****  ****    0  
@<TRIPOS>CRYSIN
    1.0000    1.0000    1.0000   90.0000   90.0000   90.0000     1     1
@<TRIPOS>MOLECULE
ligand_23
    61    64     1     0     0
SMALL
USER_CHARGES
****
Generated from the CSD

@<TRIPOS>ATOM
     1 C1      -9.3165 -48.4701 -18.0583   C.3       1 RES1   0.0000
     2 C2      -8.6480 -49.8242 -18.2906   C.3       1 RES1   0.0000
     3 C3      -9.7262 -50.9088 -18.2311   C.2       1 RES1   0.0000
     4 O4     -10.8634 -50.6788 -17.9651   O.2       1 RES1   0.0000
     5 O5      -9.2750 -52.2212 -18.5141   O.3       1 RES1   0.0000
     6 C6     -10.2648 -53.2562 -18.4621   C.ar      1 RES1   0.0000
     7 C7     -10.8621 -53.7082 -19.6406   C.ar      1 RES1   0.0000
     8 C8     -11.8335 -54.7229 -19.5693   C.ar      1 RES1   0.0000
     9 C9     -12.1859 -55.2549 -18.3171   C.ar      1 RES1   0.0000
    10 C10    -11.5857 -54.7936 -17.1311   C.ar      1 RES1   0.0000
    11 C11    -10.6171 -53.7788 -17.2034   C.ar      1 RES1   0.0000
    12 N12     -9.9437 -53.2583 -15.9741   N.pl3     1 RES1   0.0000
    13 C13    -10.6120 -53.1263 -14.6741   C.ar      1 RES1   0.0000
    14 N14    -11.9181 -53.3909 -14.5564   N.ar      1 RES1   0.0000
    15 C15    -12.5248 -53.2747 -13.3846   C.ar      1 RES1   0.0000
    16 N16    -13.9557 -53.5562 -13.2446   N.pl3     1 RES1   0.0000
    17 C17    -14.8458 -53.8327 -14.3874   C.ar      1 RES1   0.0000
    18 C18    -16.1789 -54.1139 -14.1346   C.ar      1 RES1   0.0000
    19 C19    -17.0562 -54.3726 -15.1969   C.ar      1 RES1   0.0000
    20 C20    -16.5888 -54.3493 -16.5069   C.ar      1 RES1   0.0000
    21 N21    -17.5333 -54.6307 -17.6168   N.pl3     1 RES1   0.0000
    22 C22    -18.6524 -55.5623 -17.5176   C.3       1 RES1   0.0000
    23 C23    -19.8261 -55.0466 -18.3136   C.3       1 RES1   0.0000
    24 N24    -19.4378 -54.8046 -19.7343   N.4       1 RES1   1.0000
    25 C25    -20.4505 -54.3669 -20.3835   C.3       1 RES1   0.0000
    26 C26    -18.2519 -53.9012 -19.8092   C.3       1 RES1   0.0000
    27 C27    -17.1056 -54.4511 -18.9977   C.3       1 RES1   0.0000
    28 C28    -15.2532 -54.0673 -16.7655   C.ar      1 RES1   0.0000
    29 C29    -14.3805 -53.8041 -15.7016   C.ar      1 RES1   0.0000
    30 N30    -11.8810 -52.9119 -12.3040   N.ar      1 RES1   0.0000
    31 C31    -10.5835 -52.6336 -12.3289   C.ar      1 RES1   0.0000
    32 C32     -9.9116 -52.7406 -13.5476   C.ar      1 RES1   0.0000
    33 Cl33    -8.1753 -52.3740 -13.6078   Cl        1 RES1   0.0000
    34 H1     -12.9387 -56.0400 -18.2637   H         1 RES1   0.0000
    35 H2     -11.8686 -55.2181 -16.1689   H         1 RES1   0.0000
    36 H3     -13.3346 -53.5763 -15.9018   H         1 RES1   0.0000
    37 H4     -19.1730 -55.6970 -20.1390   H         1 RES1   0.0000
    38 H5     -20.7931 -53.4349 -19.9365   H         1 RES1   0.0000
    39 H6     -20.1682 -54.1900 -21.4203   H         1 RES1   0.0000
    40 H7     -21.2517 -55.1035 -20.3460   H         1 RES1   0.0000
    41 H8     -18.1039 -54.5919 -14.9966   H         1 RES1   0.0000
    42 H9     -18.9430 -55.6668 -16.4733   H         1 RES1   0.0000
    43 H10    -18.3497 -56.5324 -17.9090   H         1 RES1   0.0000
    44 H11    -20.1727 -54.1124 -17.8741   H         1 RES1   0.0000
    45 H12    -20.6288 -55.7819 -18.2832   H         1 RES1   0.0000
    46 H13    -14.3556 -53.5612 -12.3117   H         1 RES1   0.0000
    47 H14    -16.5455 -54.1339 -13.1094   H         1 RES1   0.0000
    48 H15    -18.5252 -52.9208 -19.4218   H         1 RES1   0.0000
    49 H16    -17.9404 -53.8069 -20.8484   H         1 RES1   0.0000
    50 H17    -16.7958 -55.4103 -19.4099   H         1 RES1   0.0000
    51 H18    -16.2693 -53.7544 -19.0314   H         1 RES1   0.0000
    52 H19    -14.8863 -54.0509 -17.7907   H         1 RES1   0.0000
    53 H20    -10.0582 -52.3305 -11.4244   H         1 RES1   0.0000
    54 H21     -9.7973 -48.4655 -17.0812   H         1 RES1   0.0000
    55 H22     -8.5650 -47.6829 -18.0968   H         1 RES1   0.0000
    56 H23    -10.0637 -48.2968 -18.8314   H         1 RES1   0.0000
    57 H24     -7.9019 -50.0039 -17.5180   H         1 RES1   0.0000
    58 H25     -8.1682 -49.8351 -19.2681   H         1 RES1   0.0000
    59 H26     -8.9698 -52.9807 -16.0425   H         1 RES1   0.0000
    60 H27    -10.5797 -53.2809 -20.6017   H         1 RES1   0.0000
    61 H28    -12.3085 -55.0931 -20.4766   H         1 RES1   0.0000
@<TRIPOS>BOND
     1     1     2    1
     2     2     3    1
     3     3     4    2
     4     3     5    1
     5     5     6    1
     6     6     7   ar
     7     7     8   ar
     8     8     9   ar
     9     9    10   ar
    10    10    11   ar
    11    11    12    1
    12    12    13    1
    13    13    14   ar
    14    14    15   ar
    15    15    16    1
    16    16    17    1
    17    17    18   ar
    18    18    19   ar
    19    19    20   ar
    20    20    21    1
    21    21    22    1
    22    22    23    1
    23    23    24    1
    24    24    25    1
    25    24    26    1
    26    26    27    1
    27    20    28   ar
    28    28    29   ar
    29    15    30   ar
    30    30    31   ar
    31    31    32   ar
    32    32    33    1
    33    11     6   ar
    34    32    13   ar
    35    29    17   ar
    36    27    21    1
    37     9    34    1
    38    10    35    1
    39    29    36    1
    40    24    37    1
    41    25    38    1
    42    25    39    1
    43    25    40    1
    44    19    41    1
    45    22    42    1
    46    22    43    1
    47    23    44    1
    48    23    45    1
    49    16    46    1
    50    18    47    1
    51    26    48    1
    52    26    49    1
    53    27    50    1
    54    27    51    1
    55    28    52    1
    56    31    53    1
    57     1    54    1
    58     1    55    1
    59     1    56    1
    60     2    57    1
    61     2    58    1
    62    12    59    1
    63     7    60    1
    64     8    61    1
@<TRIPOS>SUBSTRUCTURE
     1 RES1        1 GROUP             0 ****  ****    0  
@<TRIPOS>CRYSIN
    1.0000    1.0000    1.0000   90.0000   90.0000   90.0000     1     1
@<TRIPOS>MOLECULE
ligand_24
    61    64     1     0     0
SMALL
USER_CHARGES
****
Generated from the CSD

@<TRIPOS>ATOM
     1 C1      -8.0812 -48.9053 -18.0598   C.3       1 RES1   0.0000
     2 C2      -7.7901 -50.3877 -18.2878   C.3       1 RES1   0.0000
     3 C3      -9.1161 -51.1505 -18.2405   C.2       1 RES1   0.0000
     4 O4     -10.1553 -50.6293 -17.9851   O.2       1 RES1   0.0000
     5 O5      -9.0231 -52.5356 -18.5212   O.3       1 RES1   0.0000
     6 C6     -10.2508 -53.2739 -18.4804   C.ar      1 RES1   0.0000
     7 C7     -10.5732 -54.0269 -17.3494   C.ar      1 RES1   0.0000
     8 C8     -11.7812 -54.7469 -17.3291   C.ar      1 RES1   0.0000
     9 C9     -12.6330 -54.6987 -18.4458   C.ar      1 RES1   0.0000
    10 C10    -12.3026 -53.9430 -19.5858   C.ar      1 RES1   0.0000
    11 C11    -11.0950 -53.2257 -19.6058   C.ar      1 RES1   0.0000
    12 N12    -10.7002 -52.4015 -20.7891   N.pl3     1 RES1   0.0000
    13 C13    -11.0078 -52.7694 -22.1763   C.ar      1 RES1   0.0000
    14 N14    -11.5941 -53.9404 -22.4501   N.ar      1 RES1   0.0000
    15 C15    -11.8749 -54.2756 -23.7004   C.ar      1 RES1   0.0000
    16 N16    -12.5117 -55.5575 -24.0131   N.pl3     1 RES1   0.0000
    17 C17    -12.7445 -56.6154 -23.0124   C.ar      1 RES1   0.0000
    18 C18    -13.3819 -57.7779 -23.4150   C.ar      1 RES1   0.0000
    19 C19    -13.6119 -58.8086 -22.4932   C.ar      1 RES1   0.0000
    20 C20    -13.2020 -58.6646 -21.1716   C.ar      1 RES1   0.0000
    21 N21    -13.4595 -59.7660 -20.2106   N.pl3     1 RES1   0.0000
    22 C22    -14.6302 -60.6360 -20.2631   C.3       1 RES1   0.0000
    23 C23    -14.2529 -62.0359 -19.8446   C.3       1 RES1   0.0000
    24 N24    -13.6310 -62.0340 -18.4878   N.4       1 RES1   1.0000
    25 C25    -13.3202 -63.2320 -18.1607   C.3       1 RES1   0.0000
    26 C26    -12.4762 -61.0894 -18.4394   C.3       1 RES1   0.0000
    27 C27    -12.8957 -59.7058 -18.8687   C.3       1 RES1   0.0000
    28 C28    -12.5619 -57.5012 -20.7633   C.ar      1 RES1   0.0000
    29 C29    -12.3291 -56.4753 -21.6886   C.ar      1 RES1   0.0000
    30 N30    -11.6053 -53.4837 -24.7073   N.ar      1 RES1   0.0000
    31 C31    -11.0276 -52.3024 -24.5268   C.ar      1 RES1   0.0000
    32 C32    -10.7127 -51.9173 -23.2227   C.ar      1 RES1   0.0000
    33 Cl33    -9.9395 -50.3416 -22.9540   Cl        1 RES1   0.0000
    34 H1     -12.9748 -53.9146 -20.4421   H         1 RES1   0.0000
    35 H2     -10.1909 -51.5392 -20.6239   H         1 RES1   0.0000
    36 H3     -12.6127 -63.6339 -18.8844   H         1 RES1   0.0000
    37 H4     -12.8663 -63.2319 -17.1708   H         1 RES1   0.0000
    38 H5     -14.2172 -63.8493 -18.1486   H         1 RES1   0.0000
    39 H6     -11.6938 -61.4480 -19.1065   H         1 RES1   0.0000
    40 H7     -12.0932 -61.0461 -17.4209   H         1 RES1   0.0000
    41 H8     -13.6441 -59.3220 -18.1770   H         1 RES1   0.0000
    42 H9     -12.0288 -59.0467 -18.8680   H         1 RES1   0.0000
    43 H10    -12.8083 -55.7264 -24.9690   H         1 RES1   0.0000
    44 H11    -10.8057 -51.6524 -25.3719   H         1 RES1   0.0000
    45 H12    -13.7046 -57.8910 -24.4489   H         1 RES1   0.0000
    46 H13    -14.1116 -59.7223 -22.8117   H         1 RES1   0.0000
    47 H14    -15.0190 -60.6562 -21.2801   H         1 RES1   0.0000
    48 H15    -15.3951 -60.2522 -19.5896   H         1 RES1   0.0000
    49 H16    -12.2425 -57.3871 -19.7285   H         1 RES1   0.0000
    50 H17    -11.8218 -55.5649 -21.3728   H         1 RES1   0.0000
    51 H18     -9.8986 -54.0562 -16.4950   H         1 RES1   0.0000
    52 H19    -13.5427 -62.4439 -20.5623   H         1 RES1   0.0000
    53 H20    -15.1476 -62.6565 -19.8264   H         1 RES1   0.0000
    54 H21    -14.3284 -61.7042 -17.8282   H         1 RES1   0.0000
    55 H22     -8.5534 -48.7735 -17.0874   H         1 RES1   0.0000
    56 H23     -7.1488 -48.3435 -18.0897   H         1 RES1   0.0000
    57 H24     -8.7489 -48.5423 -18.8398   H         1 RES1   0.0000
    58 H25     -7.1251 -50.7565 -17.5083   H         1 RES1   0.0000
    59 H26     -7.3205 -50.5254 -19.2607   H         1 RES1   0.0000
    60 H27    -12.0542 -55.3368 -16.4554   H         1 RES1   0.0000
    61 H28    -13.5676 -55.2575 -18.4285   H         1 RES1   0.0000
@<TRIPOS>BOND
     1     1     2    1
     2     2     3    1
     3     3     4    2
     4     3     5    1
     5     5     6    1
     6     6     7   ar
     7     7     8   ar
     8     8     9   ar
     9     9    10   ar
    10    10    11   ar
    11    11    12    1
    12    12    13    1
    13    13    14   ar
    14    14    15   ar
    15    15    16    1
    16    16    17    1
    17    17    18   ar
    18    18    19   ar
    19    19    20   ar
    20    20    21    1
    21    21    22    1
    22    22    23    1
    23    23    24    1
    24    24    25    1
    25    24    26    1
    26    26    27    1
    27    20    28   ar
    28    28    29   ar
    29    15    30   ar
    30    30    31   ar
    31    31    32   ar
    32    32    33    1
    33    11     6   ar
    34    32    13   ar
    35    29    17   ar
    36    27    21    1
    37    10    34    1
    38    12    35    1
    39    25    36    1
    40    25    37    1
    41    25    38    1
    42    26    39    1
    43    26    40    1
    44    27    41    1
    45    27    42    1
    46    16    43    1
    47    31    44    1
    48    18    45    1
    49    19    46    1
    50    22    47    1
    51    22    48    1
    52    28    49    1
    53    29    50    1
    54     7    51    1
    55    23    52    1
    56    23    53    1
    57    24    54    1
    58     1    55    1
    59     1    56    1
    60     1    57    1
    61     2    58    1
    62     2    59    1
    63     8    60    1
    64     9    61    1
@<TRIPOS>SUBSTRUCTURE
     1 RES1        1 GROUP             0 ****  ****    0  
@<TRIPOS>CRYSIN
    1.0000    1.0000    1.0000   90.0000   90.0000   90.0000     1     1
@<TRIPOS>MOLECULE
ligand_25
    61    64     1     0     0
SMALL
USER_CHARGES
****
Generated from the CSD

@<TRIPOS>ATOM
     1 C1      -8.5592 -48.6157 -18.0342   C.3       1 RES1   0.0000
     2 C2      -8.0871 -50.0566 -18.2218   C.3       1 RES1   0.0000
     3 C3      -9.3164 -50.9683 -18.2257   C.2       1 RES1   0.0000
     4 O4     -10.4206 -50.5690 -18.0303   O.2       1 RES1   0.0000
     5 O5      -9.0495 -52.3363 -18.4774   O.3       1 RES1   0.0000
     6 C6     -10.1819 -53.2146 -18.4683   C.ar      1 RES1   0.0000
     7 C7     -10.9575 -53.3388 -17.3138   C.ar      1 RES1   0.0000
     8 C8     -12.0634 -54.2078 -17.3232   C.ar      1 RES1   0.0000
     9 C9     -12.3604 -54.9351 -18.4885   C.ar      1 RES1   0.0000
    10 C10    -11.5738 -54.8114 -19.6485   C.ar      1 RES1   0.0000
    11 C11    -10.4684 -53.9446 -19.6373   C.ar      1 RES1   0.0000
    12 N12     -9.6047 -53.7710 -20.8454   N.pl3     1 RES1   0.0000
    13 C13     -9.8118 -54.4958 -22.1048   C.ar      1 RES1   0.0000
    14 N14    -10.8126 -55.3759 -22.2206   N.ar      1 RES1   0.0000
    15 C15    -11.0040 -56.0309 -23.3559   C.ar      1 RES1   0.0000
    16 N16    -12.0931 -57.0013 -23.4928   N.pl3     1 RES1   0.0000
    17 C17    -12.3929 -57.7156 -24.7476   C.ar      1 RES1   0.0000
    18 C18    -12.8620 -59.0172 -24.6719   C.ar      1 RES1   0.0000
    19 C19    -13.1661 -59.7239 -25.8437   C.ar      1 RES1   0.0000
    20 C20    -12.9952 -59.1196 -27.0850   C.ar      1 RES1   0.0000
    21 N21    -13.3185 -59.8871 -28.3135   N.pl3     1 RES1   0.0000
    22 C22    -12.7586 -59.5929 -29.6289   C.3       1 RES1   0.0000
    23 C23    -12.5298 -60.8747 -30.3916   C.3       1 RES1   0.0000
    24 N24    -13.7937 -61.6617 -30.4967   N.4       1 RES1   1.0000
    25 C25    -13.5693 -62.7421 -31.1456   C.3       1 RES1   0.0000
    26 C26    -14.3824 -61.8951 -29.1450   C.3       1 RES1   0.0000
    27 C27    -14.5899 -60.5907 -28.4169   C.3       1 RES1   0.0000
    28 C28    -12.5257 -57.8146 -27.1661   C.ar      1 RES1   0.0000
    29 C29    -12.2278 -57.1096 -25.9926   C.ar      1 RES1   0.0000
    30 N30    -10.2409 -55.8410 -24.4025   N.ar      1 RES1   0.0000
    31 C31     -9.2275 -54.9844 -24.3771   C.ar      1 RES1   0.0000
    32 C32     -8.9924 -54.2793 -23.1956   C.ar      1 RES1   0.0000
    33 Cl33    -7.6428 -53.1269 -23.1356   Cl        1 RES1   0.0000
    34 H1     -13.7076 -62.5236 -28.5657   H         1 RES1   0.0000
    35 H2     -15.3418 -62.3983 -29.2558   H         1 RES1   0.0000
    36 H3     -15.3014 -59.9766 -28.9671   H         1 RES1   0.0000
    37 H4     -14.9775 -60.7893 -27.4188   H         1 RES1   0.0000
    38 H5     -12.3898 -57.3417 -28.1376   H         1 RES1   0.0000
    39 H6     -10.7095 -52.7706 -16.4185   H         1 RES1   0.0000
    40 H7     -12.6842 -54.3161 -16.4351   H         1 RES1   0.0000
    41 H8     -12.6718 -57.1920 -22.6811   H         1 RES1   0.0000
    42 H9     -12.9946 -59.4918 -23.7008   H         1 RES1   0.0000
    43 H10    -13.5362 -60.7462 -25.7823   H         1 RES1   0.0000
    44 H11    -14.4573 -61.1113 -31.0323   H         1 RES1   0.0000
    45 H12    -12.8171 -63.3304 -30.6221   H         1 RES1   0.0000
    46 H13    -14.4908 -63.3172 -31.2229   H         1 RES1   0.0000
    47 H14    -13.2090 -62.4978 -32.1438   H         1 RES1   0.0000
    48 H15     -8.8319 -53.1152 -20.7916   H         1 RES1   0.0000
    49 H16     -9.0919 -48.5285 -17.0884   H         1 RES1   0.0000
    50 H17     -7.6979 -47.9493 -18.0286   H         1 RES1   0.0000
    51 H18     -9.2244 -48.3423 -18.8520   H         1 RES1   0.0000
    52 H19     -7.4239 -50.3362 -17.4045   H         1 RES1   0.0000
    53 H20     -7.5564 -50.1500 -19.1681   H         1 RES1   0.0000
    54 H21    -13.2166 -55.6080 -18.4937   H         1 RES1   0.0000
    55 H22    -11.8189 -55.3806 -20.5440   H         1 RES1   0.0000
    56 H23    -11.8659 -56.0843 -26.0530   H         1 RES1   0.0000
    57 H24     -8.5975 -54.8359 -25.2529   H         1 RES1   0.0000
    58 H25    -11.8105 -59.0708 -29.5086   H         1 RES1   0.0000
    59 H26    -13.4523 -58.9625 -30.1832   H         1 RES1   0.0000
    60 H27    -11.7805 -61.4703 -29.8722   H         1 RES1   0.0000
    61 H28    -12.1737 -60.6358 -31.3926   H         1 RES1   0.0000
@<TRIPOS>BOND
     1     1     2    1
     2     2     3    1
     3     3     4    2
     4     3     5    1
     5     5     6    1
     6     6     7   ar
     7     7     8   ar
     8     8     9   ar
     9     9    10   ar
    10    10    11   ar
    11    11    12    1
    12    12    13    1
    13    13    14   ar
    14    14    15   ar
    15    15    16    1
    16    16    17    1
    17    17    18   ar
    18    18    19   ar
    19    19    20   ar
    20    20    21    1
    21    21    22    1
    22    22    23    1
    23    23    24    1
    24    24    25    1
    25    24    26    1
    26    26    27    1
    27    20    28   ar
    28    28    29   ar
    29    15    30   ar
    30    30    31   ar
    31    31    32   ar
    32    32    33    1
    33    11     6   ar
    34    32    13   ar
    35    29    17   ar
    36    27    21    1
    37    26    34    1
    38    26    35    1
    39    27    36    1
    40    27    37    1
    41    28    38    1
    42     7    39    1
    43     8    40    1
    44    16    41    1
    45    18    42    1
    46    19    43    1
    47    24    44    1
    48    25    45    1
    49    25    46    1
    50    25    47    1
    51    12    48    1
    52     1    49    1
    53     1    50    1
    54     1    51    1
    55     2    52    1
    56     2    53    1
    57     9    54    1
    58    10    55    1
    59    29    56    1
    60    31    57    1
    61    22    58    1
    62    22    59    1
    63    23    60    1
    64    23    61    1
@<TRIPOS>SUBSTRUCTURE
     1 RES1        1 GROUP             0 ****  ****    0  
@<TRIPOS>CRYSIN
    1.0000    1.0000    1.0000   90.0000   90.0000   90.0000     1     1
@<TRIPOS>MOLECULE
ligand_26
    61    64     1     0     0
SMALL
USER_CHARGES
****
Generated from the CSD

@<TRIPOS>ATOM
     1 C1      -8.9909 -48.4868 -17.9713   C.3       1 RES1   0.0000
     2 C2      -8.4069 -49.8767 -18.2193   C.3       1 RES1   0.0000
     3 C3      -9.5522 -50.8914 -18.1891   C.2       1 RES1   0.0000
     4 O4     -10.6755 -50.5941 -17.9311   O.2       1 RES1   0.0000
     5 O5      -9.1817 -52.2251 -18.4893   O.3       1 RES1   0.0000
     6 C6     -10.2356 -53.1959 -18.4649   C.ar      1 RES1   0.0000
     7 C7     -10.8468 -53.5902 -19.6570   C.ar      1 RES1   0.0000
     8 C8     -11.8812 -54.5422 -19.6127   C.ar      1 RES1   0.0000
     9 C9     -12.2809 -55.0707 -18.3733   C.ar      1 RES1   0.0000
    10 C10    -11.6663 -54.6675 -17.1736   C.ar      1 RES1   0.0000
    11 C11    -10.6346 -53.7153 -17.2189   C.ar      1 RES1   0.0000
    12 N12     -9.9437 -53.2583 -15.9741   N.pl3     1 RES1   0.0000
    13 C13    -10.6120 -53.1263 -14.6741   C.ar      1 RES1   0.0000
    14 N14    -11.9181 -53.3909 -14.5564   N.ar      1 RES1   0.0000
    15 C15    -12.5248 -53.2747 -13.3846   C.ar      1 RES1   0.0000
    16 N16    -13.9557 -53.5562 -13.2446   N.pl3     1 RES1   0.0000
    17 C17    -14.7033 -53.3638 -11.9881   C.ar      1 RES1   0.0000
    18 C18    -14.3722 -52.2883 -11.1796   C.ar      1 RES1   0.0000
    19 C19    -15.0676 -52.0689  -9.9824   C.ar      1 RES1   0.0000
    20 C20    -16.0902 -52.9324  -9.6033   C.ar      1 RES1   0.0000
    21 N21    -16.8107 -52.6849  -8.3294   N.pl3     1 RES1   0.0000
    22 C22    -18.2333 -52.9462  -8.1341   C.3       1 RES1   0.0000
    23 C23    -18.4803 -53.4368  -6.7286   C.3       1 RES1   0.0000
    24 N24    -17.9590 -52.4605  -5.7271   N.4       1 RES1   1.0000
    25 C25    -18.1804 -52.9032  -4.5465   C.3       1 RES1   0.0000
    26 C26    -16.5201 -52.1591  -5.9854   C.3       1 RES1   0.0000
    27 C27    -16.3178 -51.6771  -7.4002   C.3       1 RES1   0.0000
    28 C28    -16.4263 -54.0117 -10.4108   C.ar      1 RES1   0.0000
    29 C29    -15.7326 -54.2249 -11.6093   C.ar      1 RES1   0.0000
    30 N30    -11.8810 -52.9119 -12.3040   N.ar      1 RES1   0.0000
    31 C31    -10.5835 -52.6336 -12.3289   C.ar      1 RES1   0.0000
    32 C32     -9.9116 -52.7406 -13.5476   C.ar      1 RES1   0.0000
    33 Cl33    -8.1753 -52.3740 -13.6078   Cl        1 RES1   0.0000
    34 H1     -10.0582 -52.3305 -11.4244   H         1 RES1   0.0000
    35 H2     -18.5613 -53.7045  -8.8435   H         1 RES1   0.0000
    36 H3     -18.7946 -52.0277  -8.2992   H         1 RES1   0.0000
    37 H4     -17.9773 -54.3928  -6.5906   H         1 RES1   0.0000
    38 H5     -19.5512 -53.5650  -6.5783   H         1 RES1   0.0000
    39 H6     -18.4806 -51.5967  -5.8365   H         1 RES1   0.0000
    40 H7      -8.9572 -53.0264 -16.0314   H         1 RES1   0.0000
    41 H8     -17.6772 -53.8603  -4.4174   H         1 RES1   0.0000
    42 H9     -17.8005 -52.1917  -3.8148   H         1 RES1   0.0000
    43 H10    -19.2519 -53.0342  -4.4030   H         1 RES1   0.0000
    44 H11    -15.9327 -53.0626  -5.8289   H         1 RES1   0.0000
    45 H12    -16.1879 -51.3859  -5.2942   H         1 RES1   0.0000
    46 H13    -16.8646 -50.7472  -7.5490   H         1 RES1   0.0000
    47 H14    -15.2570 -51.5068  -7.5779   H         1 RES1   0.0000
    48 H15    -14.8072 -51.2222  -9.3489   H         1 RES1   0.0000
    49 H16    -13.0825 -55.8071 -18.3409   H         1 RES1   0.0000
    50 H17    -11.9865 -55.0884 -16.2216   H         1 RES1   0.0000
    51 H18    -10.5269 -53.1664 -20.6078   H         1 RES1   0.0000
    52 H19    -12.3682 -54.8670 -20.5310   H         1 RES1   0.0000
    53 H20    -14.4591 -53.9019 -14.0553   H         1 RES1   0.0000
    54 H21    -13.5707 -51.6126 -11.4746   H         1 RES1   0.0000
    55 H22    -17.2255 -54.6891 -10.1136   H         1 RES1   0.0000
    56 H23    -15.9983 -55.0664 -12.2475   H         1 RES1   0.0000
    57 H24     -9.4815 -48.4674 -16.9993   H         1 RES1   0.0000
    58 H25     -8.1907 -47.7484 -17.9888   H         1 RES1   0.0000
    59 H26     -9.7167 -48.2540 -18.7490   H         1 RES1   0.0000
    60 H27     -7.6825 -50.1158 -17.4421   H         1 RES1   0.0000
    61 H28     -7.9177 -49.9024 -19.1919   H         1 RES1   0.0000
@<TRIPOS>BOND
     1     1     2    1
     2     2     3    1
     3     3     4    2
     4     3     5    1
     5     5     6    1
     6     6     7   ar
     7     7     8   ar
     8     8     9   ar
     9     9    10   ar
    10    10    11   ar
    11    11    12    1
    12    12    13    1
    13    13    14   ar
    14    14    15   ar
    15    15    16    1
    16    16    17    1
    17    17    18   ar
    18    18    19   ar
    19    19    20   ar
    20    20    21    1
    21    21    22    1
    22    22    23    1
    23    23    24    1
    24    24    25    1
    25    24    26    1
    26    26    27    1
    27    20    28   ar
    28    28    29   ar
    29    15    30   ar
    30    30    31   ar
    31    31    32   ar
    32    32    33    1
    33    11     6   ar
    34    32    13   ar
    35    29    17   ar
    36    27    21    1
    37    31    34    1
    38    22    35    1
    39    22    36    1
    40    23    37    1
    41    23    38    1
    42    24    39    1
    43    12    40    1
    44    25    41    1
    45    25    42    1
    46    25    43    1
    47    26    44    1
    48    26    45    1
    49    27    46    1
    50    27    47    1
    51    19    48    1
    52     9    49    1
    53    10    50    1
    54     7    51    1
    55     8    52    1
    56    16    53    1
    57    18    54    1
    58    28    55    1
    59    29    56    1
    60     1    57    1
    61     1    58    1
    62     1    59    1
    63     2    60    1
    64     2    61    1
@<TRIPOS>SUBSTRUCTURE
     1 RES1        1 GROUP             0 ****  ****    0  
@<TRIPOS>CRYSIN
    1.0000    1.0000    1.0000   90.0000   90.0000   90.0000     1     1
@<TRIPOS>MOLECULE
ligand_27
    61    64     1     0     0
SMALL
USER_CHARGES
****
Generated from the CSD

@<TRIPOS>ATOM
     1 C1      -8.3067 -48.7594 -18.0435   C.3       1 RES1   0.0000
     2 C2      -7.9197 -50.2179 -18.2828   C.3       1 RES1   0.0000
     3 C3      -9.1925 -51.0665 -18.2367   C.2       1 RES1   0.0000
     4 O4     -10.2628 -50.6165 -17.9745   O.2       1 RES1   0.0000
     5 O5      -9.0098 -52.4406 -18.5275   O.3       1 RES1   0.0000
     6 C6     -10.1861 -53.2582 -18.4881   C.ar      1 RES1   0.0000
     7 C7     -10.4543 -54.0384 -17.3614   C.ar      1 RES1   0.0000
     8 C8     -11.6123 -54.8364 -17.3423   C.ar      1 RES1   0.0000
     9 C9     -12.4695 -54.8366 -18.4560   C.ar      1 RES1   0.0000
    10 C10    -12.1936 -54.0531 -19.5916   C.ar      1 RES1   0.0000
    11 C11    -11.0358 -53.2579 -19.6104   C.ar      1 RES1   0.0000
    12 N12    -10.7002 -52.4015 -20.7891   N.pl3     1 RES1   0.0000
    13 C13    -11.0078 -52.7694 -22.1763   C.ar      1 RES1   0.0000
    14 N14    -11.5941 -53.9404 -22.4501   N.ar      1 RES1   0.0000
    15 C15    -11.8749 -54.2756 -23.7004   C.ar      1 RES1   0.0000
    16 N16    -12.5117 -55.5575 -24.0131   N.pl3     1 RES1   0.0000
    17 C17    -12.7715 -56.0225 -25.3882   C.ar      1 RES1   0.0000
    18 C18    -11.8432 -55.7259 -26.3732   C.ar      1 RES1   0.0000
    19 C19    -12.0526 -56.1595 -27.6897   C.ar      1 RES1   0.0000
    20 C20    -13.1944 -56.8870 -28.0094   C.ar      1 RES1   0.0000
    21 N21    -13.3993 -57.3326 -29.4103   N.pl3     1 RES1   0.0000
    22 C22    -14.0265 -58.5978 -29.7793   C.3       1 RES1   0.0000
    23 C23    -14.8464 -58.4215 -31.0338   C.3       1 RES1   0.0000
    24 N24    -14.0076 -57.8806 -32.1436   N.4       1 RES1   1.0000
    25 C25    -14.7285 -57.7401 -33.1921   C.3       1 RES1   0.0000
    26 C26    -13.3252 -56.6217 -31.7221   C.3       1 RES1   0.0000
    27 C27    -12.5221 -56.8412 -30.4645   C.3       1 RES1   0.0000
    28 C28    -14.1278 -57.1875 -27.0252   C.ar      1 RES1   0.0000
    29 C29    -13.9126 -56.7568 -25.7095   C.ar      1 RES1   0.0000
    30 N30    -11.6053 -53.4837 -24.7073   N.ar      1 RES1   0.0000
    31 C31    -11.0276 -52.3024 -24.5268   C.ar      1 RES1   0.0000
    32 C32    -10.7127 -51.9173 -23.2227   C.ar      1 RES1   0.0000
    33 Cl33    -9.9395 -50.3416 -22.9540   Cl        1 RES1   0.0000
    34 H1     -10.2335 -51.5161 -20.6205   H         1 RES1   0.0000
    35 H2     -11.7391 -57.5733 -30.6565   H         1 RES1   0.0000
    36 H3     -12.0708 -55.9004 -30.1527   H         1 RES1   0.0000
    37 H4     -15.0228 -57.7553 -27.2753   H         1 RES1   0.0000
    38 H5     -14.6393 -56.9964 -24.9347   H         1 RES1   0.0000
    39 H6     -10.9498 -55.1552 -26.1243   H         1 RES1   0.0000
    40 H7     -11.3213 -55.9268 -28.4623   H         1 RES1   0.0000
    41 H8     -14.6742 -58.9290 -28.9689   H         1 RES1   0.0000
    42 H9     -13.2543 -59.3452 -29.9554   H         1 RES1   0.0000
    43 H10    -15.6623 -57.7288 -30.8327   H         1 RES1   0.0000
    44 H11    -15.2544 -59.3861 -31.3321   H         1 RES1   0.0000
    45 H12    -13.2895 -58.5671 -32.3516   H         1 RES1   0.0000
    46 H13     -8.7831 -48.6655 -17.0687   H         1 RES1   0.0000
    47 H14     -7.4133 -48.1374 -18.0724   H         1 RES1   0.0000
    48 H15     -8.9996 -48.4358 -18.8188   H         1 RES1   0.0000
    49 H16     -7.2291 -50.5475 -17.5080   H         1 RES1   0.0000
    50 H17     -7.4456 -50.3178 -19.2581   H         1 RES1   0.0000
    51 H18    -12.7887 -56.1572 -23.2425   H         1 RES1   0.0000
    52 H19    -15.5435 -57.0490 -32.9823   H         1 RES1   0.0000
    53 H20    -14.1175 -57.3455 -34.0025   H         1 RES1   0.0000
    54 H21    -15.1378 -58.7063 -33.4834   H         1 RES1   0.0000
    55 H22    -14.0752 -55.8541 -31.5370   H         1 RES1   0.0000
    56 H23    -12.6587 -56.2934 -32.5183   H         1 RES1   0.0000
    57 H24    -12.8694 -54.0630 -20.4455   H         1 RES1   0.0000
    58 H25    -10.8057 -51.6524 -25.3719   H         1 RES1   0.0000
    59 H26     -9.7762 -54.0291 -16.5093   H         1 RES1   0.0000
    60 H27    -11.8427 -55.4489 -16.4719   H         1 RES1   0.0000
    61 H28    -13.3653 -55.4556 -18.4397   H         1 RES1   0.0000
@<TRIPOS>BOND
     1     1     2    1
     2     2     3    1
     3     3     4    2
     4     3     5    1
     5     5     6    1
     6     6     7   ar
     7     7     8   ar
     8     8     9   ar
     9     9    10   ar
    10    10    11   ar
    11    11    12    1
    12    12    13    1
    13    13    14   ar
    14    14    15   ar
    15    15    16    1
    16    16    17    1
    17    17    18   ar
    18    18    19   ar
    19    19    20   ar
    20    20    21    1
    21    21    22    1
    22    22    23    1
    23    23    24    1
    24    24    25    1
    25    24    26    1
    26    26    27    1
    27    20    28   ar
    28    28    29   ar
    29    15    30   ar
    30    30    31   ar
    31    31    32   ar
    32    32    33    1
    33    11     6   ar
    34    32    13   ar
    35    29    17   ar
    36    27    21    1
    37    12    34    1
    38    27    35    1
    39    27    36    1
    40    28    37    1
    41    29    38    1
    42    18    39    1
    43    19    40    1
    44    22    41    1
    45    22    42    1
    46    23    43    1
    47    23    44    1
    48    24    45    1
    49     1    46    1
    50     1    47    1
    51     1    48    1
    52     2    49    1
    53     2    50    1
    54    16    51    1
    55    25    52    1
    56    25    53    1
    57    25    54    1
    58    26    55    1
    59    26    56    1
    60    10    57    1
    61    31    58    1
    62     7    59    1
    63     8    60    1
    64     9    61    1
@<TRIPOS>SUBSTRUCTURE
     1 RES1        1 GROUP             0 ****  ****    0  
@<TRIPOS>CRYSIN
    1.0000    1.0000    1.0000   90.0000   90.0000   90.0000     1     1
@<TRIPOS>MOLECULE
ligand_28
    61    64     1     0     0
SMALL
USER_CHARGES
****
Generated from the CSD

@<TRIPOS>ATOM
     1 C1      -9.0269 -48.4892 -17.8864   C.3       1 RES1   0.0000
     2 C2      -8.4295 -49.8801 -18.0933   C.3       1 RES1   0.0000
     3 C3      -9.5756 -50.8934 -18.1375   C.2       1 RES1   0.0000
     4 O4     -10.7132 -50.5943 -17.9547   O.2       1 RES1   0.0000
     5 O5      -9.1879 -52.2280 -18.4107   O.3       1 RES1   0.0000
     6 C6     -10.2424 -53.1975 -18.4546   C.ar      1 RES1   0.0000
     7 C7     -10.4831 -54.0150 -17.3484   C.ar      1 RES1   0.0000
     8 C8     -11.5207 -54.9625 -17.4113   C.ar      1 RES1   0.0000
     9 C9     -12.2872 -55.0706 -18.5843   C.ar      1 RES1   0.0000
    10 C10    -12.0386 -54.2487 -19.6989   C.ar      1 RES1   0.0000
    11 C11    -11.0009 -53.3040 -19.6356   C.ar      1 RES1   0.0000
    12 N12    -10.7002 -52.4015 -20.7891   N.pl3     1 RES1   0.0000
    13 C13    -11.7216 -51.8933 -21.7126   C.ar      1 RES1   0.0000
    14 N14    -13.0104 -52.2020 -21.5301   N.ar      1 RES1   0.0000
    15 C15    -13.9355 -51.7441 -22.3602   C.ar      1 RES1   0.0000
    16 N16    -15.3494 -52.0799 -22.1738   N.pl3     1 RES1   0.0000
    17 C17    -16.4127 -51.6714 -23.1104   C.ar      1 RES1   0.0000
    18 C18    -16.1274 -51.6497 -24.4662   C.ar      1 RES1   0.0000
    19 C19    -17.1163 -51.2752 -25.3865   C.ar      1 RES1   0.0000
    20 C20    -18.3855 -50.9228 -24.9393   C.ar      1 RES1   0.0000
    21 N21    -19.4167 -50.5250 -25.9300   N.pl3     1 RES1   0.0000
    22 C22    -20.8371 -50.8325 -25.7955   C.3       1 RES1   0.0000
    23 C23    -21.6658 -49.6953 -26.3404   C.3       1 RES1   0.0000
    24 N24    -21.2992 -49.4038 -27.7576   N.4       1 RES1   1.0000
    25 C25    -22.0154 -48.4357 -28.1918   C.3       1 RES1   0.0000
    26 C26    -19.8324 -49.1561 -27.8815   C.3       1 RES1   0.0000
    27 C27    -19.0431 -50.3131 -27.3220   C.3       1 RES1   0.0000
    28 C28    -18.6766 -50.9437 -23.5810   C.ar      1 RES1   0.0000
    29 C29    -17.6873 -51.3234 -22.6646   C.ar      1 RES1   0.0000
    30 N30    -13.6358 -50.9723 -23.3742   N.ar      1 RES1   0.0000
    31 C31    -12.3833 -50.6136 -23.6278   C.ar      1 RES1   0.0000
    32 C32    -11.3807 -51.0810 -22.7767   C.ar      1 RES1   0.0000
    33 Cl33    -9.6968 -50.6154 -23.0938   Cl        1 RES1   0.0000
    34 H1     -15.6109 -52.6224 -21.3568   H         1 RES1   0.0000
    35 H2      -9.8758 -53.9202 -16.4494   H         1 RES1   0.0000
    36 H3     -19.2591 -51.2123 -27.8971   H         1 RES1   0.0000
    37 H4     -17.9789 -50.0902 -27.3828   H         1 RES1   0.0000
    38 H5     -19.6695 -50.6661 -23.2302   H         1 RES1   0.0000
    39 H6     -17.9146 -51.3469 -21.5998   H         1 RES1   0.0000
    40 H7     -21.5220 -50.2256 -28.3101   H         1 RES1   0.0000
    41 H8     -21.8389 -47.5513 -27.5814   H         1 RES1   0.0000
    42 H9     -21.7487 -48.2222 -29.2258   H         1 RES1   0.0000
    43 H10    -23.0679 -48.7100 -28.1376   H         1 RES1   0.0000
    44 H11    -19.5759 -48.2509 -27.3331   H         1 RES1   0.0000
    45 H12    -19.5799 -49.0273 -28.9330   H         1 RES1   0.0000
    46 H13    -12.1448 -49.9730 -24.4756   H         1 RES1   0.0000
    47 H14    -21.0758 -50.9807 -24.7434   H         1 RES1   0.0000
    48 H15    -21.0633 -51.7417 -26.3506   H         1 RES1   0.0000
    49 H16    -21.4923 -48.8058 -25.7366   H         1 RES1   0.0000
    50 H17    -22.7194 -49.9665 -26.2927   H         1 RES1   0.0000
    51 H18     -9.5807 -48.4678 -16.9490   H         1 RES1   0.0000
    52 H19     -8.2263 -47.7517 -17.8520   H         1 RES1   0.0000
    53 H20     -9.6994 -48.2567 -18.7108   H         1 RES1   0.0000
    54 H21     -7.7584 -50.1189 -17.2696   H         1 RES1   0.0000
    55 H22     -7.8771 -49.9078 -19.0314   H         1 RES1   0.0000
    56 H23     -9.7357 -52.1248 -20.9421   H         1 RES1   0.0000
    57 H24    -11.7284 -55.6069 -16.5583   H         1 RES1   0.0000
    58 H25    -13.0897 -55.8053 -18.6315   H         1 RES1   0.0000
    59 H26    -12.6432 -54.3438 -20.5996   H         1 RES1   0.0000
    60 H27    -15.1337 -51.9239 -24.8173   H         1 RES1   0.0000
    61 H28    -16.8909 -51.2601 -26.4518   H         1 RES1   0.0000
@<TRIPOS>BOND
     1     1     2    1
     2     2     3    1
     3     3     4    2
     4     3     5    1
     5     5     6    1
     6     6     7   ar
     7     7     8   ar
     8     8     9   ar
     9     9    10   ar
    10    10    11   ar
    11    11    12    1
    12    12    13    1
    13    13    14   ar
    14    14    15   ar
    15    15    16    1
    16    16    17    1
    17    17    18   ar
    18    18    19   ar
    19    19    20   ar
    20    20    21    1
    21    21    22    1
    22    22    23    1
    23    23    24    1
    24    24    25    1
    25    24    26    1
    26    26    27    1
    27    20    28   ar
    28    28    29   ar
    29    15    30   ar
    30    30    31   ar
    31    31    32   ar
    32    32    33    1
    33    11     6   ar
    34    32    13   ar
    35    29    17   ar
    36    27    21    1
    37    16    34    1
    38     7    35    1
    39    27    36    1
    40    27    37    1
    41    28    38    1
    42    29    39    1
    43    24    40    1
    44    25    41    1
    45    25    42    1
    46    25    43    1
    47    26    44    1
    48    26    45    1
    49    31    46    1
    50    22    47    1
    51    22    48    1
    52    23    49    1
    53    23    50    1
    54     1    51    1
    55     1    52    1
    56     1    53    1
    57     2    54    1
    58     2    55    1
    59    12    56    1
    60     8    57    1
    61     9    58    1
    62    10    59    1
    63    18    60    1
    64    19    61    1
@<TRIPOS>SUBSTRUCTURE
     1 RES1        1 GROUP             0 ****  ****    0  
@<TRIPOS>CRYSIN
    1.0000    1.0000    1.0000   90.0000   90.0000   90.0000     1     1
@<TRIPOS>MOLECULE
ligand_29
    61    64     1     0     0
SMALL
USER_CHARGES
****
Generated from the CSD

@<TRIPOS>ATOM
     1 C1      -8.9888 -48.4873 -17.9716   C.3       1 RES1   0.0000
     2 C2      -8.4053 -49.8775 -18.2194   C.3       1 RES1   0.0000
     3 C3      -9.5510 -50.8918 -18.1892   C.2       1 RES1   0.0000
     4 O4     -10.6742 -50.5939 -17.9314   O.2       1 RES1   0.0000
     5 O5      -9.1810 -52.2256 -18.4893   O.3       1 RES1   0.0000
     6 C6     -10.2353 -53.1960 -18.4650   C.ar      1 RES1   0.0000
     7 C7     -10.8465 -53.5901 -19.6571   C.ar      1 RES1   0.0000
     8 C8     -11.8813 -54.5417 -19.6128   C.ar      1 RES1   0.0000
     9 C9     -12.2813 -55.0700 -18.3735   C.ar      1 RES1   0.0000
    10 C10    -11.6667 -54.6669 -17.1737   C.ar      1 RES1   0.0000
    11 C11    -10.6346 -53.7151 -17.2189   C.ar      1 RES1   0.0000
    12 N12     -9.9437 -53.2583 -15.9741   N.pl3     1 RES1   0.0000
    13 C13    -10.6120 -53.1263 -14.6741   C.ar      1 RES1   0.0000
    14 N14    -11.9181 -53.3909 -14.5564   N.ar      1 RES1   0.0000
    15 C15    -12.5248 -53.2747 -13.3846   C.ar      1 RES1   0.0000
    16 N16    -13.9557 -53.5562 -13.2446   N.pl3     1 RES1   0.0000
    17 C17    -14.6731 -53.5020 -11.9573   C.ar      1 RES1   0.0000
    18 C18    -15.9898 -53.0706 -11.9516   C.ar      1 RES1   0.0000
    19 C19    -16.7058 -53.0148 -10.7477   C.ar      1 RES1   0.0000
    20 C20    -16.0942 -53.3909  -9.5562   C.ar      1 RES1   0.0000
    21 N21    -16.8685 -53.3199  -8.2920   N.pl3     1 RES1   0.0000
    22 C22    -17.8886 -52.3129  -8.0170   C.3       1 RES1   0.0000
    23 C23    -19.0089 -52.9196  -7.2083   C.3       1 RES1   0.0000
    24 N24    -18.4850 -53.5279  -5.9500   N.4       1 RES1   1.0000
    25 C25    -19.4553 -54.0353  -5.2867   C.3       1 RES1   0.0000
    26 C26    -17.3989 -54.5067  -6.2510   C.3       1 RES1   0.0000
    27 C27    -16.3040 -53.8611  -7.0630   C.3       1 RES1   0.0000
    28 C28    -14.7744 -53.8248  -9.5569   C.ar      1 RES1   0.0000
    29 C29    -14.0636 -53.8842 -10.7628   C.ar      1 RES1   0.0000
    30 N30    -11.8810 -52.9119 -12.3040   N.ar      1 RES1   0.0000
    31 C31    -10.5835 -52.6336 -12.3289   C.ar      1 RES1   0.0000
    32 C32     -9.9116 -52.7406 -13.5476   C.ar      1 RES1   0.0000
    33 Cl33    -8.1753 -52.3740 -13.6078   Cl        1 RES1   0.0000
    34 H1     -10.5264 -53.1665 -20.6079   H         1 RES1   0.0000
    35 H2     -12.3684 -54.8663 -20.5311   H         1 RES1   0.0000
    36 H3     -10.0582 -52.3305 -11.4244   H         1 RES1   0.0000
    37 H4     -17.8160 -55.3406  -6.8137   H         1 RES1   0.0000
    38 H5     -16.9800 -54.8737  -5.3152   H         1 RES1   0.0000
    39 H6     -15.8502 -53.0564  -6.4864   H         1 RES1   0.0000
    40 H7     -15.5465 -54.6043  -7.3075   H         1 RES1   0.0000
    41 H8     -14.2945 -54.1175  -8.6242   H         1 RES1   0.0000
    42 H9     -13.0831 -55.8062 -18.3411   H         1 RES1   0.0000
    43 H10    -11.9872 -55.0876 -16.2218   H         1 RES1   0.0000
    44 H11    -13.0310 -54.2302 -10.7673   H         1 RES1   0.0000
    45 H12     -9.4795 -48.4676 -16.9996   H         1 RES1   0.0000
    46 H13     -8.1883 -47.7492 -17.9891   H         1 RES1   0.0000
    47 H14     -9.7145 -48.2543 -18.7494   H         1 RES1   0.0000
    48 H15     -7.6810 -50.1168 -17.4421   H         1 RES1   0.0000
    49 H16     -7.9160 -49.9035 -19.1919   H         1 RES1   0.0000
    50 H17    -17.7411 -52.6769 -10.7452   H         1 RES1   0.0000
    51 H18    -16.4691 -52.7745 -12.8836   H         1 RES1   0.0000
    52 H19     -8.9572 -53.0265 -16.0313   H         1 RES1   0.0000
    53 H20    -14.4811 -53.8015 -14.0777   H         1 RES1   0.0000
    54 H21    -18.0835 -52.7827  -5.3899   H         1 RES1   0.0000
    55 H22    -19.9426 -54.8029  -5.8861   H         1 RES1   0.0000
    56 H23    -19.0742 -54.4795  -4.3683   H         1 RES1   0.0000
    57 H24    -20.1745 -53.2552  -5.0414   H         1 RES1   0.0000
    58 H25    -18.2864 -51.9363  -8.9582   H         1 RES1   0.0000
    59 H26    -17.4431 -51.4921  -7.4568   H         1 RES1   0.0000
    60 H27    -19.4996 -53.6908  -7.8003   H         1 RES1   0.0000
    61 H28    -19.7288 -52.1424  -6.9563   H         1 RES1   0.0000
@<TRIPOS>BOND
     1     1     2    1
     2     2     3    1
     3     3     4    2
     4     3     5    1
     5     5     6    1
     6     6     7   ar
     7     7     8   ar
     8     8     9   ar
     9     9    10   ar
    10    10    11   ar
    11    11    12    1
    12    12    13    1
    13    13    14   ar
    14    14    15   ar
    15    15    16    1
    16    16    17    1
    17    17    18   ar
    18    18    19   ar
    19    19    20   ar
    20    20    21    1
    21    21    22    1
    22    22    23    1
    23    23    24    1
    24    24    25    1
    25    24    26    1
    26    26    27    1
    27    20    28   ar
    28    28    29   ar
    29    15    30   ar
    30    30    31   ar
    31    31    32   ar
    32    32    33    1
    33    11     6   ar
    34    32    13   ar
    35    29    17   ar
    36    27    21    1
    37     7    34    1
    38     8    35    1
    39    31    36    1
    40    26    37    1
    41    26    38    1
    42    27    39    1
    43    27    40    1
    44    28    41    1
    45     9    42    1
    46    10    43    1
    47    29    44    1
    48     1    45    1
    49     1    46    1
    50     1    47    1
    51     2    48    1
    52     2    49    1
    53    19    50    1
    54    18    51    1
    55    12    52    1
    56    16    53    1
    57    24    54    1
    58    25    55    1
    59    25    56    1
    60    25    57    1
    61    22    58    1
    62    22    59    1
    63    23    60    1
    64    23    61    1
@<TRIPOS>SUBSTRUCTURE
     1 RES1        1 GROUP             0 ****  ****    0  
@<TRIPOS>CRYSIN
    1.0000    1.0000    1.0000   90.0000   90.0000   90.0000     1     1
@<TRIPOS>MOLECULE
ligand_30
    61    64     1     0     0
SMALL
USER_CHARGES
****
Generated from the CSD

@<TRIPOS>ATOM
     1 C1      -9.0242 -48.4889 -17.8883   C.3       1 RES1   0.0000
     2 C2      -8.4275 -49.8803 -18.0948   C.3       1 RES1   0.0000
     3 C3      -9.5742 -50.8930 -18.1383   C.2       1 RES1   0.0000
     4 O4     -10.7115 -50.5933 -17.9554   O.2       1 RES1   0.0000
     5 O5      -9.1871 -52.2279 -18.4112   O.3       1 RES1   0.0000
     6 C6     -10.2421 -53.1969 -18.4545   C.ar      1 RES1   0.0000
     7 C7     -10.4829 -54.0139 -17.3479   C.ar      1 RES1   0.0000
     8 C8     -11.5209 -54.9609 -17.4102   C.ar      1 RES1   0.0000
     9 C9     -12.2878 -55.0690 -18.5829   C.ar      1 RES1   0.0000
    10 C10    -12.0392 -54.2477 -19.6979   C.ar      1 RES1   0.0000
    11 C11    -11.0010 -53.3035 -19.6352   C.ar      1 RES1   0.0000
    12 N12    -10.7002 -52.4015 -20.7891   N.pl3     1 RES1   0.0000
    13 C13    -11.7216 -51.8933 -21.7126   C.ar      1 RES1   0.0000
    14 N14    -13.0104 -52.2020 -21.5301   N.ar      1 RES1   0.0000
    15 C15    -13.9355 -51.7441 -22.3602   C.ar      1 RES1   0.0000
    16 N16    -15.3494 -52.0799 -22.1738   N.pl3     1 RES1   0.0000
    17 C17    -16.4298 -51.5536 -23.0284   C.ar      1 RES1   0.0000
    18 C18    -17.5179 -52.3686 -23.2961   C.ar      1 RES1   0.0000
    19 C19    -18.5679 -51.8985 -24.0971   C.ar      1 RES1   0.0000
    20 C20    -18.5178 -50.6129 -24.6262   C.ar      1 RES1   0.0000
    21 N21    -19.6377 -50.1363 -25.4756   N.pl3     1 RES1   0.0000
    22 C22    -20.4103 -50.9987 -26.3643   C.3       1 RES1   0.0000
    23 C23    -21.8527 -50.5562 -26.3884   C.3       1 RES1   0.0000
    24 N24    -21.9605 -49.1215 -26.7856   N.4       1 RES1   1.0000
    25 C25    -23.1926 -48.7743 -26.7955   C.3       1 RES1   0.0000
    26 C26    -21.1122 -48.2662 -25.9042   C.3       1 RES1   0.0000
    27 C27    -19.6821 -48.7453 -25.9059   C.3       1 RES1   0.0000
    28 C28    -17.4292 -49.7917 -24.3601   C.ar      1 RES1   0.0000
    29 C29    -16.3841 -50.2631 -23.5549   C.ar      1 RES1   0.0000
    30 N30    -13.6358 -50.9723 -23.3742   N.ar      1 RES1   0.0000
    31 C31    -12.3833 -50.6136 -23.6278   C.ar      1 RES1   0.0000
    32 C32    -11.3807 -51.0810 -22.7767   C.ar      1 RES1   0.0000
    33 Cl33    -9.6968 -50.6154 -23.0938   Cl        1 RES1   0.0000
    34 H1     -13.0907 -55.8033 -18.6295   H         1 RES1   0.0000
    35 H2     -12.6442 -54.3428 -20.5984   H         1 RES1   0.0000
    36 H3     -20.3543 -52.0262 -26.0079   H         1 RES1   0.0000
    37 H4     -19.9985 -50.9406 -27.3708   H         1 RES1   0.0000
    38 H5     -15.5984 -52.7080 -21.4164   H         1 RES1   0.0000
    39 H6     -23.6157 -48.9090 -25.8011   H         1 RES1   0.0000
    40 H7     -23.2725 -47.7276 -27.0852   H         1 RES1   0.0000
    41 H8     -23.7378 -49.3909 -27.5086   H         1 RES1   0.0000
    42 H9     -21.5006 -48.3061 -24.8876   H         1 RES1   0.0000
    43 H10    -21.1448 -47.2393 -26.2652   H         1 RES1   0.0000
    44 H11    -19.2724 -48.6627 -26.9115   H         1 RES1   0.0000
    45 H12    -19.0935 -48.1347 -25.2229   H         1 RES1   0.0000
    46 H13     -9.5778 -48.4668 -16.9508   H         1 RES1   0.0000
    47 H14     -8.2233 -47.7518 -17.8544   H         1 RES1   0.0000
    48 H15     -9.6968 -48.2564 -18.7126   H         1 RES1   0.0000
    49 H16     -9.8754 -53.9191 -16.4491   H         1 RES1   0.0000
    50 H17    -11.7286 -55.6049 -16.5570   H         1 RES1   0.0000
    51 H18    -12.1448 -49.9730 -24.4756   H         1 RES1   0.0000
    52 H19     -7.7563 -50.1191 -17.2712   H         1 RES1   0.0000
    53 H20     -7.8753 -49.9087 -19.0330   H         1 RES1   0.0000
    54 H21    -17.5575 -53.3757 -22.8837   H         1 RES1   0.0000
    55 H22    -19.4230 -52.5399 -24.3052   H         1 RES1   0.0000
    56 H23    -22.2823 -50.6852 -25.3961   H         1 RES1   0.0000
    57 H24    -22.4016 -51.1669 -27.1037   H         1 RES1   0.0000
    58 H25    -21.6072 -49.0354 -27.7332   H         1 RES1   0.0000
    59 H26    -17.3885 -48.7859 -24.7756   H         1 RES1   0.0000
    60 H27    -15.5327 -49.6192 -23.3393   H         1 RES1   0.0000
    61 H28     -9.7357 -52.1251 -20.9424   H         1 RES1   0.0000
@<TRIPOS>BOND
     1     1     2    1
     2     2     3    1
     3     3     4    2
     4     3     5    1
     5     5     6    1
     6     6     7   ar
     7     7     8   ar
     8     8     9   ar
     9     9    10   ar
    10    10    11   ar
    11    11    12    1
    12    12    13    1
    13    13    14   ar
    14    14    15   ar
    15    15    16    1
    16    16    17    1
    17    17    18   ar
    18    18    19   ar
    19    19    20   ar
    20    20    21    1
    21    21    22    1
    22    22    23    1
    23    23    24    1
    24    24    25    1
    25    24    26    1
    26    26    27    1
    27    20    28   ar
    28    28    29   ar
    29    15    30   ar
    30    30    31   ar
    31    31    32   ar
    32    32    33    1
    33    11     6   ar
    34    32    13   ar
    35    29    17   ar
    36    27    21    1
    37     9    34    1
    38    10    35    1
    39    22    36    1
    40    22    37    1
    41    16    38    1
    42    25    39    1
    43    25    40    1
    44    25    41    1
    45    26    42    1
    46    26    43    1
    47    27    44    1
    48    27    45    1
    49     1    46    1
    50     1    47    1
    51     1    48    1
    52     7    49    1
    53     8    50    1
    54    31    51    1
    55     2    52    1
    56     2    53    1
    57    18    54    1
    58    19    55    1
    59    23    56    1
    60    23    57    1
    61    24    58    1
    62    28    59    1
    63    29    60    1
    64    12    61    1
@<TRIPOS>SUBSTRUCTURE
     1 RES1        1 GROUP             0 ****  ****    0  
@<TRIPOS>CRYSIN
    1.0000    1.0000    1.0000   90.0000   90.0000   90.0000     1     1
@<TRIPOS>MOLECULE
ligand_31
    61    64     1     0     0
SMALL
USER_CHARGES
****
Generated from the CSD

@<TRIPOS>ATOM
     1 C1      -7.9985 -48.8559 -18.6301   C.3       1 RES1   0.0000
     2 C2      -7.7291 -50.3527 -18.7763   C.3       1 RES1   0.0000
     3 C3      -9.0380 -51.1036 -18.5210   C.2       1 RES1   0.0000
     4 O4     -10.0437 -50.5597 -18.1898   O.2       1 RES1   0.0000
     5 O5      -8.9719 -52.5064 -18.7044   O.3       1 RES1   0.0000
     6 C6     -10.1883 -53.2319 -18.4852   C.ar      1 RES1   0.0000
     7 C7     -11.3235 -52.9322 -19.2411   C.ar      1 RES1   0.0000
     8 C8     -12.5088 -53.6531 -19.0098   C.ar      1 RES1   0.0000
     9 C9     -12.5278 -54.6526 -18.0220   C.ar      1 RES1   0.0000
    10 C10    -11.3835 -54.9485 -17.2587   C.ar      1 RES1   0.0000
    11 C11    -10.2007 -54.2266 -17.4893   C.ar      1 RES1   0.0000
    12 N12     -8.9551 -54.5067 -16.7112   N.pl3     1 RES1   0.0000
    13 C13     -8.8233 -55.6141 -15.7570   C.ar      1 RES1   0.0000
    14 N14     -9.8038 -56.5153 -15.6289   N.ar      1 RES1   0.0000
    15 C15     -9.6882 -57.5172 -14.7702   C.ar      1 RES1   0.0000
    16 N16    -10.7576 -58.5069 -14.6171   N.pl3     1 RES1   0.0000
    17 C17    -11.9886 -58.5062 -15.4290   C.ar      1 RES1   0.0000
    18 C18    -13.1841 -58.8489 -14.8179   C.ar      1 RES1   0.0000
    19 C19    -14.3756 -58.8503 -15.5563   C.ar      1 RES1   0.0000
    20 C20    -14.3590 -58.5094 -16.9049   C.ar      1 RES1   0.0000
    21 N21    -15.6310 -58.5219 -17.6697   N.3       1 RES1   0.0000
    22 C22    -15.4459 -57.9819 -19.0290   C.3       1 RES1   0.0000
    23 C23    -16.7313 -58.0156 -19.8166   C.3       1 RES1   0.0000
    24 N24    -17.7539 -57.1924 -19.1009   N.4       1 RES1   1.0000
    25 C25    -18.8293 -57.0457 -19.7797   C.3       1 RES1   0.0000
    26 C26    -17.9831 -57.8105 -17.7609   C.3       1 RES1   0.0000
    27 C27    -16.6956 -57.7914 -16.9709   C.3       1 RES1   0.0000
    28 C28    -13.1630 -58.1645 -17.5219   C.ar      1 RES1   0.0000
    29 C29    -11.9749 -58.1592 -16.7795   C.ar      1 RES1   0.0000
    30 N30     -8.6213 -57.6740 -14.0280   N.ar      1 RES1   0.0000
    31 C31     -7.5996 -56.8293 -14.0928   C.ar      1 RES1   0.0000
    32 C32     -7.6880 -55.7582 -14.9834   C.ar      1 RES1   0.0000
    33 Cl33    -6.3345 -54.6137 -15.0895   Cl        1 RES1   0.0000
    34 H1     -15.3145 -59.1183 -15.0741   H         1 RES1   0.0000
    35 H2     -10.6452 -59.2313 -13.9151   H         1 RES1   0.0000
    36 H3     -18.3159 -58.8396 -17.8879   H         1 RES1   0.0000
    37 H4     -18.7455 -57.2458 -17.2263   H         1 RES1   0.0000
    38 H5     -16.3823 -56.7583 -16.8279   H         1 RES1   0.0000
    39 H6     -16.8673 -58.2562 -16.0011   H         1 RES1   0.0000
    40 H7     -13.1491 -57.8994 -18.5781   H         1 RES1   0.0000
    41 H8     -11.2915 -52.1511 -19.9992   H         1 RES1   0.0000
    42 H9     -13.4043 -53.4386 -19.5912   H         1 RES1   0.0000
    43 H10     -8.3578 -48.6484 -17.6233   H         1 RES1   0.0000
    44 H11     -7.0778 -48.3023 -18.8082   H         1 RES1   0.0000
    45 H12     -8.7519 -48.5502 -19.3546   H         1 RES1   0.0000
    46 H13     -6.9784 -50.6643 -18.0515   H         1 RES1   0.0000
    47 H14     -7.3724 -50.5661 -19.7829   H         1 RES1   0.0000
    48 H15    -11.0370 -57.8830 -17.2590   H         1 RES1   0.0000
    49 H16     -8.1558 -53.8968 -16.8507   H         1 RES1   0.0000
    50 H17    -13.4467 -55.2092 -17.8438   H         1 RES1   0.0000
    51 H18    -11.4144 -55.7276 -16.4985   H         1 RES1   0.0000
    52 H19    -17.3566 -56.2705 -18.9507   H         1 RES1   0.0000
    53 H20    -19.2672 -58.0221 -19.9815   H         1 RES1   0.0000
    54 H21    -19.5362 -56.4408 -19.2137   H         1 RES1   0.0000
    55 H22    -18.5993 -56.5493 -20.7213   H         1 RES1   0.0000
    56 H23     -6.7177 -56.9679 -13.4691   H         1 RES1   0.0000
    57 H24    -14.6972 -58.5786 -19.5479   H         1 RES1   0.0000
    58 H25    -15.1022 -56.9511 -18.9565   H         1 RES1   0.0000
    59 H26    -17.0821 -59.0430 -19.9016   H         1 RES1   0.0000
    60 H27    -16.5623 -57.6062 -20.8115   H         1 RES1   0.0000
    61 H28    -13.1980 -59.1175 -13.7626   H         1 RES1   0.0000
@<TRIPOS>BOND
     1     1     2    1
     2     2     3    1
     3     3     4    2
     4     3     5    1
     5     5     6    1
     6     6     7   ar
     7     7     8   ar
     8     8     9   ar
     9     9    10   ar
    10    10    11   ar
    11    11    12    1
    12    12    13    1
    13    13    14   ar
    14    14    15   ar
    15    15    16    1
    16    16    17    1
    17    17    18   ar
    18    18    19   ar
    19    19    20   ar
    20    20    21    1
    21    21    22    1
    22    22    23    1
    23    23    24    1
    24    24    25    1
    25    24    26    1
    26    26    27    1
    27    20    28   ar
    28    28    29   ar
    29    15    30   ar
    30    30    31   ar
    31    31    32   ar
    32    32    33    1
    33    11     6   ar
    34    32    13   ar
    35    29    17   ar
    36    27    21    1
    37    19    34    1
    38    16    35    1
    39    26    36    1
    40    26    37    1
    41    27    38    1
    42    27    39    1
    43    28    40    1
    44     7    41    1
    45     8    42    1
    46     1    43    1
    47     1    44    1
    48     1    45    1
    49     2    46    1
    50     2    47    1
    51    29    48    1
    52    12    49    1
    53     9    50    1
    54    10    51    1
    55    24    52    1
    56    25    53    1
    57    25    54    1
    58    25    55    1
    59    31    56    1
    60    22    57    1
    61    22    58    1
    62    23    59    1
    63    23    60    1
    64    18    61    1
@<TRIPOS>SUBSTRUCTURE
     1 RES1        1 GROUP             0 ****  ****    0  
@<TRIPOS>CRYSIN
    1.0000    1.0000    1.0000   90.0000   90.0000   90.0000     1     1
@<TRIPOS>MOLECULE
ligand_32
    61    64     1     0     0
SMALL
USER_CHARGES
****
Generated from the CSD

@<TRIPOS>ATOM
     1 C1      -8.5833 -48.6056 -18.0416   C.3       1 RES1   0.0000
     2 C2      -8.1041 -50.0442 -18.2291   C.3       1 RES1   0.0000
     3 C3      -9.3286 -50.9623 -18.2293   C.2       1 RES1   0.0000
     4 O4     -10.4344 -50.5685 -18.0317   O.2       1 RES1   0.0000
     5 O5      -9.0551 -52.3291 -18.4804   O.3       1 RES1   0.0000
     6 C6     -10.1830 -53.2132 -18.4690   C.ar      1 RES1   0.0000
     7 C7     -10.9572 -53.3392 -17.3136   C.ar      1 RES1   0.0000
     8 C8     -12.0586 -54.2138 -17.3206   C.ar      1 RES1   0.0000
     9 C9     -12.3527 -54.9448 -18.4844   C.ar      1 RES1   0.0000
    10 C10    -11.5675 -54.8192 -19.6451   C.ar      1 RES1   0.0000
    11 C11    -10.4666 -53.9468 -19.6364   C.ar      1 RES1   0.0000
    12 N12     -9.6047 -53.7710 -20.8454   N.pl3     1 RES1   0.0000
    13 C13     -9.8118 -54.4958 -22.1048   C.ar      1 RES1   0.0000
    14 N14    -10.8126 -55.3759 -22.2206   N.ar      1 RES1   0.0000
    15 C15    -11.0040 -56.0309 -23.3559   C.ar      1 RES1   0.0000
    16 N16    -12.0931 -57.0013 -23.4928   N.pl3     1 RES1   0.0000
    17 C17    -12.3332 -57.7869 -24.7175   C.ar      1 RES1   0.0000
    18 C18    -13.6420 -58.0160 -25.1104   C.ar      1 RES1   0.0000
    19 C19    -13.9081 -58.7509 -26.2741   C.ar      1 RES1   0.0000
    20 C20    -12.8576 -59.2531 -27.0353   C.ar      1 RES1   0.0000
    21 N21    -13.1612 -60.0326 -28.2614   N.3       1 RES1   0.0000
    22 C22    -14.6105 -60.2597 -28.4085   C.3       1 RES1   0.0000
    23 C23    -14.9240 -61.0307 -29.6659   C.3       1 RES1   0.0000
    24 N24    -14.2280 -62.3525 -29.6040   N.4       1 RES1   1.0000
    25 C25    -14.5626 -63.1295 -30.5648   C.3       1 RES1   0.0000
    26 C26    -12.7585 -62.0937 -29.5406   C.3       1 RES1   0.0000
    27 C27    -12.4389 -61.3103 -28.2891   C.3       1 RES1   0.0000
    28 C28    -11.5436 -59.0255 -26.6459   C.ar      1 RES1   0.0000
    29 C29    -11.2815 -58.2861 -25.4851   C.ar      1 RES1   0.0000
    30 N30    -10.2409 -55.8410 -24.4025   N.ar      1 RES1   0.0000
    31 C31     -9.2275 -54.9844 -24.3771   C.ar      1 RES1   0.0000
    32 C32     -8.9924 -54.2793 -23.1956   C.ar      1 RES1   0.0000
    33 Cl33    -7.6428 -53.1269 -23.1356   Cl        1 RES1   0.0000
    34 H1      -9.1142 -48.5203 -17.0946   H         1 RES1   0.0000
    35 H2      -7.7255 -47.9347 -18.0386   H         1 RES1   0.0000
    36 H3      -9.2518 -48.3364 -18.8580   H         1 RES1   0.0000
    37 H4      -7.4375 -50.3196 -17.4132   H         1 RES1   0.0000
    38 H5      -7.5751 -50.1356 -19.1766   H         1 RES1   0.0000
    39 H6     -14.4651 -57.6246 -24.5144   H         1 RES1   0.0000
    40 H7     -14.9373 -58.9287 -26.5823   H         1 RES1   0.0000
    41 H8     -14.3089 -62.6618 -31.5150   H         1 RES1   0.0000
    42 H9     -14.0283 -64.0738 -30.4709   H         1 RES1   0.0000
    43 H10    -15.6352 -63.3139 -30.5258   H         1 RES1   0.0000
    44 H11    -12.4526 -61.5214 -30.4152   H         1 RES1   0.0000
    45 H12    -12.2233 -63.0420 -29.5219   H         1 RES1   0.0000
    46 H13    -12.7257 -61.8990 -27.4190   H         1 RES1   0.0000
    47 H14    -11.3683 -61.1135 -28.2574   H         1 RES1   0.0000
    48 H15    -15.1174 -59.2967 -28.4482   H         1 RES1   0.0000
    49 H16    -14.9694 -60.8237 -27.5488   H         1 RES1   0.0000
    50 H17    -14.5753 -60.4733 -30.5340   H         1 RES1   0.0000
    51 H18    -15.9992 -61.1859 -29.7421   H         1 RES1   0.0000
    52 H19    -14.4990 -62.8026 -28.7356   H         1 RES1   0.0000
    53 H20    -11.8103 -55.3913 -20.5393   H         1 RES1   0.0000
    54 H21     -8.8332 -53.1136 -20.7923   H         1 RES1   0.0000
    55 H22    -12.7152 -57.1402 -22.7029   H         1 RES1   0.0000
    56 H23     -8.5975 -54.8359 -25.2529   H         1 RES1   0.0000
    57 H24    -10.7209 -59.4201 -27.2404   H         1 RES1   0.0000
    58 H25    -10.2524 -58.1005 -25.1811   H         1 RES1   0.0000
    59 H26    -12.6782 -54.3237 -16.4318   H         1 RES1   0.0000
    60 H27    -13.2055 -55.6220 -18.4878   H         1 RES1   0.0000
    61 H28    -10.7115 -52.7681 -16.4195   H         1 RES1   0.0000
@<TRIPOS>BOND
     1     1     2    1
     2     2     3    1
     3     3     4    2
     4     3     5    1
     5     5     6    1
     6     6     7   ar
     7     7     8   ar
     8     8     9   ar
     9     9    10   ar
    10    10    11   ar
    11    11    12    1
    12    12    13    1
    13    13    14   ar
    14    14    15   ar
    15    15    16    1
    16    16    17    1
    17    17    18   ar
    18    18    19   ar
    19    19    20   ar
    20    20    21    1
    21    21    22    1
    22    22    23    1
    23    23    24    1
    24    24    25    1
    25    24    26    1
    26    26    27    1
    27    20    28   ar
    28    28    29   ar
    29    15    30   ar
    30    30    31   ar
    31    31    32   ar
    32    32    33    1
    33    11     6   ar
    34    32    13   ar
    35    29    17   ar
    36    27    21    1
    37     1    34    1
    38     1    35    1
    39     1    36    1
    40     2    37    1
    41     2    38    1
    42    18    39    1
    43    19    40    1
    44    25    41    1
    45    25    42    1
    46    25    43    1
    47    26    44    1
    48    26    45    1
    49    27    46    1
    50    27    47    1
    51    22    48    1
    52    22    49    1
    53    23    50    1
    54    23    51    1
    55    24    52    1
    56    10    53    1
    57    12    54    1
    58    16    55    1
    59    31    56    1
    60    28    57    1
    61    29    58    1
    62     8    59    1
    63     9    60    1
    64     7    61    1
@<TRIPOS>SUBSTRUCTURE
     1 RES1        1 GROUP             0 ****  ****    0  
@<TRIPOS>CRYSIN
    1.0000    1.0000    1.0000   90.0000   90.0000   90.0000     1     1
@<TRIPOS>MOLECULE
ligand_33
    61    64     1     0     0
SMALL
USER_CHARGES
****
Generated from the CSD

@<TRIPOS>ATOM
     1 C1      -7.8990 -48.9637 -17.7533   C.3       1 RES1   0.0000
     2 C2      -7.6430 -50.4500 -17.9981   C.3       1 RES1   0.0000
     3 C3      -8.9947 -51.1627 -18.0832   C.2       1 RES1   0.0000
     4 O4     -10.0325 -50.6089 -17.9008   O.2       1 RES1   0.0000
     5 O5      -8.9281 -52.5428 -18.3943   O.3       1 RES1   0.0000
     6 C6     -10.1796 -53.2378 -18.4625   C.ar      1 RES1   0.0000
     7 C7     -11.0076 -53.2928 -17.3393   C.ar      1 RES1   0.0000
     8 C8     -12.2308 -53.9818 -17.4247   C.ar      1 RES1   0.0000
     9 C9     -12.5904 -54.6036 -18.6327   C.ar      1 RES1   0.0000
    10 C10    -11.7514 -54.5505 -19.7609   C.ar      1 RES1   0.0000
    11 C11    -10.5292 -53.8637 -19.6739   C.ar      1 RES1   0.0000
    12 N12     -9.6047 -53.7710 -20.8454   N.pl3     1 RES1   0.0000
    13 C13     -9.8118 -54.4958 -22.1048   C.ar      1 RES1   0.0000
    14 N14    -10.8126 -55.3759 -22.2206   N.ar      1 RES1   0.0000
    15 C15    -11.0040 -56.0309 -23.3559   C.ar      1 RES1   0.0000
    16 N16    -12.0931 -57.0013 -23.4928   N.pl3     1 RES1   0.0000
    17 C17    -12.9979 -57.3695 -22.3881   C.ar      1 RES1   0.0000
    18 C18    -12.4679 -57.4997 -21.1145   C.ar      1 RES1   0.0000
    19 C19    -13.2996 -57.8396 -20.0386   C.ar      1 RES1   0.0000
    20 C20    -14.6588 -58.0488 -20.2487   C.ar      1 RES1   0.0000
    21 N21    -15.5210 -58.4126 -19.0966   N.3       1 RES1   0.0000
    22 C22    -16.9451 -58.4353 -19.4775   C.3       1 RES1   0.0000
    23 C23    -17.8216 -58.8281 -18.3152   C.3       1 RES1   0.0000
    24 N24    -17.6284 -57.8370 -17.2125   N.4       1 RES1   1.0000
    25 C25    -18.4482 -58.0125 -16.2450   C.3       1 RES1   0.0000
    26 C26    -16.1973 -57.8956 -16.7897   C.3       1 RES1   0.0000
    27 C27    -15.3126 -57.5153 -17.9536   C.3       1 RES1   0.0000
    28 C28    -15.1950 -57.9188 -21.5237   C.ar      1 RES1   0.0000
    29 C29    -14.3616 -57.5739 -22.5957   C.ar      1 RES1   0.0000
    30 N30    -10.2409 -55.8410 -24.4025   N.ar      1 RES1   0.0000
    31 C31     -9.2275 -54.9844 -24.3771   C.ar      1 RES1   0.0000
    32 C32     -8.9924 -54.2793 -23.1956   C.ar      1 RES1   0.0000
    33 Cl33    -7.6428 -53.1269 -23.1356   Cl        1 RES1   0.0000
    34 H1     -17.7984 -56.9128 -17.5961   H         1 RES1   0.0000
    35 H2     -18.3094 -59.0088 -15.8278   H         1 RES1   0.0000
    36 H3     -18.2638 -57.2668 -15.4731   H         1 RES1   0.0000
    37 H4     -19.4688 -57.9112 -16.6111   H         1 RES1   0.0000
    38 H5      -8.7882 -53.1734 -20.7652   H         1 RES1   0.0000
    39 H6     -13.5375 -55.1373 -18.6968   H         1 RES1   0.0000
    40 H7     -12.0459 -55.0359 -20.6902   H         1 RES1   0.0000
    41 H8     -14.7804 -57.4650 -23.5950   H         1 RES1   0.0000
    42 H9      -8.5975 -54.8359 -25.2529   H         1 RES1   0.0000
    43 H10    -12.8817 -57.9399 -19.0380   H         1 RES1   0.0000
    44 H11    -10.7103 -52.8089 -16.4101   H         1 RES1   0.0000
    45 H12    -12.8936 -54.0330 -16.5621   H         1 RES1   0.0000
    46 H13     -8.4466 -48.8385 -16.8203   H         1 RES1   0.0000
    47 H14     -6.9479 -48.4372 -17.6894   H         1 RES1   0.0000
    48 H15     -8.4850 -48.5560 -18.5757   H         1 RES1   0.0000
    49 H16     -7.0598 -50.8634 -17.1766   H         1 RES1   0.0000
    50 H17     -7.0982 -50.5809 -18.9319   H         1 RES1   0.0000
    51 H18    -15.9557 -58.9067 -16.4653   H         1 RES1   0.0000
    52 H19    -16.0331 -57.2014 -15.9669   H         1 RES1   0.0000
    53 H20    -15.5438 -56.4951 -18.2565   H         1 RES1   0.0000
    54 H21    -14.2709 -57.5741 -17.6416   H         1 RES1   0.0000
    55 H22    -16.2586 -58.0843 -21.6891   H         1 RES1   0.0000
    56 H23    -12.2322 -57.4435 -24.3957   H         1 RES1   0.0000
    57 H24    -11.4038 -57.3377 -20.9492   H         1 RES1   0.0000
    58 H25    -17.0843 -59.1534 -20.2842   H         1 RES1   0.0000
    59 H26    -17.2356 -57.4434 -19.8204   H         1 RES1   0.0000
    60 H27    -17.5448 -59.8221 -17.9671   H         1 RES1   0.0000
    61 H28    -18.8649 -58.8302 -18.6273   H         1 RES1   0.0000
@<TRIPOS>BOND
     1     1     2    1
     2     2     3    1
     3     3     4    2
     4     3     5    1
     5     5     6    1
     6     6     7   ar
     7     7     8   ar
     8     8     9   ar
     9     9    10   ar
    10    10    11   ar
    11    11    12    1
    12    12    13    1
    13    13    14   ar
    14    14    15   ar
    15    15    16    1
    16    16    17    1
    17    17    18   ar
    18    18    19   ar
    19    19    20   ar
    20    20    21    1
    21    21    22    1
    22    22    23    1
    23    23    24    1
    24    24    25    1
    25    24    26    1
    26    26    27    1
    27    20    28   ar
    28    28    29   ar
    29    15    30   ar
    30    30    31   ar
    31    31    32   ar
    32    32    33    1
    33    11     6   ar
    34    32    13   ar
    35    29    17   ar
    36    27    21    1
    37    24    34    1
    38    25    35    1
    39    25    36    1
    40    25    37    1
    41    12    38    1
    42     9    39    1
    43    10    40    1
    44    29    41    1
    45    31    42    1
    46    19    43    1
    47     7    44    1
    48     8    45    1
    49     1    46    1
    50     1    47    1
    51     1    48    1
    52     2    49    1
    53     2    50    1
    54    26    51    1
    55    26    52    1
    56    27    53    1
    57    27    54    1
    58    28    55    1
    59    16    56    1
    60    18    57    1
    61    22    58    1
    62    22    59    1
    63    23    60    1
    64    23    61    1
@<TRIPOS>SUBSTRUCTURE
     1 RES1        1 GROUP             0 ****  ****    0  
@<TRIPOS>CRYSIN
    1.0000    1.0000    1.0000   90.0000   90.0000   90.0000     1     1
@<TRIPOS>MOLECULE
ligand_34
    61    64     1     0     0
SMALL
USER_CHARGES
****
Generated from the CSD

@<TRIPOS>ATOM
     1 C1      -8.3128 -48.7559 -18.0429   C.3       1 RES1   0.0000
     2 C2      -7.9237 -50.2140 -18.2818   C.3       1 RES1   0.0000
     3 C3      -9.1955 -51.0642 -18.2362   C.2       1 RES1   0.0000
     4 O4     -10.2665 -50.6156 -17.9745   O.2       1 RES1   0.0000
     5 O5      -9.0108 -52.4381 -18.5267   O.3       1 RES1   0.0000
     6 C6     -10.1861 -53.2572 -18.4877   C.ar      1 RES1   0.0000
     7 C7     -10.4538 -54.0376 -17.3611   C.ar      1 RES1   0.0000
     8 C8     -11.6108 -54.8372 -17.3424   C.ar      1 RES1   0.0000
     9 C9     -12.4674 -54.8386 -18.4565   C.ar      1 RES1   0.0000
    10 C10    -12.1920 -54.0549 -19.5921   C.ar      1 RES1   0.0000
    11 C11    -11.0352 -53.2582 -19.6104   C.ar      1 RES1   0.0000
    12 N12    -10.7002 -52.4015 -20.7891   N.pl3     1 RES1   0.0000
    13 C13    -11.0078 -52.7694 -22.1763   C.ar      1 RES1   0.0000
    14 N14    -11.5941 -53.9404 -22.4501   N.ar      1 RES1   0.0000
    15 C15    -11.8749 -54.2756 -23.7004   C.ar      1 RES1   0.0000
    16 N16    -12.5117 -55.5575 -24.0131   N.pl3     1 RES1   0.0000
    17 C17    -12.8987 -55.9620 -25.3773   C.ar      1 RES1   0.0000
    18 C18    -13.4536 -55.0097 -26.2171   C.ar      1 RES1   0.0000
    19 C19    -13.8252 -55.3560 -27.5237   C.ar      1 RES1   0.0000
    20 C20    -13.6389 -56.6574 -27.9785   C.ar      1 RES1   0.0000
    21 N21    -14.0434 -57.0042 -29.3638   N.pl3     1 RES1   0.0000
    22 C22    -13.3262 -57.9545 -30.2081   C.3       1 RES1   0.0000
    23 C23    -14.3020 -58.7245 -31.0635   C.3       1 RES1   0.0000
    24 N24    -15.1435 -57.7961 -31.8745   N.4       1 RES1   1.0000
    25 C25    -15.9613 -58.4759 -32.5872   C.3       1 RES1   0.0000
    26 C26    -15.8162 -56.7932 -30.9971   C.3       1 RES1   0.0000
    27 C27    -14.8067 -56.0508 -30.1578   C.3       1 RES1   0.0000
    28 C28    -13.0822 -57.6155 -27.1404   C.ar      1 RES1   0.0000
    29 C29    -12.7074 -57.2645 -25.8369   C.ar      1 RES1   0.0000
    30 N30    -11.6053 -53.4837 -24.7073   N.ar      1 RES1   0.0000
    31 C31    -11.0276 -52.3024 -24.5268   C.ar      1 RES1   0.0000
    32 C32    -10.7127 -51.9173 -23.2227   C.ar      1 RES1   0.0000
    33 Cl33    -9.9395 -50.3416 -22.9540   Cl        1 RES1   0.0000
    34 H1     -14.2598 -54.6060 -28.1829   H         1 RES1   0.0000
    35 H2     -10.8057 -51.6524 -25.3719   H         1 RES1   0.0000
    36 H3     -12.7722 -58.6493 -29.5787   H         1 RES1   0.0000
    37 H4     -12.6323 -57.4140 -30.8502   H         1 RES1   0.0000
    38 H5     -14.9471 -59.3212 -30.4202   H         1 RES1   0.0000
    39 H6     -13.7487 -59.3816 -31.7328   H         1 RES1   0.0000
    40 H7     -16.5172 -57.3067 -30.3407   H         1 RES1   0.0000
    41 H8     -16.3563 -56.0807 -31.6188   H         1 RES1   0.0000
    42 H9     -14.1314 -55.4961 -30.8076   H         1 RES1   0.0000
    43 H10    -15.3238 -55.3581 -29.4955   H         1 RES1   0.0000
    44 H11    -12.9378 -58.6349 -27.4952   H         1 RES1   0.0000
    45 H12    -10.2339 -51.5158 -20.6205   H         1 RES1   0.0000
    46 H13    -14.5284 -57.2922 -32.5053   H         1 RES1   0.0000
    47 H14    -16.6004 -59.0720 -31.9374   H         1 RES1   0.0000
    48 H15    -16.5758 -57.7994 -33.1794   H         1 RES1   0.0000
    49 H16    -15.4034 -59.1346 -33.2511   H         1 RES1   0.0000
    50 H17     -8.7898 -48.6625 -17.0684   H         1 RES1   0.0000
    51 H18     -7.4202 -48.1327 -18.0714   H         1 RES1   0.0000
    52 H19     -9.0057 -48.4333 -18.8186   H         1 RES1   0.0000
    53 H20     -7.2331 -50.5426 -17.5066   H         1 RES1   0.0000
    54 H21     -7.4490 -50.3135 -19.2568   H         1 RES1   0.0000
    55 H22     -9.7761 -54.0273 -16.5087   H         1 RES1   0.0000
    56 H23    -11.8408 -55.4500 -16.4720   H         1 RES1   0.0000
    57 H24    -12.2649 -58.0119 -25.1800   H         1 RES1   0.0000
    58 H25    -12.6962 -56.2012 -23.2503   H         1 RES1   0.0000
    59 H26    -13.6012 -53.9910 -25.8617   H         1 RES1   0.0000
    60 H27    -13.3624 -55.4588 -18.4405   H         1 RES1   0.0000
    61 H28    -12.8673 -54.0658 -20.4463   H         1 RES1   0.0000
@<TRIPOS>BOND
     1     1     2    1
     2     2     3    1
     3     3     4    2
     4     3     5    1
     5     5     6    1
     6     6     7   ar
     7     7     8   ar
     8     8     9   ar
     9     9    10   ar
    10    10    11   ar
    11    11    12    1
    12    12    13    1
    13    13    14   ar
    14    14    15   ar
    15    15    16    1
    16    16    17    1
    17    17    18   ar
    18    18    19   ar
    19    19    20   ar
    20    20    21    1
    21    21    22    1
    22    22    23    1
    23    23    24    1
    24    24    25    1
    25    24    26    1
    26    26    27    1
    27    20    28   ar
    28    28    29   ar
    29    15    30   ar
    30    30    31   ar
    31    31    32   ar
    32    32    33    1
    33    11     6   ar
    34    32    13   ar
    35    29    17   ar
    36    27    21    1
    37    19    34    1
    38    31    35    1
    39    22    36    1
    40    22    37    1
    41    23    38    1
    42    23    39    1
    43    26    40    1
    44    26    41    1
    45    27    42    1
    46    27    43    1
    47    28    44    1
    48    12    45    1
    49    24    46    1
    50    25    47    1
    51    25    48    1
    52    25    49    1
    53     1    50    1
    54     1    51    1
    55     1    52    1
    56     2    53    1
    57     2    54    1
    58     7    55    1
    59     8    56    1
    60    29    57    1
    61    16    58    1
    62    18    59    1
    63     9    60    1
    64    10    61    1
@<TRIPOS>SUBSTRUCTURE
     1 RES1        1 GROUP             0 ****  ****    0  
@<TRIPOS>CRYSIN
    1.0000    1.0000    1.0000   90.0000   90.0000   90.0000     1     1
@<TRIPOS>MOLECULE
ligand_35
    61    64     1     0     0
SMALL
USER_CHARGES
****
Generated from the CSD

@<TRIPOS>ATOM
     1 C1      -8.2792 -48.7699 -18.1531   C.3       1 RES1   0.0000
     2 C2      -7.8989 -50.2393 -18.3283   C.3       1 RES1   0.0000
     3 C3      -9.1794 -51.0761 -18.2796   C.2       1 RES1   0.0000
     4 O4     -10.2517 -50.6086 -18.0592   O.2       1 RES1   0.0000
     5 O5      -9.0015 -52.4615 -18.5141   O.3       1 RES1   0.0000
     6 C6     -10.1852 -53.2683 -18.4711   C.ar      1 RES1   0.0000
     7 C7     -10.8286 -53.6244 -19.6582   C.ar      1 RES1   0.0000
     8 C8     -11.9905 -54.4145 -19.5956   C.ar      1 RES1   0.0000
     9 C9     -12.4816 -54.8228 -18.3437   C.ar      1 RES1   0.0000
    10 C10    -11.8336 -54.4580 -17.1493   C.ar      1 RES1   0.0000
    11 C11    -10.6743 -53.6673 -17.2129   C.ar      1 RES1   0.0000
    12 N12     -9.9437 -53.2583 -15.9741   N.pl3     1 RES1   0.0000
    13 C13     -9.8634 -54.0872 -14.7655   C.ar      1 RES1   0.0000
    14 N14    -10.4327 -55.2975 -14.7379   N.ar      1 RES1   0.0000
    15 C15    -10.3611 -56.0494 -13.6497   C.ar      1 RES1   0.0000
    16 N16    -10.9855 -57.3742 -13.6056   N.pl3     1 RES1   0.0000
    17 C17    -10.8924 -58.2787 -12.4447   C.ar      1 RES1   0.0000
    18 C18     -9.6847 -58.3690 -11.7715   C.ar      1 RES1   0.0000
    19 C19     -9.5620 -59.2117 -10.6581   C.ar      1 RES1   0.0000
    20 C20    -10.6528 -59.9605 -10.2285   C.ar      1 RES1   0.0000
    21 N21    -10.5002 -60.8502  -9.0503   N.pl3     1 RES1   0.0000
    22 C22    -11.5554 -61.0945  -8.0719   C.3       1 RES1   0.0000
    23 C23    -11.4938 -62.5236  -7.5915   C.3       1 RES1   0.0000
    24 N24    -10.1453 -62.8380  -7.0344   N.4       1 RES1   1.0000
    25 C25    -10.1222 -64.0548  -6.6374   C.3       1 RES1   0.0000
    26 C26     -9.0780 -62.5199  -8.0282   C.3       1 RES1   0.0000
    27 C27     -9.1788 -61.0858  -8.4842   C.3       1 RES1   0.0000
    28 C28    -11.8660 -59.8730 -10.8997   C.ar      1 RES1   0.0000
    29 C29    -11.9864 -59.0257 -12.0090   C.ar      1 RES1   0.0000
    30 N30     -9.7307 -55.6524 -12.5733   N.ar      1 RES1   0.0000
    31 C31     -9.1346 -54.4680 -12.5144   C.ar      1 RES1   0.0000
    32 C32     -9.1932 -53.6460 -13.6410   C.ar      1 RES1   0.0000
    33 Cl33    -8.4037 -52.0565 -13.5882   Cl        1 RES1   0.0000
    34 H1      -9.4771 -52.3569 -15.9687   H         1 RES1   0.0000
    35 H2     -12.2260 -54.7846 -16.1874   H         1 RES1   0.0000
    36 H3     -11.5098 -57.6858 -14.4169   H         1 RES1   0.0000
    37 H4      -8.8297 -57.7845 -12.1079   H         1 RES1   0.0000
    38 H5      -8.6147 -54.1468 -11.6130   H         1 RES1   0.0000
    39 H6      -8.7768 -48.6356 -17.1938   H         1 RES1   0.0000
    40 H7      -7.3803 -48.1560 -18.1848   H         1 RES1   0.0000
    41 H8      -8.9516 -48.4708 -18.9558   H         1 RES1   0.0000
    42 H9      -7.2288 -50.5445 -17.5259   H         1 RES1   0.0000
    43 H10     -7.4036 -50.3796 -19.2879   H         1 RES1   0.0000
    44 H11    -12.9380 -58.9502 -12.5330   H         1 RES1   0.0000
    45 H12    -12.5052 -54.7074 -20.5095   H         1 RES1   0.0000
    46 H13    -13.3818 -55.4338 -18.2972   H         1 RES1   0.0000
    47 H14    -12.5245 -60.9107  -8.5334   H         1 RES1   0.0000
    48 H15    -11.4238 -60.4233  -7.2245   H         1 RES1   0.0000
    49 H16    -11.6990 -63.1905  -8.4276   H         1 RES1   0.0000
    50 H17    -12.2439 -62.6722  -6.8161   H         1 RES1   0.0000
    51 H18     -9.9996 -62.2452  -6.2235   H         1 RES1   0.0000
    52 H19    -10.3313 -64.7149  -7.4779   H         1 RES1   0.0000
    53 H20     -9.1387 -64.2853  -6.2307   H         1 RES1   0.0000
    54 H21    -10.8770 -64.1993  -5.8659   H         1 RES1   0.0000
    55 H22     -9.1859 -63.1767  -8.8901   H         1 RES1   0.0000
    56 H23     -8.1037 -62.6806  -7.5691   H         1 RES1   0.0000
    57 H24     -9.0240 -60.4226  -7.6345   H         1 RES1   0.0000
    58 H25     -8.4196 -60.8906  -9.2401   H         1 RES1   0.0000
    59 H26    -12.7197 -60.4605 -10.5651   H         1 RES1   0.0000
    60 H27    -10.4362 -53.2949 -20.6191   H         1 RES1   0.0000
    61 H28     -8.6125 -59.2802 -10.1293   H         1 RES1   0.0000
@<TRIPOS>BOND
     1     1     2    1
     2     2     3    1
     3     3     4    2
     4     3     5    1
     5     5     6    1
     6     6     7   ar
     7     7     8   ar
     8     8     9   ar
     9     9    10   ar
    10    10    11   ar
    11    11    12    1
    12    12    13    1
    13    13    14   ar
    14    14    15   ar
    15    15    16    1
    16    16    17    1
    17    17    18   ar
    18    18    19   ar
    19    19    20   ar
    20    20    21    1
    21    21    22    1
    22    22    23    1
    23    23    24    1
    24    24    25    1
    25    24    26    1
    26    26    27    1
    27    20    28   ar
    28    28    29   ar
    29    15    30   ar
    30    30    31   ar
    31    31    32   ar
    32    32    33    1
    33    11     6   ar
    34    32    13   ar
    35    29    17   ar
    36    27    21    1
    37    12    34    1
    38    10    35    1
    39    16    36    1
    40    18    37    1
    41    31    38    1
    42     1    39    1
    43     1    40    1
    44     1    41    1
    45     2    42    1
    46     2    43    1
    47    29    44    1
    48     8    45    1
    49     9    46    1
    50    22    47    1
    51    22    48    1
    52    23    49    1
    53    23    50    1
    54    24    51    1
    55    25    52    1
    56    25    53    1
    57    25    54    1
    58    26    55    1
    59    26    56    1
    60    27    57    1
    61    27    58    1
    62    28    59    1
    63     7    60    1
    64    19    61    1
@<TRIPOS>SUBSTRUCTURE
     1 RES1        1 GROUP             0 ****  ****    0  
@<TRIPOS>CRYSIN
    1.0000    1.0000    1.0000   90.0000   90.0000   90.0000     1     1
@<TRIPOS>MOLECULE
ligand_36
    61    64     1     0     0
SMALL
USER_CHARGES
****
Generated from the CSD

@<TRIPOS>ATOM
     1 C1      -9.1549 -48.4545 -18.1789   C.3       1 RES1   0.0000
     2 C2      -8.5233 -49.8378 -18.3266   C.3       1 RES1   0.0000
     3 C3      -9.6423 -50.8816 -18.3049   C.2       1 RES1   0.0000
     4 O4     -10.7850 -50.6037 -18.1204   O.2       1 RES1   0.0000
     5 O5      -9.2227 -52.2174 -18.5185   O.3       1 RES1   0.0000
     6 C6     -10.2492 -53.2168 -18.4852   C.ar      1 RES1   0.0000
     7 C7     -11.0101 -53.3951 -17.3279   C.ar      1 RES1   0.0000
     8 C8     -12.0113 -54.3828 -17.3133   C.ar      1 RES1   0.0000
     9 C9     -12.2205 -55.1712 -18.4578   C.ar      1 RES1   0.0000
    10 C10    -11.4487 -54.9923 -19.6205   C.ar      1 RES1   0.0000
    11 C11    -10.4478 -54.0067 -19.6333   C.ar      1 RES1   0.0000
    12 N12     -9.6047 -53.7710 -20.8454   N.pl3     1 RES1   0.0000
    13 C13    -10.0905 -53.9401 -22.2200   C.ar      1 RES1   0.0000
    14 N14    -11.3657 -54.2733 -22.4492   N.ar      1 RES1   0.0000
    15 C15    -11.8087 -54.4252 -23.6883   C.ar      1 RES1   0.0000
    16 N16    -13.2016 -54.7955 -23.9516   N.pl3     1 RES1   0.0000
    17 C17    -14.2243 -54.9167 -22.8961   C.ar      1 RES1   0.0000
    18 C18    -15.4319 -55.5186 -23.2113   C.ar      1 RES1   0.0000
    19 C19    -16.4239 -55.6593 -22.2310   C.ar      1 RES1   0.0000
    20 C20    -16.1978 -55.1927 -20.9401   C.ar      1 RES1   0.0000
    21 N21    -17.2632 -55.3473 -19.9183   N.pl3     1 RES1   0.0000
    22 C22    -17.0056 -55.6173 -18.5073   C.3       1 RES1   0.0000
    23 C23    -18.0212 -54.9020 -17.6505   C.3       1 RES1   0.0000
    24 N24    -19.4093 -55.2895 -18.0389   N.4       1 RES1   1.0000
    25 C25    -20.2477 -54.6672 -17.2982   C.3       1 RES1   0.0000
    26 C26    -19.6295 -55.0655 -19.4982   C.3       1 RES1   0.0000
    27 C27    -18.5919 -55.7931 -20.3159   C.3       1 RES1   0.0000
    28 C28    -14.9884 -54.5891 -20.6190   C.ar      1 RES1   0.0000
    29 C29    -13.9973 -54.4549 -21.6001   C.ar      1 RES1   0.0000
    30 N30    -11.0332 -54.2482 -24.7280   N.ar      1 RES1   0.0000
    31 C31     -9.7560 -53.9132 -24.5930   C.ar      1 RES1   0.0000
    32 C32     -9.2526 -53.7489 -23.3015   C.ar      1 RES1   0.0000
    33 Cl33    -7.5472 -53.3006 -23.0935   Cl        1 RES1   0.0000
    34 H1     -15.6105 -55.8828 -24.2219   H         1 RES1   0.0000
    35 H2     -10.8307 -52.7779 -16.4488   H         1 RES1   0.0000
    36 H3     -12.6192 -54.5354 -16.4228   H         1 RES1   0.0000
    37 H4     -13.4772 -54.9783 -24.9112   H         1 RES1   0.0000
    38 H5     -12.9956 -55.9360 -18.4444   H         1 RES1   0.0000
    39 H6     -11.6251 -55.6103 -20.4997   H         1 RES1   0.0000
    40 H7     -16.0068 -55.2680 -18.2499   H         1 RES1   0.0000
    41 H8     -17.0729 -56.6892 -18.3272   H         1 RES1   0.0000
    42 H9     -19.5662 -53.9990 -19.7089   H         1 RES1   0.0000
    43 H10    -20.6186 -55.4312 -19.7700   H         1 RES1   0.0000
    44 H11    -18.6815 -56.8650 -20.1460   H         1 RES1   0.0000
    45 H12    -18.7461 -55.5788 -21.3724   H         1 RES1   0.0000
    46 H13     -8.6425 -53.4776 -20.7100   H         1 RES1   0.0000
    47 H14    -17.9018 -53.8271 -17.7776   H         1 RES1   0.0000
    48 H15    -17.8561 -55.1647 -16.6066   H         1 RES1   0.0000
    49 H16    -19.5151 -56.2828 -17.8589   H         1 RES1   0.0000
    50 H17    -20.1201 -53.5936 -17.4284   H         1 RES1   0.0000
    51 H18    -21.2609 -54.9492 -17.5807   H         1 RES1   0.0000
    52 H19    -20.0753 -54.9295 -16.2554   H         1 RES1   0.0000
    53 H20    -14.8116 -54.2219 -19.6091   H         1 RES1   0.0000
    54 H21    -13.0459 -53.9881 -21.3496   H         1 RES1   0.0000
    55 H22     -9.6967 -48.4017 -17.2357   H         1 RES1   0.0000
    56 H23     -8.3740 -47.6956 -18.1920   H         1 RES1   0.0000
    57 H24     -9.8442 -48.2802 -19.0038   H         1 RES1   0.0000
    58 H25     -7.8352 -50.0184 -17.5021   H         1 RES1   0.0000
    59 H26     -7.9827 -49.8970 -19.2701   H         1 RES1   0.0000
    60 H27     -9.1191 -53.7706 -25.4648   H         1 RES1   0.0000
    61 H28    -17.3718 -56.1340 -22.4800   H         1 RES1   0.0000
@<TRIPOS>BOND
     1     1     2    1
     2     2     3    1
     3     3     4    2
     4     3     5    1
     5     5     6    1
     6     6     7   ar
     7     7     8   ar
     8     8     9   ar
     9     9    10   ar
    10    10    11   ar
    11    11    12    1
    12    12    13    1
    13    13    14   ar
    14    14    15   ar
    15    15    16    1
    16    16    17    1
    17    17    18   ar
    18    18    19   ar
    19    19    20   ar
    20    20    21    1
    21    21    22    1
    22    22    23    1
    23    23    24    1
    24    24    25    1
    25    24    26    1
    26    26    27    1
    27    20    28   ar
    28    28    29   ar
    29    15    30   ar
    30    30    31   ar
    31    31    32   ar
    32    32    33    1
    33    11     6   ar
    34    32    13   ar
    35    29    17   ar
    36    27    21    1
    37    18    34    1
    38     7    35    1
    39     8    36    1
    40    16    37    1
    41     9    38    1
    42    10    39    1
    43    22    40    1
    44    22    41    1
    45    26    42    1
    46    26    43    1
    47    27    44    1
    48    27    45    1
    49    12    46    1
    50    23    47    1
    51    23    48    1
    52    24    49    1
    53    25    50    1
    54    25    51    1
    55    25    52    1
    56    28    53    1
    57    29    54    1
    58     1    55    1
    59     1    56    1
    60     1    57    1
    61     2    58    1
    62     2    59    1
    63    31    60    1
    64    19    61    1
@<TRIPOS>SUBSTRUCTURE
     1 RES1        1 GROUP             0 ****  ****    0  
@<TRIPOS>CRYSIN
    1.0000    1.0000    1.0000   90.0000   90.0000   90.0000     1     1
@<TRIPOS>MOLECULE
ligand_37
    61    64     1     0     0
SMALL
USER_CHARGES
****
Generated from the CSD

@<TRIPOS>ATOM
     1 C1      -9.2739 -48.3918 -17.8873   C.3       1 RES1   0.0000
     2 C2      -8.6162 -49.7604 -18.0574   C.3       1 RES1   0.0000
     3 C3      -9.7197 -50.8188 -18.1238   C.2       1 RES1   0.0000
     4 O4     -10.8733 -50.5629 -17.9803   O.2       1 RES1   0.0000
     5 O5      -9.2714 -52.1400 -18.3675   O.3       1 RES1   0.0000
     6 C6     -10.2851 -53.1511 -18.4314   C.ar      1 RES1   0.0000
     7 C7     -10.5282 -53.9644 -17.3226   C.ar      1 RES1   0.0000
     8 C8     -11.5252 -54.9530 -17.4052   C.ar      1 RES1   0.0000
     9 C9     -12.2496 -55.1052 -18.5998   C.ar      1 RES1   0.0000
    10 C10    -11.9986 -54.2873 -19.7168   C.ar      1 RES1   0.0000
    11 C11    -11.0014 -53.3016 -19.6338   C.ar      1 RES1   0.0000
    12 N12    -10.7002 -52.4015 -20.7891   N.pl3     1 RES1   0.0000
    13 C13    -11.7216 -51.8933 -21.7126   C.ar      1 RES1   0.0000
    14 N14    -13.0104 -52.2020 -21.5301   N.ar      1 RES1   0.0000
    15 C15    -13.9355 -51.7441 -22.3602   C.ar      1 RES1   0.0000
    16 N16    -15.3494 -52.0799 -22.1738   N.pl3     1 RES1   0.0000
    17 C17    -15.8300 -53.0471 -21.1697   C.ar      1 RES1   0.0000
    18 C18    -17.0068 -52.7685 -20.4932   C.ar      1 RES1   0.0000
    19 C19    -17.4986 -53.6693 -19.5384   C.ar      1 RES1   0.0000
    20 C20    -16.8044 -54.8439 -19.2673   C.ar      1 RES1   0.0000
    21 N21    -17.3400 -55.7819 -18.2493   N.3       1 RES1   0.0000
    22 C22    -17.4325 -55.1414 -16.9246   C.3       1 RES1   0.0000
    23 C23    -17.9991 -56.0845 -15.8934   C.3       1 RES1   0.0000
    24 N24    -17.1062 -57.2798 -15.7949   N.4       1 RES1   1.0000
    25 C25    -17.4340 -58.0601 -14.8345   C.3       1 RES1   0.0000
    26 C26    -17.0979 -57.9560 -17.1263   C.3       1 RES1   0.0000
    27 C27    -16.5430 -57.0120 -18.1670   C.3       1 RES1   0.0000
    28 C28    -15.6245 -55.1280 -19.9434   C.ar      1 RES1   0.0000
    29 C29    -15.1386 -54.2278 -20.9007   C.ar      1 RES1   0.0000
    30 N30    -13.6358 -50.9723 -23.3742   N.ar      1 RES1   0.0000
    31 C31    -12.3833 -50.6136 -23.6278   C.ar      1 RES1   0.0000
    32 C32    -11.3807 -51.0810 -22.7767   C.ar      1 RES1   0.0000
    33 Cl33    -9.6968 -50.6154 -23.0938   Cl        1 RES1   0.0000
    34 H1     -18.0786 -54.2679 -16.9982   H         1 RES1   0.0000
    35 H2     -16.4368 -54.8311 -16.6112   H         1 RES1   0.0000
    36 H3     -16.0343 -51.6227 -22.7671   H         1 RES1   0.0000
    37 H4     -17.5503 -51.8486 -20.7036   H         1 RES1   0.0000
    38 H5      -7.9625 -49.9626 -17.2103   H         1 RES1   0.0000
    39 H6      -8.0339 -49.7773 -18.9775   H         1 RES1   0.0000
    40 H7     -13.0207 -55.8716 -18.6622   H         1 RES1   0.0000
    41 H8     -12.5705 -54.4169 -20.6345   H         1 RES1   0.0000
    42 H9     -18.9984 -56.3972 -16.1926   H         1 RES1   0.0000
    43 H10    -18.0494 -55.5841 -14.9275   H         1 RES1   0.0000
    44 H11    -16.1648 -56.9466 -15.6131   H         1 RES1   0.0000
    45 H12    -12.1448 -49.9730 -24.4756   H         1 RES1   0.0000
    46 H13     -9.7354 -52.1265 -20.9434   H         1 RES1   0.0000
    47 H14     -9.9537 -53.8350 -16.4065   H         1 RES1   0.0000
    48 H15    -11.7340 -55.5950 -16.5507   H         1 RES1   0.0000
    49 H16     -9.8574 -48.3812 -16.9678   H         1 RES1   0.0000
    50 H17     -8.5043 -47.6229 -17.8378   H         1 RES1   0.0000
    51 H18     -9.9288 -48.1959 -18.7351   H         1 RES1   0.0000
    52 H19    -18.4524 -58.4147 -14.9863   H         1 RES1   0.0000
    53 H20    -16.7537 -58.9101 -14.8091   H         1 RES1   0.0000
    54 H21    -17.3747 -57.5194 -13.8911   H         1 RES1   0.0000
    55 H22    -18.1145 -58.2375 -17.3968   H         1 RES1   0.0000
    56 H23    -16.4752 -58.8480 -17.0765   H         1 RES1   0.0000
    57 H24    -15.5187 -56.7541 -17.9021   H         1 RES1   0.0000
    58 H25    -16.5534 -57.5072 -19.1369   H         1 RES1   0.0000
    59 H26    -15.0796 -56.0465 -19.7302   H         1 RES1   0.0000
    60 H27    -14.2174 -54.4510 -21.4368   H         1 RES1   0.0000
    61 H28    -18.4244 -53.4495 -19.0087   H         1 RES1   0.0000
@<TRIPOS>BOND
     1     1     2    1
     2     2     3    1
     3     3     4    2
     4     3     5    1
     5     5     6    1
     6     6     7   ar
     7     7     8   ar
     8     8     9   ar
     9     9    10   ar
    10    10    11   ar
    11    11    12    1
    12    12    13    1
    13    13    14   ar
    14    14    15   ar
    15    15    16    1
    16    16    17    1
    17    17    18   ar
    18    18    19   ar
    19    19    20   ar
    20    20    21    1
    21    21    22    1
    22    22    23    1
    23    23    24    1
    24    24    25    1
    25    24    26    1
    26    26    27    1
    27    20    28   ar
    28    28    29   ar
    29    15    30   ar
    30    30    31   ar
    31    31    32   ar
    32    32    33    1
    33    11     6   ar
    34    32    13   ar
    35    29    17   ar
    36    27    21    1
    37    22    34    1
    38    22    35    1
    39    16    36    1
    40    18    37    1
    41     2    38    1
    42     2    39    1
    43     9    40    1
    44    10    41    1
    45    23    42    1
    46    23    43    1
    47    24    44    1
    48    31    45    1
    49    12    46    1
    50     7    47    1
    51     8    48    1
    52     1    49    1
    53     1    50    1
    54     1    51    1
    55    25    52    1
    56    25    53    1
    57    25    54    1
    58    26    55    1
    59    26    56    1
    60    27    57    1
    61    27    58    1
    62    28    59    1
    63    29    60    1
    64    19    61    1
@<TRIPOS>SUBSTRUCTURE
     1 RES1        1 GROUP             0 ****  ****    0  
@<TRIPOS>CRYSIN
    1.0000    1.0000    1.0000   90.0000   90.0000   90.0000     1     1
@<TRIPOS>MOLECULE
ligand_38
    61    64     1     0     0
SMALL
USER_CHARGES
****
Generated from the CSD

@<TRIPOS>ATOM
     1 C1      -8.2758 -48.7719 -18.1545   C.3       1 RES1   0.0000
     2 C2      -7.8965 -50.2416 -18.3292   C.3       1 RES1   0.0000
     3 C3      -9.1776 -51.0775 -18.2803   C.2       1 RES1   0.0000
     4 O4     -10.2495 -50.6091 -18.0602   O.2       1 RES1   0.0000
     5 O5      -9.0006 -52.4631 -18.5143   O.3       1 RES1   0.0000
     6 C6     -10.1849 -53.2690 -18.4711   C.ar      1 RES1   0.0000
     7 C7     -10.8284 -53.6251 -19.6581   C.ar      1 RES1   0.0000
     8 C8     -11.9909 -54.4143 -19.5955   C.ar      1 RES1   0.0000
     9 C9     -12.4824 -54.8219 -18.3435   C.ar      1 RES1   0.0000
    10 C10    -11.8343 -54.4571 -17.1491   C.ar      1 RES1   0.0000
    11 C11    -10.6744 -53.6672 -17.2128   C.ar      1 RES1   0.0000
    12 N12     -9.9437 -53.2583 -15.9741   N.pl3     1 RES1   0.0000
    13 C13     -9.8634 -54.0872 -14.7655   C.ar      1 RES1   0.0000
    14 N14    -10.4327 -55.2975 -14.7379   N.ar      1 RES1   0.0000
    15 C15    -10.3611 -56.0494 -13.6497   C.ar      1 RES1   0.0000
    16 N16    -10.9855 -57.3742 -13.6056   N.pl3     1 RES1   0.0000
    17 C17    -11.0122 -58.2207 -12.3984   C.ar      1 RES1   0.0000
    18 C18    -11.1623 -57.6086 -11.1645   C.ar      1 RES1   0.0000
    19 C19    -11.2012 -58.3824  -9.9962   C.ar      1 RES1   0.0000
    20 C20    -11.0871 -59.7666 -10.0742   C.ar      1 RES1   0.0000
    21 N21    -11.1260 -60.5670  -8.8249   N.3       1 RES1   0.0000
    22 C22    -10.0268 -60.1962  -7.9149   C.3       1 RES1   0.0000
    23 C23    -10.0780 -60.9908  -6.6344   C.3       1 RES1   0.0000
    24 N24     -9.9653 -62.4441  -6.9670   N.4       1 RES1   1.0000
    25 C25     -9.8495 -63.1790  -5.9252   C.3       1 RES1   0.0000
    26 C26    -11.1356 -62.8108  -7.8192   C.3       1 RES1   0.0000
    27 C27    -11.0975 -62.0089  -9.0988   C.3       1 RES1   0.0000
    28 C28    -10.9372 -60.3851 -11.3092   C.ar      1 RES1   0.0000
    29 C29    -10.9039 -59.6089 -12.4751   C.ar      1 RES1   0.0000
    30 N30     -9.7307 -55.6524 -12.5733   N.ar      1 RES1   0.0000
    31 C31     -9.1346 -54.4680 -12.5144   C.ar      1 RES1   0.0000
    32 C32     -9.1932 -53.6460 -13.6410   C.ar      1 RES1   0.0000
    33 Cl33    -8.4037 -52.0565 -13.5882   Cl        1 RES1   0.0000
    34 H1     -10.4356 -53.2963 -20.6191   H         1 RES1   0.0000
    35 H2      -7.2267 -50.5470 -17.5267   H         1 RES1   0.0000
    36 H3      -7.4012 -50.3825 -19.2888   H         1 RES1   0.0000
    37 H4      -8.7734 -48.6370 -17.1953   H         1 RES1   0.0000
    38 H5      -7.3765 -48.1586 -18.1864   H         1 RES1   0.0000
    39 H6      -8.9479 -48.4726 -18.9574   H         1 RES1   0.0000
    40 H7     -12.5058 -54.7070 -20.5094   H         1 RES1   0.0000
    41 H8     -13.3830 -55.4324 -18.2969   H         1 RES1   0.0000
    42 H9     -10.1064 -59.1364  -7.6772   H         1 RES1   0.0000
    43 H10     -9.0766 -60.3865  -8.4117   H         1 RES1   0.0000
    44 H11    -11.0219 -60.8037  -6.1246   H         1 RES1   0.0000
    45 H12     -9.2520 -60.6977  -5.9880   H         1 RES1   0.0000
    46 H13     -9.1270 -62.5679  -7.5257   H         1 RES1   0.0000
    47 H14    -11.2502 -56.5249 -11.1022   H         1 RES1   0.0000
    48 H15    -11.3208 -57.8998  -9.0273   H         1 RES1   0.0000
    49 H16     -8.6147 -54.1468 -11.6130   H         1 RES1   0.0000
    50 H17    -12.2270 -54.7831 -16.1871   H         1 RES1   0.0000
    51 H18    -10.7239 -63.0479  -5.2895   H         1 RES1   0.0000
    52 H19     -9.7715 -64.2232  -6.2244   H         1 RES1   0.0000
    53 H20     -8.9546 -62.8910  -5.3755   H         1 RES1   0.0000
    54 H21    -12.0578 -62.5939  -7.2822   H         1 RES1   0.0000
    55 H22    -11.0942 -63.8731  -8.0552   H         1 RES1   0.0000
    56 H23    -11.4227 -57.7279 -14.4505   H         1 RES1   0.0000
    57 H24    -10.1842 -62.2491  -9.6411   H         1 RES1   0.0000
    58 H25    -11.9611 -62.2715  -9.7080   H         1 RES1   0.0000
    59 H26    -10.8460 -61.4685 -11.3707   H         1 RES1   0.0000
    60 H27    -10.7930 -60.0915 -13.4450   H         1 RES1   0.0000
    61 H28     -9.4770 -52.3570 -15.9687   H         1 RES1   0.0000
@<TRIPOS>BOND
     1     1     2    1
     2     2     3    1
     3     3     4    2
     4     3     5    1
     5     5     6    1
     6     6     7   ar
     7     7     8   ar
     8     8     9   ar
     9     9    10   ar
    10    10    11   ar
    11    11    12    1
    12    12    13    1
    13    13    14   ar
    14    14    15   ar
    15    15    16    1
    16    16    17    1
    17    17    18   ar
    18    18    19   ar
    19    19    20   ar
    20    20    21    1
    21    21    22    1
    22    22    23    1
    23    23    24    1
    24    24    25    1
    25    24    26    1
    26    26    27    1
    27    20    28   ar
    28    28    29   ar
    29    15    30   ar
    30    30    31   ar
    31    31    32   ar
    32    32    33    1
    33    11     6   ar
    34    32    13   ar
    35    29    17   ar
    36    27    21    1
    37     7    34    1
    38     2    35    1
    39     2    36    1
    40     1    37    1
    41     1    38    1
    42     1    39    1
    43     8    40    1
    44     9    41    1
    45    22    42    1
    46    22    43    1
    47    23    44    1
    48    23    45    1
    49    24    46    1
    50    18    47    1
    51    19    48    1
    52    31    49    1
    53    10    50    1
    54    25    51    1
    55    25    52    1
    56    25    53    1
    57    26    54    1
    58    26    55    1
    59    16    56    1
    60    27    57    1
    61    27    58    1
    62    28    59    1
    63    29    60    1
    64    12    61    1
@<TRIPOS>SUBSTRUCTURE
     1 RES1        1 GROUP             0 ****  ****    0  
@<TRIPOS>CRYSIN
    1.0000    1.0000    1.0000   90.0000   90.0000   90.0000     1     1
@<TRIPOS>MOLECULE
ligand_39
    61    64     1     0     0
SMALL
USER_CHARGES
****
Generated from the CSD

@<TRIPOS>ATOM
     1 C1      -8.2175 -48.8072 -18.1813   C.3       1 RES1   0.0000
     2 C2      -7.8637 -50.2835 -18.3537   C.3       1 RES1   0.0000
     3 C3      -9.1581 -51.0980 -18.2930   C.2       1 RES1   0.0000
     4 O4     -10.2206 -50.6113 -18.0670   O.2       1 RES1   0.0000
     5 O5      -9.0056 -52.4871 -18.5235   O.3       1 RES1   0.0000
     6 C6     -10.2027 -53.2732 -18.4693   C.ar      1 RES1   0.0000
     7 C7     -10.8604 -53.6225 -19.6506   C.ar      1 RES1   0.0000
     8 C8     -12.0352 -54.3923 -19.5771   C.ar      1 RES1   0.0000
     9 C9     -12.5245 -54.7875 -18.3203   C.ar      1 RES1   0.0000
    10 C10    -11.8621 -54.4295 -17.1317   C.ar      1 RES1   0.0000
    11 C11    -10.6898 -53.6592 -17.2063   C.ar      1 RES1   0.0000
    12 N12     -9.9437 -53.2583 -15.9741   N.pl3     1 RES1   0.0000
    13 C13     -9.8634 -54.0872 -14.7655   C.ar      1 RES1   0.0000
    14 N14    -10.4327 -55.2975 -14.7379   N.ar      1 RES1   0.0000
    15 C15    -10.3611 -56.0494 -13.6497   C.ar      1 RES1   0.0000
    16 N16    -10.9855 -57.3742 -13.6056   N.pl3     1 RES1   0.0000
    17 C17    -11.6301 -58.0086 -14.7703   C.ar      1 RES1   0.0000
    18 C18    -12.4117 -59.1336 -14.5623   C.ar      1 RES1   0.0000
    19 C19    -13.0472 -59.7578 -15.6447   C.ar      1 RES1   0.0000
    20 C20    -12.8922 -59.2492 -16.9302   C.ar      1 RES1   0.0000
    21 N21    -13.5698 -59.9279 -18.0630   N.pl3     1 RES1   0.0000
    22 C22    -13.1352 -59.8243 -19.4524   C.3       1 RES1   0.0000
    23 C23    -13.3585 -61.1367 -20.1629   C.3       1 RES1   0.0000
    24 N24    -14.7876 -61.5562 -20.0647   N.4       1 RES1   1.0000
    25 C25    -14.9464 -62.6711 -20.6734   C.3       1 RES1   0.0000
    26 C26    -15.2286 -61.5927 -18.6392   C.3       1 RES1   0.0000
    27 C27    -14.9838 -60.2650 -17.9669   C.3       1 RES1   0.0000
    28 C28    -12.1101 -58.1210 -17.1438   C.ar      1 RES1   0.0000
    29 C29    -11.4807 -57.4968 -16.0588   C.ar      1 RES1   0.0000
    30 N30     -9.7307 -55.6524 -12.5733   N.ar      1 RES1   0.0000
    31 C31     -9.1346 -54.4680 -12.5144   C.ar      1 RES1   0.0000
    32 C32     -9.1932 -53.6460 -13.6410   C.ar      1 RES1   0.0000
    33 Cl33    -8.4037 -52.0565 -13.5882   Cl        1 RES1   0.0000
    34 H1     -10.9737 -57.8821 -12.7269   H         1 RES1   0.0000
    35 H2     -15.3483 -60.8592 -20.5443   H         1 RES1   0.0000
    36 H3     -14.3127 -63.4287 -20.2146   H         1 RES1   0.0000
    37 H4     -15.9888 -62.9782 -20.6024   H         1 RES1   0.0000
    38 H5     -14.6727 -62.5549 -21.7210   H         1 RES1   0.0000
    39 H6     -14.6718 -62.3669 -18.1133   H         1 RES1   0.0000
    40 H7     -16.2927 -61.8212 -18.6007   H         1 RES1   0.0000
    41 H8      -9.4660 -52.3627 -15.9734   H         1 RES1   0.0000
    42 H9     -10.4691 -53.3033 -20.6154   H         1 RES1   0.0000
    43 H10     -8.7060 -48.6610 -17.2191   H         1 RES1   0.0000
    44 H11     -7.3084 -48.2090 -18.2215   H         1 RES1   0.0000
    45 H12     -8.8902 -48.4994 -18.9804   H         1 RES1   0.0000
    46 H13     -7.1934 -50.5973 -17.5549   H         1 RES1   0.0000
    47 H14     -7.3776 -50.4357 -19.3162   H         1 RES1   0.0000
    48 H15    -12.5325 -59.5334 -13.5566   H         1 RES1   0.0000
    49 H16    -13.6624 -60.6410 -15.4792   H         1 RES1   0.0000
    50 H17    -12.5612 -54.6797 -20.4863   H         1 RES1   0.0000
    51 H18    -13.4347 -55.3828 -18.2653   H         1 RES1   0.0000
    52 H19    -12.2534 -54.7457 -16.1659   H         1 RES1   0.0000
    53 H20    -12.0756 -59.5746 -19.4810   H         1 RES1   0.0000
    54 H21    -13.7060 -59.0425 -19.9513   H         1 RES1   0.0000
    55 H22    -12.7301 -61.9007 -19.7075   H         1 RES1   0.0000
    56 H23    -13.0907 -61.0246 -21.2125   H         1 RES1   0.0000
    57 H24    -15.5754 -59.4941 -18.4586   H         1 RES1   0.0000
    58 H25    -15.2715 -60.3300 -16.9186   H         1 RES1   0.0000
    59 H26    -11.9868 -57.7236 -18.1502   H         1 RES1   0.0000
    60 H27    -10.8724 -56.6084 -16.2224   H         1 RES1   0.0000
    61 H28     -8.6147 -54.1468 -11.6130   H         1 RES1   0.0000
@<TRIPOS>BOND
     1     1     2    1
     2     2     3    1
     3     3     4    2
     4     3     5    1
     5     5     6    1
     6     6     7   ar
     7     7     8   ar
     8     8     9   ar
     9     9    10   ar
    10    10    11   ar
    11    11    12    1
    12    12    13    1
    13    13    14   ar
    14    14    15   ar
    15    15    16    1
    16    16    17    1
    17    17    18   ar
    18    18    19   ar
    19    19    20   ar
    20    20    21    1
    21    21    22    1
    22    22    23    1
    23    23    24    1
    24    24    25    1
    25    24    26    1
    26    26    27    1
    27    20    28   ar
    28    28    29   ar
    29    15    30   ar
    30    30    31   ar
    31    31    32   ar
    32    32    33    1
    33    11     6   ar
    34    32    13   ar
    35    29    17   ar
    36    27    21    1
    37    16    34    1
    38    24    35    1
    39    25    36    1
    40    25    37    1
    41    25    38    1
    42    26    39    1
    43    26    40    1
    44    12    41    1
    45     7    42    1
    46     1    43    1
    47     1    44    1
    48     1    45    1
    49     2    46    1
    50     2    47    1
    51    18    48    1
    52    19    49    1
    53     8    50    1
    54     9    51    1
    55    10    52    1
    56    22    53    1
    57    22    54    1
    58    23    55    1
    59    23    56    1
    60    27    57    1
    61    27    58    1
    62    28    59    1
    63    29    60    1
    64    31    61    1
@<TRIPOS>SUBSTRUCTURE
     1 RES1        1 GROUP             0 ****  ****    0  
@<TRIPOS>CRYSIN
    1.0000    1.0000    1.0000   90.0000   90.0000   90.0000     1     1
@<TRIPOS>MOLECULE
ligand_40
    61    64     1     0     0
SMALL
USER_CHARGES
****
Generated from the CSD

@<TRIPOS>ATOM
     1 C1      -9.3148 -48.4714 -18.0607   C.3       1 RES1   0.0000
     2 C2      -8.6466 -49.8258 -18.2921   C.3       1 RES1   0.0000
     3 C3      -9.7251 -50.9100 -18.2323   C.2       1 RES1   0.0000
     4 O4     -10.8623 -50.6797 -17.9667   O.2       1 RES1   0.0000
     5 O5      -9.2742 -52.2227 -18.5145   O.3       1 RES1   0.0000
     6 C6     -10.2643 -53.2575 -18.4622   C.ar      1 RES1   0.0000
     7 C7     -10.8614 -53.7100 -19.6406   C.ar      1 RES1   0.0000
     8 C8     -11.8330 -54.7244 -19.5689   C.ar      1 RES1   0.0000
     9 C9     -12.1859 -55.2556 -18.3166   C.ar      1 RES1   0.0000
    10 C10    -11.5859 -54.7938 -17.1307   C.ar      1 RES1   0.0000
    11 C11    -10.6169 -53.7793 -17.2033   C.ar      1 RES1   0.0000
    12 N12     -9.9437 -53.2583 -15.9741   N.pl3     1 RES1   0.0000
    13 C13    -10.6120 -53.1263 -14.6741   C.ar      1 RES1   0.0000
    14 N14    -11.9181 -53.3909 -14.5564   N.ar      1 RES1   0.0000
    15 C15    -12.5248 -53.2747 -13.3846   C.ar      1 RES1   0.0000
    16 N16    -13.9557 -53.5562 -13.2446   N.pl3     1 RES1   0.0000
    17 C17    -14.8459 -53.8324 -14.3874   C.ar      1 RES1   0.0000
    18 C18    -16.1790 -54.1133 -14.1347   C.ar      1 RES1   0.0000
    19 C19    -17.0563 -54.3718 -15.1970   C.ar      1 RES1   0.0000
    20 C20    -16.5890 -54.3485 -16.5070   C.ar      1 RES1   0.0000
    21 N21    -17.5335 -54.6296 -17.6169   N.pl3     1 RES1   0.0000
    22 C22    -17.1238 -55.1059 -18.9343   C.3       1 RES1   0.0000
    23 C23    -18.1526 -56.0656 -19.4797   C.3       1 RES1   0.0000
    24 N24    -19.5020 -55.4289 -19.5215   N.4       1 RES1   1.0000
    25 C25    -20.3528 -56.2652 -19.9856   C.3       1 RES1   0.0000
    26 C26    -19.8724 -54.8920 -18.1788   C.3       1 RES1   0.0000
    27 C27    -18.8169 -53.9424 -17.6701   C.3       1 RES1   0.0000
    28 C28    -15.2534 -54.0667 -16.7656   C.ar      1 RES1   0.0000
    29 C29    -14.3805 -53.8038 -15.7017   C.ar      1 RES1   0.0000
    30 N30    -11.8810 -52.9119 -12.3040   N.ar      1 RES1   0.0000
    31 C31    -10.5835 -52.6336 -12.3289   C.ar      1 RES1   0.0000
    32 C32     -9.9116 -52.7406 -13.5476   C.ar      1 RES1   0.0000
    33 Cl33    -8.1753 -52.3740 -13.6078   Cl        1 RES1   0.0000
    34 H1     -10.5787 -53.2834 -20.6018   H         1 RES1   0.0000
    35 H2     -13.3345 -53.5762 -15.9019   H         1 RES1   0.0000
    36 H3     -10.0582 -52.3305 -11.4244   H         1 RES1   0.0000
    37 H4     -11.8692 -55.2176 -16.1684   H         1 RES1   0.0000
    38 H5     -16.1645 -55.6145 -18.8515   H         1 RES1   0.0000
    39 H6     -17.0278 -54.2577 -19.6105   H         1 RES1   0.0000
    40 H7     -18.1932 -56.9465 -18.8408   H         1 RES1   0.0000
    41 H8     -17.8660 -56.3612 -20.4878   H         1 RES1   0.0000
    42 H9     -18.7438 -53.0874 -18.3405   H         1 RES1   0.0000
    43 H10    -19.0871 -53.5994 -16.6725   H         1 RES1   0.0000
    44 H11    -14.8865 -54.0502 -17.7908   H         1 RES1   0.0000
    45 H12     -8.9699 -52.9803 -16.0425   H         1 RES1   0.0000
    46 H13    -19.4548 -54.6459 -20.1656   H         1 RES1   0.0000
    47 H14    -20.3853 -57.1441 -19.3435   H         1 RES1   0.0000
    48 H15    -21.3377 -55.8017 -20.0165   H         1 RES1   0.0000
    49 H16    -20.0592 -56.5613 -20.9916   H         1 RES1   0.0000
    50 H17    -19.9742 -55.7202 -17.4791   H         1 RES1   0.0000
    51 H18    -20.8211 -54.3629 -18.2555   H         1 RES1   0.0000
    52 H19     -9.7959 -48.4662 -17.0837   H         1 RES1   0.0000
    53 H20     -8.5631 -47.6844 -18.0994   H         1 RES1   0.0000
    54 H21    -10.0617 -48.2983 -18.8341   H         1 RES1   0.0000
    55 H22     -7.9007 -50.0053 -17.5192   H         1 RES1   0.0000
    56 H23     -8.1666 -49.8374 -19.2695   H         1 RES1   0.0000
    57 H24    -16.5457 -54.1333 -13.1095   H         1 RES1   0.0000
    58 H25    -18.1040 -54.5909 -14.9967   H         1 RES1   0.0000
    59 H26    -14.3555 -53.5614 -12.3117   H         1 RES1   0.0000
    60 H27    -12.3078 -55.0951 -20.4761   H         1 RES1   0.0000
    61 H28    -12.9389 -56.0405 -18.2630   H         1 RES1   0.0000
@<TRIPOS>BOND
     1     1     2    1
     2     2     3    1
     3     3     4    2
     4     3     5    1
     5     5     6    1
     6     6     7   ar
     7     7     8   ar
     8     8     9   ar
     9     9    10   ar
    10    10    11   ar
    11    11    12    1
    12    12    13    1
    13    13    14   ar
    14    14    15   ar
    15    15    16    1
    16    16    17    1
    17    17    18   ar
    18    18    19   ar
    19    19    20   ar
    20    20    21    1
    21    21    22    1
    22    22    23    1
    23    23    24    1
    24    24    25    1
    25    24    26    1
    26    26    27    1
    27    20    28   ar
    28    28    29   ar
    29    15    30   ar
    30    30    31   ar
    31    31    32   ar
    32    32    33    1
    33    11     6   ar
    34    32    13   ar
    35    29    17   ar
    36    27    21    1
    37     7    34    1
    38    29    35    1
    39    31    36    1
    40    10    37    1
    41    22    38    1
    42    22    39    1
    43    23    40    1
    44    23    41    1
    45    27    42    1
    46    27    43    1
    47    28    44    1
    48    12    45    1
    49    24    46    1
    50    25    47    1
    51    25    48    1
    52    25    49    1
    53    26    50    1
    54    26    51    1
    55     1    52    1
    56     1    53    1
    57     1    54    1
    58     2    55    1
    59     2    56    1
    60    18    57    1
    61    19    58    1
    62    16    59    1
    63     8    60    1
    64     9    61    1
@<TRIPOS>SUBSTRUCTURE
     1 RES1        1 GROUP             0 ****  ****    0  
@<TRIPOS>CRYSIN
    1.0000    1.0000    1.0000   90.0000   90.0000   90.0000     1     1
@<TRIPOS>MOLECULE
ligand_41
    61    64     1     0     0
SMALL
USER_CHARGES
****
Generated from the CSD

@<TRIPOS>ATOM
     1 C1      -8.0839 -48.9036 -18.0594   C.3       1 RES1   0.0000
     2 C2      -7.7921 -50.3859 -18.2869   C.3       1 RES1   0.0000
     3 C3      -9.1178 -51.1493 -18.2400   C.2       1 RES1   0.0000
     4 O4     -10.1573 -50.6284 -17.9853   O.2       1 RES1   0.0000
     5 O5      -9.0241 -52.5344 -18.5204   O.3       1 RES1   0.0000
     6 C6     -10.2515 -53.2732 -18.4800   C.ar      1 RES1   0.0000
     7 C7     -10.5742 -54.0260 -17.3490   C.ar      1 RES1   0.0000
     8 C8     -11.7819 -54.7465 -17.3290   C.ar      1 RES1   0.0000
     9 C9     -12.6332 -54.6989 -18.4462   C.ar      1 RES1   0.0000
    10 C10    -12.3026 -53.9434 -19.5862   C.ar      1 RES1   0.0000
    11 C11    -11.0953 -53.2256 -19.6058   C.ar      1 RES1   0.0000
    12 N12    -10.7002 -52.4015 -20.7891   N.pl3     1 RES1   0.0000
    13 C13    -11.0078 -52.7694 -22.1763   C.ar      1 RES1   0.0000
    14 N14    -11.5941 -53.9404 -22.4501   N.ar      1 RES1   0.0000
    15 C15    -11.8749 -54.2756 -23.7004   C.ar      1 RES1   0.0000
    16 N16    -12.5117 -55.5575 -24.0131   N.pl3     1 RES1   0.0000
    17 C17    -12.7444 -56.6154 -23.0124   C.ar      1 RES1   0.0000
    18 C18    -13.3814 -57.7782 -23.4151   C.ar      1 RES1   0.0000
    19 C19    -13.6113 -58.8089 -22.4933   C.ar      1 RES1   0.0000
    20 C20    -13.2019 -58.6647 -21.1717   C.ar      1 RES1   0.0000
    21 N21    -13.4592 -59.7661 -20.2106   N.pl3     1 RES1   0.0000
    22 C22    -13.5356 -59.5842 -18.7645   C.3       1 RES1   0.0000
    23 C23    -14.5755 -60.5093 -18.1815   C.3       1 RES1   0.0000
    24 N24    -14.2841 -61.9283 -18.5415   N.4       1 RES1   1.0000
    25 C25    -15.1818 -62.6882 -18.0361   C.3       1 RES1   0.0000
    26 C26    -14.1463 -62.0785 -20.0202   C.3       1 RES1   0.0000
    27 C27    -13.1019 -61.1342 -20.5610   C.3       1 RES1   0.0000
    28 C28    -12.5623 -57.5010 -20.7632   C.ar      1 RES1   0.0000
    29 C29    -12.3295 -56.4751 -21.6885   C.ar      1 RES1   0.0000
    30 N30    -11.6053 -53.4837 -24.7073   N.ar      1 RES1   0.0000
    31 C31    -11.0276 -52.3024 -24.5268   C.ar      1 RES1   0.0000
    32 C32    -10.7127 -51.9173 -23.2227   C.ar      1 RES1   0.0000
    33 Cl33    -9.9395 -50.3416 -22.9540   Cl        1 RES1   0.0000
    34 H1     -12.1325 -61.3786 -20.1291   H         1 RES1   0.0000
    35 H2     -13.0512 -61.2304 -21.6446   H         1 RES1   0.0000
    36 H3     -12.2433 -57.3868 -19.7283   H         1 RES1   0.0000
    37 H4      -7.1273 -50.7543 -17.5070   H         1 RES1   0.0000
    38 H5      -7.3221 -50.5236 -19.2595   H         1 RES1   0.0000
    39 H6     -13.8069 -58.5527 -18.5447   H         1 RES1   0.0000
    40 H7     -12.5660 -59.8068 -18.3214   H         1 RES1   0.0000
    41 H8     -15.5550 -60.2361 -18.5710   H         1 RES1   0.0000
    42 H9     -14.5751 -60.4088 -17.0972   H         1 RES1   0.0000
    43 H10    -13.5676 -55.2580 -18.4292   H         1 RES1   0.0000
    44 H11    -12.9744 -53.9155 -20.4428   H         1 RES1   0.0000
    45 H12    -13.3947 -62.1779 -18.1209   H         1 RES1   0.0000
    46 H13    -16.1582 -62.4068 -18.4278   H         1 RES1   0.0000
    47 H14    -14.9703 -63.7238 -18.2981   H         1 RES1   0.0000
    48 H15    -15.1806 -62.5804 -16.9525   H         1 RES1   0.0000
    49 H16    -15.1033 -61.8599 -20.4917   H         1 RES1   0.0000
    50 H17    -13.8543 -63.1023 -20.2491   H         1 RES1   0.0000
    51 H18    -13.7038 -57.8915 -24.4491   H         1 RES1   0.0000
    52 H19    -12.8084 -55.7264 -24.9690   H         1 RES1   0.0000
    53 H20     -8.5566 -48.7717 -17.0872   H         1 RES1   0.0000
    54 H21     -7.1517 -48.3414 -18.0890   H         1 RES1   0.0000
    55 H22     -8.7514 -48.5411 -18.8398   H         1 RES1   0.0000
    56 H23     -9.9000 -54.0548 -16.4943   H         1 RES1   0.0000
    57 H24    -12.0551 -55.3363 -16.4552   H         1 RES1   0.0000
    58 H25    -10.1907 -51.5393 -20.6238   H         1 RES1   0.0000
    59 H26    -14.1105 -59.7228 -22.8119   H         1 RES1   0.0000
    60 H27    -11.8225 -55.5645 -21.3726   H         1 RES1   0.0000
    61 H28    -10.8057 -51.6524 -25.3719   H         1 RES1   0.0000
@<TRIPOS>BOND
     1     1     2    1
     2     2     3    1
     3     3     4    2
     4     3     5    1
     5     5     6    1
     6     6     7   ar
     7     7     8   ar
     8     8     9   ar
     9     9    10   ar
    10    10    11   ar
    11    11    12    1
    12    12    13    1
    13    13    14   ar
    14    14    15   ar
    15    15    16    1
    16    16    17    1
    17    17    18   ar
    18    18    19   ar
    19    19    20   ar
    20    20    21    1
    21    21    22    1
    22    22    23    1
    23    23    24    1
    24    24    25    1
    25    24    26    1
    26    26    27    1
    27    20    28   ar
    28    28    29   ar
    29    15    30   ar
    30    30    31   ar
    31    31    32   ar
    32    32    33    1
    33    11     6   ar
    34    32    13   ar
    35    29    17   ar
    36    27    21    1
    37    27    34    1
    38    27    35    1
    39    28    36    1
    40     2    37    1
    41     2    38    1
    42    22    39    1
    43    22    40    1
    44    23    41    1
    45    23    42    1
    46     9    43    1
    47    10    44    1
    48    24    45    1
    49    25    46    1
    50    25    47    1
    51    25    48    1
    52    26    49    1
    53    26    50    1
    54    18    51    1
    55    16    52    1
    56     1    53    1
    57     1    54    1
    58     1    55    1
    59     7    56    1
    60     8    57    1
    61    12    58    1
    62    19    59    1
    63    29    60    1
    64    31    61    1
@<TRIPOS>SUBSTRUCTURE
     1 RES1        1 GROUP             0 ****  ****    0  
@<TRIPOS>CRYSIN
    1.0000    1.0000    1.0000   90.0000   90.0000   90.0000     1     1
@<TRIPOS>MOLECULE
ligand_42
    61    64     1     0     0
SMALL
USER_CHARGES
****
Generated from the CSD

@<TRIPOS>ATOM
     1 C1      -8.1053 -48.8728 -18.2216   C.3       1 RES1   0.0000
     2 C2      -7.7727 -50.3573 -18.3633   C.3       1 RES1   0.0000
     3 C3      -9.0811 -51.1496 -18.3131   C.2       1 RES1   0.0000
     4 O4     -10.1394 -50.6422 -18.1145   O.2       1 RES1   0.0000
     5 O5      -8.9473 -52.5446 -18.5182   O.3       1 RES1   0.0000
     6 C6     -10.1578 -53.3104 -18.4730   C.ar      1 RES1   0.0000
     7 C7     -10.7997 -53.6686 -19.6603   C.ar      1 RES1   0.0000
     8 C8     -11.9882 -54.4180 -19.5958   C.ar      1 RES1   0.0000
     9 C9     -12.5065 -54.7845 -18.3419   C.ar      1 RES1   0.0000
    10 C10    -11.8598 -54.4175 -17.1474   C.ar      1 RES1   0.0000
    11 C11    -10.6739 -53.6675 -17.2130   C.ar      1 RES1   0.0000
    12 N12     -9.9437 -53.2583 -15.9741   N.pl3     1 RES1   0.0000
    13 C13     -9.8634 -54.0872 -14.7655   C.ar      1 RES1   0.0000
    14 N14    -10.4327 -55.2975 -14.7379   N.ar      1 RES1   0.0000
    15 C15    -10.3611 -56.0494 -13.6497   C.ar      1 RES1   0.0000
    16 N16    -10.9855 -57.3742 -13.6056   N.pl3     1 RES1   0.0000
    17 C17    -11.8164 -57.9183 -14.6956   C.ar      1 RES1   0.0000
    18 C18    -12.7351 -57.0811 -15.3080   C.ar      1 RES1   0.0000
    19 C19    -13.5356 -57.5615 -16.3537   C.ar      1 RES1   0.0000
    20 C20    -13.4099 -58.8807 -16.7768   C.ar      1 RES1   0.0000
    21 N21    -14.2704 -59.3705 -17.8825   N.3       1 RES1   0.0000
    22 C22    -15.6998 -59.2704 -17.5356   C.3       1 RES1   0.0000
    23 C23    -16.5773 -59.7449 -18.6664   C.3       1 RES1   0.0000
    24 N24    -16.2472 -61.1727 -18.9630   N.4       1 RES1   1.0000
    25 C25    -17.0511 -61.6972 -19.8099   C.3       1 RES1   0.0000
    26 C26    -14.8181 -61.2326 -19.3923   C.3       1 RES1   0.0000
    27 C27    -13.9339 -60.7465 -18.2681   C.3       1 RES1   0.0000
    28 C28    -12.4898 -59.7237 -16.1664   C.ar      1 RES1   0.0000
    29 C29    -11.6878 -59.2387 -15.1251   C.ar      1 RES1   0.0000
    30 N30     -9.7307 -55.6524 -12.5733   N.ar      1 RES1   0.0000
    31 C31     -9.1346 -54.4680 -12.5144   C.ar      1 RES1   0.0000
    32 C32     -9.1932 -53.6460 -13.6410   C.ar      1 RES1   0.0000
    33 Cl33    -8.4037 -52.0565 -13.5882   Cl        1 RES1   0.0000
    34 H1     -10.3858 -53.3718 -20.6229   H         1 RES1   0.0000
    35 H2     -12.5024 -54.7117 -20.5097   H         1 RES1   0.0000
    36 H3     -15.9384 -58.2311 -17.3146   H         1 RES1   0.0000
    37 H4     -15.8942 -59.8824 -16.6560   H         1 RES1   0.0000
    38 H5     -16.3966 -59.1357 -19.5508   H         1 RES1   0.0000
    39 H6     -17.6240 -59.6633 -18.3770   H         1 RES1   0.0000
    40 H7     -13.4271 -55.3642 -18.2939   H         1 RES1   0.0000
    41 H8     -12.2736 -54.7113 -16.1839   H         1 RES1   0.0000
    42 H9     -10.9611 -59.8955 -14.6492   H         1 RES1   0.0000
    43 H10    -14.6748 -60.5993 -20.2666   H         1 RES1   0.0000
    44 H11    -14.5567 -62.2600 -19.6415   H         1 RES1   0.0000
    45 H12    -14.0651 -61.3988 -17.4060   H         1 RES1   0.0000
    46 H13    -12.8953 -60.7798 -18.5938   H         1 RES1   0.0000
    47 H14    -12.3923 -60.7571 -16.4959   H         1 RES1   0.0000
    48 H15    -14.2561 -56.9018 -16.8350   H         1 RES1   0.0000
    49 H16    -16.3302 -61.6942 -18.0962   H         1 RES1   0.0000
    50 H17    -17.0057 -61.1419 -20.7456   H         1 RES1   0.0000
    51 H18    -16.7655 -62.7328 -19.9882   H         1 RES1   0.0000
    52 H19    -18.0659 -61.6631 -19.4164   H         1 RES1   0.0000
    53 H20     -7.1222 -50.6685 -17.5472   H         1 RES1   0.0000
    54 H21     -7.2718 -50.5333 -19.3141   H         1 RES1   0.0000
    55 H22    -10.8383 -57.9477 -12.7812   H         1 RES1   0.0000
    56 H23    -12.8354 -56.0486 -14.9765   H         1 RES1   0.0000
    57 H24     -8.6147 -54.1468 -11.6130   H         1 RES1   0.0000
    58 H25     -9.4774 -52.3568 -15.9686   H         1 RES1   0.0000
    59 H26     -8.6087 -48.7027 -17.2710   H         1 RES1   0.0000
    60 H27     -7.1860 -48.2900 -18.2549   H         1 RES1   0.0000
    61 H28     -8.7583 -48.5676 -19.0379   H         1 RES1   0.0000
@<TRIPOS>BOND
     1     1     2    1
     2     2     3    1
     3     3     4    2
     4     3     5    1
     5     5     6    1
     6     6     7   ar
     7     7     8   ar
     8     8     9   ar
     9     9    10   ar
    10    10    11   ar
    11    11    12    1
    12    12    13    1
    13    13    14   ar
    14    14    15   ar
    15    15    16    1
    16    16    17    1
    17    17    18   ar
    18    18    19   ar
    19    19    20   ar
    20    20    21    1
    21    21    22    1
    22    22    23    1
    23    23    24    1
    24    24    25    1
    25    24    26    1
    26    26    27    1
    27    20    28   ar
    28    28    29   ar
    29    15    30   ar
    30    30    31   ar
    31    31    32   ar
    32    32    33    1
    33    11     6   ar
    34    32    13   ar
    35    29    17   ar
    36    27    21    1
    37     7    34    1
    38     8    35    1
    39    22    36    1
    40    22    37    1
    41    23    38    1
    42    23    39    1
    43     9    40    1
    44    10    41    1
    45    29    42    1
    46    26    43    1
    47    26    44    1
    48    27    45    1
    49    27    46    1
    50    28    47    1
    51    19    48    1
    52    24    49    1
    53    25    50    1
    54    25    51    1
    55    25    52    1
    56     2    53    1
    57     2    54    1
    58    16    55    1
    59    18    56    1
    60    31    57    1
    61    12    58    1
    62     1    59    1
    63     1    60    1
    64     1    61    1
@<TRIPOS>SUBSTRUCTURE
     1 RES1        1 GROUP             0 ****  ****    0  
@<TRIPOS>CRYSIN
    1.0000    1.0000    1.0000   90.0000   90.0000   90.0000     1     1
@<TRIPOS>MOLECULE
ligand_43
    61    64     1     0     0
SMALL
USER_CHARGES
****
Generated from the CSD

@<TRIPOS>ATOM
     1 C1      -8.1925 -49.3056 -17.8078   C.3       1 RES1   0.0000
     2 C2      -7.9842 -50.7934 -18.0861   C.3       1 RES1   0.0000
     3 C3      -9.3565 -51.4690 -18.1388   C.2       1 RES1   0.0000
     4 O4      -9.4989 -52.6506 -18.1159   O.2       1 RES1   0.0000
     5 O5     -10.4594 -50.5842 -18.2207   O.3       1 RES1   0.0000
     6 C6     -11.7562 -51.1919 -18.2744   C.ar      1 RES1   0.0000
     7 C7     -12.5238 -51.2983 -17.1128   C.ar      1 RES1   0.0000
     8 C8     -13.7930 -51.9002 -17.1848   C.ar      1 RES1   0.0000
     9 C9     -14.2582 -52.3856 -18.4189   C.ar      1 RES1   0.0000
    10 C10    -13.4801 -52.2812 -19.5864   C.ar      1 RES1   0.0000
    11 C11    -12.2119 -51.6816 -19.5130   C.ar      1 RES1   0.0000
    12 N12    -11.3482 -51.5392 -20.7252   N.pl3     1 RES1   0.0000
    13 C13    -11.6619 -52.1468 -22.0239   C.ar      1 RES1   0.0000
    14 N14    -12.7042 -52.9764 -22.1470   N.ar      1 RES1   0.0000
    15 C15    -12.9918 -53.5256 -23.3176   C.ar      1 RES1   0.0000
    16 N16    -14.1273 -54.4399 -23.4635   N.pl3     1 RES1   0.0000
    17 C17    -14.9714 -54.8747 -22.3352   C.ar      1 RES1   0.0000
    18 C18    -16.3161 -55.1140 -22.5690   C.ar      1 RES1   0.0000
    19 C19    -17.1469 -55.5372 -21.5223   C.ar      1 RES1   0.0000
    20 C20    -16.6225 -55.7158 -20.2463   C.ar      1 RES1   0.0000
    21 N21    -17.5205 -56.1600 -19.1511   N.pl3     1 RES1   0.0000
    22 C22    -17.1086 -57.0505 -18.0706   C.3       1 RES1   0.0000
    23 C23    -17.7937 -56.6550 -16.7855   C.3       1 RES1   0.0000
    24 N24    -19.2765 -56.6479 -16.9558   N.4       1 RES1   1.0000
    25 C25    -19.8297 -56.3078 -15.8526   C.3       1 RES1   0.0000
    26 C26    -19.6701 -55.7821 -18.1063   C.3       1 RES1   0.0000
    27 C27    -18.9603 -56.2086 -19.3669   C.3       1 RES1   0.0000
    28 C28    -15.2749 -55.4779 -20.0070   C.ar      1 RES1   0.0000
    29 C29    -14.4464 -55.0599 -21.0567   C.ar      1 RES1   0.0000
    30 N30    -12.2864 -53.2764 -24.3918   N.ar      1 RES1   0.0000
    31 C31    -11.2380 -52.4631 -24.3613   C.ar      1 RES1   0.0000
    32 C32    -10.9019 -51.8695 -23.1436   C.ar      1 RES1   0.0000
    33 Cl33    -9.5038 -50.7771 -23.0759   Cl        1 RES1   0.0000
    34 H1     -14.4099 -51.9893 -16.2918   H         1 RES1   0.0000
    35 H2     -15.2408 -52.8520 -18.4726   H         1 RES1   0.0000
    36 H3     -13.8564 -52.6606 -20.5353   H         1 RES1   0.0000
    37 H4     -14.3444 -54.7927 -24.3901   H         1 RES1   0.0000
    38 H5     -10.4973 -50.9917 -20.6455   H         1 RES1   0.0000
    39 H6     -16.0296 -56.9832 -17.9395   H         1 RES1   0.0000
    40 H7     -17.3803 -58.0742 -18.3237   H         1 RES1   0.0000
    41 H8     -13.3883 -54.8789 -20.8734   H         1 RES1   0.0000
    42 H9     -10.6567 -52.2646 -25.2605   H         1 RES1   0.0000
    43 H10    -12.1450 -50.9205 -16.1643   H         1 RES1   0.0000
    44 H11     -8.7060 -49.1829 -16.8554   H         1 RES1   0.0000
    45 H12     -7.2261 -48.8053 -17.7663   H         1 RES1   0.0000
    46 H13     -8.7938 -48.8682 -18.6034   H         1 RES1   0.0000
    47 H14     -7.3859 -51.2365 -17.2914   H         1 RES1   0.0000
    48 H15     -7.4737 -50.9218 -19.0394   H         1 RES1   0.0000
    49 H16    -16.7280 -54.9731 -23.5672   H         1 RES1   0.0000
    50 H17    -18.2032 -55.7262 -21.7081   H         1 RES1   0.0000
    51 H18    -17.4627 -55.6586 -16.4965   H         1 RES1   0.0000
    52 H19    -17.5273 -57.3665 -16.0053   H         1 RES1   0.0000
    53 H20    -19.5680 -57.5966 -17.1685   H         1 RES1   0.0000
    54 H21    -19.4916 -55.3123 -15.5687   H         1 RES1   0.0000
    55 H22    -20.9117 -56.3023 -15.9757   H         1 RES1   0.0000
    56 H23    -19.5564 -57.0195 -15.0749   H         1 RES1   0.0000
    57 H24    -19.4083 -54.7492 -17.8815   H         1 RES1   0.0000
    58 H25    -20.7456 -55.8589 -18.2590   H         1 RES1   0.0000
    59 H26    -19.2551 -57.2250 -19.6238   H         1 RES1   0.0000
    60 H27    -19.2287 -55.5362 -20.1803   H         1 RES1   0.0000
    61 H28    -14.8643 -55.6157 -19.0079   H         1 RES1   0.0000
@<TRIPOS>BOND
     1     1     2    1
     2     2     3    1
     3     3     4    2
     4     3     5    1
     5     5     6    1
     6     6     7   ar
     7     7     8   ar
     8     8     9   ar
     9     9    10   ar
    10    10    11   ar
    11    11    12    1
    12    12    13    1
    13    13    14   ar
    14    14    15   ar
    15    15    16    1
    16    16    17    1
    17    17    18   ar
    18    18    19   ar
    19    19    20   ar
    20    20    21    1
    21    21    22    1
    22    22    23    1
    23    23    24    1
    24    24    25    1
    25    24    26    1
    26    26    27    1
    27    20    28   ar
    28    28    29   ar
    29    15    30   ar
    30    30    31   ar
    31    31    32   ar
    32    32    33    1
    33    11     6   ar
    34    32    13   ar
    35    29    17   ar
    36    27    21    1
    37     8    34    1
    38     9    35    1
    39    10    36    1
    40    16    37    1
    41    12    38    1
    42    22    39    1
    43    22    40    1
    44    29    41    1
    45    31    42    1
    46     7    43    1
    47     1    44    1
    48     1    45    1
    49     1    46    1
    50     2    47    1
    51     2    48    1
    52    18    49    1
    53    19    50    1
    54    23    51    1
    55    23    52    1
    56    24    53    1
    57    25    54    1
    58    25    55    1
    59    25    56    1
    60    26    57    1
    61    26    58    1
    62    27    59    1
    63    27    60    1
    64    28    61    1
@<TRIPOS>SUBSTRUCTURE
     1 RES1        1 GROUP             0 ****  ****    0  
@<TRIPOS>CRYSIN
    1.0000    1.0000    1.0000   90.0000   90.0000   90.0000     1     1
@<TRIPOS>MOLECULE
ligand_44
    61    64     1     0     0
SMALL
USER_CHARGES
****
Generated from the CSD

@<TRIPOS>ATOM
     1 C1      -9.2391 -48.0069 -17.9382   C.3       1 RES1   0.0000
     2 C2      -8.4712 -49.3018 -18.1990   C.3       1 RES1   0.0000
     3 C3      -9.4709 -50.4606 -18.2030   C.2       1 RES1   0.0000
     4 O4      -9.1397 -51.6030 -18.1577   O.2       1 RES1   0.0000
     5 O5     -10.8333 -50.0790 -18.2679   O.3       1 RES1   0.0000
     6 C6     -11.7902 -51.1458 -18.2760   C.ar      1 RES1   0.0000
     7 C7     -12.3596 -51.5613 -19.4815   C.ar      1 RES1   0.0000
     8 C8     -13.2989 -52.6081 -19.4691   C.ar      1 RES1   0.0000
     9 C9     -13.6481 -53.2082 -18.2472   C.ar      1 RES1   0.0000
    10 C10    -13.0762 -52.7838 -17.0338   C.ar      1 RES1   0.0000
    11 C11    -12.1396 -51.7370 -17.0472   C.ar      1 RES1   0.0000
    12 N12    -11.4969 -51.2531 -15.7869   N.pl3     1 RES1   0.0000
    13 C13    -11.8997 -51.6948 -14.4464   C.ar      1 RES1   0.0000
    14 N14    -12.9699 -52.4819 -14.2881   N.ar      1 RES1   0.0000
    15 C15    -13.3359 -52.8841 -13.0802   C.ar      1 RES1   0.0000
    16 N16    -14.5092 -53.7414 -12.8938   N.pl3     1 RES1   0.0000
    17 C17    -15.4009 -54.1503 -13.9949   C.ar      1 RES1   0.0000
    18 C18    -15.9943 -55.4010 -13.9357   C.ar      1 RES1   0.0000
    19 C19    -16.8548 -55.8198 -14.9600   C.ar      1 RES1   0.0000
    20 C20    -17.1126 -54.9804 -16.0390   C.ar      1 RES1   0.0000
    21 N21    -18.0230 -55.4449 -17.1152   N.pl3     1 RES1   0.0000
    22 C22    -18.9384 -54.5706 -17.8418   C.3       1 RES1   0.0000
    23 C23    -19.0403 -55.0110 -19.2814   C.3       1 RES1   0.0000
    24 N24    -19.4605 -56.4405 -19.3700   N.4       1 RES1   1.0000
    25 C25    -19.5365 -56.7861 -20.6002   C.3       1 RES1   0.0000
    26 C26    -18.5485 -57.3078 -18.5674   C.3       1 RES1   0.0000
    27 C27    -18.4725 -56.8304 -17.1387   C.3       1 RES1   0.0000
    28 C28    -16.5205 -53.7252 -16.1025   C.ar      1 RES1   0.0000
    29 C29    -15.6651 -53.3080 -15.0744   C.ar      1 RES1   0.0000
    30 N30    -12.6707 -52.5436 -12.0054   N.ar      1 RES1   0.0000
    31 C31    -11.5952 -51.7686 -12.0704   C.ar      1 RES1   0.0000
    32 C32    -11.1823 -51.3214 -13.3265   C.ar      1 RES1   0.0000
    33 Cl33    -9.7462 -50.2835 -13.4409   Cl        1 RES1   0.0000
    34 H1     -18.5630 -56.6634 -21.0725   H         1 RES1   0.0000
    35 H2     -19.8430 -57.8290 -20.6660   H         1 RES1   0.0000
    36 H3     -20.2682 -56.1599 -21.1086   H         1 RES1   0.0000
    37 H4     -17.5522 -57.2802 -19.0062   H         1 RES1   0.0000
    38 H5     -18.9236 -58.3301 -18.5824   H         1 RES1   0.0000
    39 H6     -19.4573 -56.9008 -16.6792   H         1 RES1   0.0000
    40 H7     -17.7686 -57.4503 -16.5854   H         1 RES1   0.0000
    41 H8     -11.0505 -51.4896 -11.1696   H         1 RES1   0.0000
    42 H9     -13.3562 -53.2610 -16.0958   H         1 RES1   0.0000
    43 H10    -10.7396 -50.5815 -15.8626   H         1 RES1   0.0000
    44 H11    -18.5669 -53.5477 -17.8032   H         1 RES1   0.0000
    45 H12    -19.9236 -54.6166 -17.3801   H         1 RES1   0.0000
    46 H13     -9.7410 -48.0705 -16.9739   H         1 RES1   0.0000
    47 H14     -8.5446 -47.1681 -17.9313   H         1 RES1   0.0000
    48 H15     -9.9790 -47.8592 -18.7235   H         1 RES1   0.0000
    49 H16     -7.7319 -49.4559 -17.4144   H         1 RES1   0.0000
    50 H17     -7.9698 -49.2446 -19.1640   H         1 RES1   0.0000
    51 H18    -14.7195 -54.0714 -11.9572   H         1 RES1   0.0000
    52 H19    -16.7204 -53.0684 -16.9478   H         1 RES1   0.0000
    53 H20    -15.2047 -52.3221 -15.1184   H         1 RES1   0.0000
    54 H21    -15.7919 -56.0595 -13.0923   H         1 RES1   0.0000
    55 H22    -17.3216 -56.8025 -14.9111   H         1 RES1   0.0000
    56 H23    -13.7517 -52.9507 -20.3984   H         1 RES1   0.0000
    57 H24    -14.3761 -54.0181 -18.2394   H         1 RES1   0.0000
    58 H25    -12.0802 -51.0814 -20.4183   H         1 RES1   0.0000
    59 H26    -18.0692 -54.8940 -19.7601   H         1 RES1   0.0000
    60 H27    -19.7745 -54.3907 -19.7934   H         1 RES1   0.0000
    61 H28    -20.3902 -56.5151 -18.9696   H         1 RES1   0.0000
@<TRIPOS>BOND
     1     1     2    1
     2     2     3    1
     3     3     4    2
     4     3     5    1
     5     5     6    1
     6     6     7   ar
     7     7     8   ar
     8     8     9   ar
     9     9    10   ar
    10    10    11   ar
    11    11    12    1
    12    12    13    1
    13    13    14   ar
    14    14    15   ar
    15    15    16    1
    16    16    17    1
    17    17    18   ar
    18    18    19   ar
    19    19    20   ar
    20    20    21    1
    21    21    22    1
    22    22    23    1
    23    23    24    1
    24    24    25    1
    25    24    26    1
    26    26    27    1
    27    20    28   ar
    28    28    29   ar
    29    15    30   ar
    30    30    31   ar
    31    31    32   ar
    32    32    33    1
    33    11     6   ar
    34    32    13   ar
    35    29    17   ar
    36    27    21    1
    37    25    34    1
    38    25    35    1
    39    25    36    1
    40    26    37    1
    41    26    38    1
    42    27    39    1
    43    27    40    1
    44    31    41    1
    45    10    42    1
    46    12    43    1
    47    22    44    1
    48    22    45    1
    49     1    46    1
    50     1    47    1
    51     1    48    1
    52     2    49    1
    53     2    50    1
    54    16    51    1
    55    28    52    1
    56    29    53    1
    57    18    54    1
    58    19    55    1
    59     8    56    1
    60     9    57    1
    61     7    58    1
    62    23    59    1
    63    23    60    1
    64    24    61    1
@<TRIPOS>SUBSTRUCTURE
     1 RES1        1 GROUP             0 ****  ****    0  
@<TRIPOS>CRYSIN
    1.0000    1.0000    1.0000   90.0000   90.0000   90.0000     1     1
@<TRIPOS>MOLECULE
ligand_45
    61    64     1     0     0
SMALL
USER_CHARGES
****
Generated from the CSD

@<TRIPOS>ATOM
     1 C1      -8.5895 -48.6404 -17.9966   C.3       1 RES1   0.0000
     2 C2      -8.1181 -50.0761 -18.2224   C.3       1 RES1   0.0000
     3 C3      -9.3439 -50.9924 -18.2062   C.2       1 RES1   0.0000
     4 O4      -9.2665 -52.1779 -18.1325   O.2       1 RES1   0.0000
     5 O5     -10.5921 -50.3281 -18.2888   O.3       1 RES1   0.0000
     6 C6     -11.7562 -51.1639 -18.2786   C.ar      1 RES1   0.0000
     7 C7     -12.4642 -51.3571 -17.0905   C.ar      1 RES1   0.0000
     8 C8     -13.6027 -52.1829 -17.0996   C.ar      1 RES1   0.0000
     9 C9     -13.9993 -52.7993 -18.2988   C.ar      1 RES1   0.0000
    10 C10    -13.2807 -52.6065 -19.4929   C.ar      1 RES1   0.0000
    11 C11    -12.1428 -51.7829 -19.4823   C.ar      1 RES1   0.0000
    12 N12    -11.3482 -51.5392 -20.7252   N.pl3     1 RES1   0.0000
    13 C13    -11.6619 -52.1468 -22.0239   C.ar      1 RES1   0.0000
    14 N14    -12.7042 -52.9764 -22.1470   N.ar      1 RES1   0.0000
    15 C15    -12.9918 -53.5256 -23.3176   C.ar      1 RES1   0.0000
    16 N16    -14.1273 -54.4399 -23.4635   N.pl3     1 RES1   0.0000
    17 C17    -14.5322 -55.0348 -24.7506   C.ar      1 RES1   0.0000
    18 C18    -15.0505 -56.3198 -24.7514   C.ar      1 RES1   0.0000
    19 C19    -15.4544 -56.9139 -25.9552   C.ar      1 RES1   0.0000
    20 C20    -15.3333 -56.2144 -27.1515   C.ar      1 RES1   0.0000
    21 N21    -15.7624 -56.8635 -28.4154   N.pl3     1 RES1   0.0000
    22 C22    -16.3822 -56.1504 -29.5278   C.3       1 RES1   0.0000
    23 C23    -15.9276 -56.7431 -30.8390   C.3       1 RES1   0.0000
    24 N24    -16.2240 -58.2051 -30.8910   N.4       1 RES1   1.0000
    25 C25    -15.8265 -58.6801 -32.0113   C.3       1 RES1   0.0000
    26 C26    -15.6355 -58.9037 -29.7104   C.3       1 RES1   0.0000
    27 C27    -16.1117 -58.2777 -28.4234   C.3       1 RES1   0.0000
    28 C28    -14.8147 -54.9255 -27.1558   C.ar      1 RES1   0.0000
    29 C29    -14.4170 -54.3330 -25.9501   C.ar      1 RES1   0.0000
    30 N30    -12.2864 -53.2764 -24.3918   N.ar      1 RES1   0.0000
    31 C31    -11.2380 -52.4631 -24.3613   C.ar      1 RES1   0.0000
    32 C32    -10.9019 -51.8695 -23.1436   C.ar      1 RES1   0.0000
    33 Cl33    -9.5038 -50.7771 -23.0759   Cl        1 RES1   0.0000
    34 H1     -16.0951 -55.1007 -29.4879   H         1 RES1   0.0000
    35 H2     -17.4653 -56.2337 -29.4507   H         1 RES1   0.0000
    36 H3     -15.1442 -56.8689 -23.8157   H         1 RES1   0.0000
    37 H4     -15.8631 -57.9233 -25.9538   H         1 RES1   0.0000
    38 H5     -14.5498 -58.8352 -29.7601   H         1 RES1   0.0000
    39 H6     -15.9345 -59.9507 -29.7299   H         1 RES1   0.0000
    40 H7     -17.1925 -58.3855 -28.3450   H         1 RES1   0.0000
    41 H8     -15.6352 -58.7745 -27.5796   H         1 RES1   0.0000
    42 H9     -14.6636 -54.6763 -22.6348   H         1 RES1   0.0000
    43 H10    -14.8544 -56.5924 -30.9459   H         1 RES1   0.0000
    44 H11    -16.4474 -56.2442 -31.6556   H         1 RES1   0.0000
    45 H12    -17.2317 -58.3183 -30.8469   H         1 RES1   0.0000
    46 H13    -14.7536 -58.5228 -32.1121   H         1 RES1   0.0000
    47 H14    -16.0423 -59.7468 -32.0504   H         1 RES1   0.0000
    48 H15    -16.3454 -58.1748 -32.8245   H         1 RES1   0.0000
    49 H16    -10.5469 -50.9188 -20.6676   H         1 RES1   0.0000
    50 H17    -14.1721 -52.3433 -16.1853   H         1 RES1   0.0000
    51 H18    -14.8806 -53.4390 -18.3038   H         1 RES1   0.0000
    52 H19    -13.6027 -53.0898 -20.4141   H         1 RES1   0.0000
    53 H20    -10.6567 -52.2646 -25.2605   H         1 RES1   0.0000
    54 H21    -14.7178 -54.3781 -28.0922   H         1 RES1   0.0000
    55 H22    -14.0163 -53.3204 -25.9497   H         1 RES1   0.0000
    56 H23     -9.0947 -48.5713 -17.0344   H         1 RES1   0.0000
    57 H24     -7.7307 -47.9709 -18.0046   H         1 RES1   0.0000
    58 H25     -9.2791 -48.3557 -18.7899   H         1 RES1   0.0000
    59 H26     -7.4305 -50.3669 -17.4296   H         1 RES1   0.0000
    60 H27     -7.6148 -50.1513 -19.1852   H         1 RES1   0.0000
    61 H28    -12.1393 -50.8750 -16.1697   H         1 RES1   0.0000
@<TRIPOS>BOND
     1     1     2    1
     2     2     3    1
     3     3     4    2
     4     3     5    1
     5     5     6    1
     6     6     7   ar
     7     7     8   ar
     8     8     9   ar
     9     9    10   ar
    10    10    11   ar
    11    11    12    1
    12    12    13    1
    13    13    14   ar
    14    14    15   ar
    15    15    16    1
    16    16    17    1
    17    17    18   ar
    18    18    19   ar
    19    19    20   ar
    20    20    21    1
    21    21    22    1
    22    22    23    1
    23    23    24    1
    24    24    25    1
    25    24    26    1
    26    26    27    1
    27    20    28   ar
    28    28    29   ar
    29    15    30   ar
    30    30    31   ar
    31    31    32   ar
    32    32    33    1
    33    11     6   ar
    34    32    13   ar
    35    29    17   ar
    36    27    21    1
    37    22    34    1
    38    22    35    1
    39    18    36    1
    40    19    37    1
    41    26    38    1
    42    26    39    1
    43    27    40    1
    44    27    41    1
    45    16    42    1
    46    23    43    1
    47    23    44    1
    48    24    45    1
    49    25    46    1
    50    25    47    1
    51    25    48    1
    52    12    49    1
    53     8    50    1
    54     9    51    1
    55    10    52    1
    56    31    53    1
    57    28    54    1
    58    29    55    1
    59     1    56    1
    60     1    57    1
    61     1    58    1
    62     2    59    1
    63     2    60    1
    64     7    61    1
@<TRIPOS>SUBSTRUCTURE
     1 RES1        1 GROUP             0 ****  ****    0  
@<TRIPOS>CRYSIN
    1.0000    1.0000    1.0000   90.0000   90.0000   90.0000     1     1
@<TRIPOS>MOLECULE
ligand_46
    61    64     1     0     0
SMALL
USER_CHARGES
****
Generated from the CSD

@<TRIPOS>ATOM
     1 C1      -8.6677 -48.5434 -18.0044   C.3       1 RES1   0.0000
     2 C2      -8.1569 -49.9656 -18.2297   C.3       1 RES1   0.0000
     3 C3      -9.3567 -50.9156 -18.2109   C.2       1 RES1   0.0000
     4 O4      -9.2463 -52.0984 -18.1363   O.2       1 RES1   0.0000
     5 O5     -10.6230 -50.2864 -18.2921   O.3       1 RES1   0.0000
     6 C6     -11.7634 -51.1542 -18.2793   C.ar      1 RES1   0.0000
     7 C7     -12.4001 -51.4848 -19.4774   C.ar      1 RES1   0.0000
     8 C8     -13.5195 -52.3358 -19.4445   C.ar      1 RES1   0.0000
     9 C9     -13.9761 -52.8292 -18.2104   C.ar      1 RES1   0.0000
    10 C10    -13.3352 -52.4900 -17.0046   C.ar      1 RES1   0.0000
    11 C11    -12.2185 -51.6386 -17.0384   C.ar      1 RES1   0.0000
    12 N12    -11.4969 -51.2531 -15.7869   N.pl3     1 RES1   0.0000
    13 C13    -11.8997 -51.6948 -14.4464   C.ar      1 RES1   0.0000
    14 N14    -12.9699 -52.4819 -14.2881   N.ar      1 RES1   0.0000
    15 C15    -13.3359 -52.8841 -13.0802   C.ar      1 RES1   0.0000
    16 N16    -14.5092 -53.7414 -12.8938   N.pl3     1 RES1   0.0000
    17 C17    -14.9309 -54.2690 -11.5829   C.ar      1 RES1   0.0000
    18 C18    -16.2859 -54.4176 -11.3345   C.ar      1 RES1   0.0000
    19 C19    -16.7232 -54.9246 -10.1029   C.ar      1 RES1   0.0000
    20 C20    -15.7966 -55.2777  -9.1272   C.ar      1 RES1   0.0000
    21 N21    -16.2808 -55.8083  -7.8284   N.pl3     1 RES1   0.0000
    22 C22    -15.5886 -56.8383  -7.0601   C.3       1 RES1   0.0000
    23 C23    -15.7363 -56.5680  -5.5829   C.3       1 RES1   0.0000
    24 N24    -17.1766 -56.4746  -5.2026   N.4       1 RES1   1.0000
    25 C25    -17.2709 -56.2434  -3.9470   C.3       1 RES1   0.0000
    26 C26    -17.8787 -55.4616  -6.0446   C.3       1 RES1   0.0000
    27 C27    -17.7020 -55.7666  -7.5111   C.3       1 RES1   0.0000
    28 C28    -14.4369 -55.1313  -9.3718   C.ar      1 RES1   0.0000
    29 C29    -14.0034 -54.6290 -10.6058   C.ar      1 RES1   0.0000
    30 N30    -12.6707 -52.5436 -12.0054   N.ar      1 RES1   0.0000
    31 C31    -11.5952 -51.7686 -12.0704   C.ar      1 RES1   0.0000
    32 C32    -11.1823 -51.3214 -13.3265   C.ar      1 RES1   0.0000
    33 Cl33    -9.7462 -50.2835 -13.4409   Cl        1 RES1   0.0000
    34 H1     -10.6829 -50.6523 -15.8689   H         1 RES1   0.0000
    35 H2     -15.0610 -53.9851 -13.7101   H         1 RES1   0.0000
    36 H3     -14.5319 -56.8353  -7.3233   H         1 RES1   0.0000
    37 H4     -16.0180 -57.8116  -7.2932   H         1 RES1   0.0000
    38 H5     -15.2414 -55.6287  -5.3406   H         1 RES1   0.0000
    39 H6     -15.2711 -57.3783  -5.0234   H         1 RES1   0.0000
    40 H7     -17.6037 -57.3773  -5.3840   H         1 RES1   0.0000
    41 H8      -7.4603 -50.2365 -17.4377   H         1 RES1   0.0000
    42 H9      -7.6531 -50.0276 -19.1932   H         1 RES1   0.0000
    43 H10    -18.1536 -56.7311  -7.7387   H         1 RES1   0.0000
    44 H11    -18.1842 -54.9910  -8.1043   H         1 RES1   0.0000
    45 H12    -13.7111 -55.4058  -8.6077   H         1 RES1   0.0000
    46 H13    -12.9380 -54.5193 -10.8027   H         1 RES1   0.0000
    47 H14    -12.0350 -51.0892 -20.4240   H         1 RES1   0.0000
    48 H15    -14.0281 -52.6100 -20.3676   H         1 RES1   0.0000
    49 H16    -11.0505 -51.4896 -11.1696   H         1 RES1   0.0000
    50 H17    -14.8434 -53.4873 -18.1869   H         1 RES1   0.0000
    51 H18    -13.7004 -52.8827 -16.0568   H         1 RES1   0.0000
    52 H19    -16.7713 -55.3047  -3.7122   H         1 RES1   0.0000
    53 H20    -18.3214 -56.1750  -3.6684   H         1 RES1   0.0000
    54 H21    -16.8002 -57.0538  -3.3923   H         1 RES1   0.0000
    55 H22    -17.4678 -54.4755  -5.8333   H         1 RES1   0.0000
    56 H23    -18.9406 -55.4716  -5.8036   H         1 RES1   0.0000
    57 H24    -17.0121 -54.1402 -12.0971   H         1 RES1   0.0000
    58 H25    -17.7885 -55.0421  -9.9099   H         1 RES1   0.0000
    59 H26     -9.1732 -48.4875 -17.0415   H         1 RES1   0.0000
    60 H27     -7.8278 -47.8502 -18.0142   H         1 RES1   0.0000
    61 H28     -9.3661 -48.2787 -18.7969   H         1 RES1   0.0000
@<TRIPOS>BOND
     1     1     2    1
     2     2     3    1
     3     3     4    2
     4     3     5    1
     5     5     6    1
     6     6     7   ar
     7     7     8   ar
     8     8     9   ar
     9     9    10   ar
    10    10    11   ar
    11    11    12    1
    12    12    13    1
    13    13    14   ar
    14    14    15   ar
    15    15    16    1
    16    16    17    1
    17    17    18   ar
    18    18    19   ar
    19    19    20   ar
    20    20    21    1
    21    21    22    1
    22    22    23    1
    23    23    24    1
    24    24    25    1
    25    24    26    1
    26    26    27    1
    27    20    28   ar
    28    28    29   ar
    29    15    30   ar
    30    30    31   ar
    31    31    32   ar
    32    32    33    1
    33    11     6   ar
    34    32    13   ar
    35    29    17   ar
    36    27    21    1
    37    12    34    1
    38    16    35    1
    39    22    36    1
    40    22    37    1
    41    23    38    1
    42    23    39    1
    43    24    40    1
    44     2    41    1
    45     2    42    1
    46    27    43    1
    47    27    44    1
    48    28    45    1
    49    29    46    1
    50     7    47    1
    51     8    48    1
    52    31    49    1
    53     9    50    1
    54    10    51    1
    55    25    52    1
    56    25    53    1
    57    25    54    1
    58    26    55    1
    59    26    56    1
    60    18    57    1
    61    19    58    1
    62     1    59    1
    63     1    60    1
    64     1    61    1
@<TRIPOS>SUBSTRUCTURE
     1 RES1        1 GROUP             0 ****  ****    0  
@<TRIPOS>CRYSIN
    1.0000    1.0000    1.0000   90.0000   90.0000   90.0000     1     1
@<TRIPOS>MOLECULE
ligand_47
    61    64     1     0     0
SMALL
USER_CHARGES
****
Generated from the CSD

@<TRIPOS>ATOM
     1 C1      -9.1006 -48.4951 -17.8373   C.3       1 RES1   0.0000
     2 C2      -8.4837 -49.8763 -18.0521   C.3       1 RES1   0.0000
     3 C3      -9.6163 -50.9038 -18.1148   C.2       1 RES1   0.0000
     4 O4     -10.7590 -50.6210 -17.9385   O.2       1 RES1   0.0000
     5 O5      -9.2092 -52.2307 -18.3971   O.3       1 RES1   0.0000
     6 C6     -10.2507 -53.2132 -18.4584   C.ar      1 RES1   0.0000
     7 C7     -10.4896 -54.0440 -17.3617   C.ar      1 RES1   0.0000
     8 C8     -11.5143 -55.0041 -17.4417   C.ar      1 RES1   0.0000
     9 C9     -12.2700 -55.1111 -18.6217   C.ar      1 RES1   0.0000
    10 C10    -12.0233 -54.2758 -19.7267   C.ar      1 RES1   0.0000
    11 C11    -10.9984 -53.3185 -19.6464   C.ar      1 RES1   0.0000
    12 N12    -10.7002 -52.4015 -20.7891   N.pl3     1 RES1   0.0000
    13 C13    -11.7216 -51.8933 -21.7126   C.ar      1 RES1   0.0000
    14 N14    -13.0104 -52.2020 -21.5301   N.ar      1 RES1   0.0000
    15 C15    -13.9355 -51.7441 -22.3602   C.ar      1 RES1   0.0000
    16 N16    -15.3494 -52.0799 -22.1738   N.pl3     1 RES1   0.0000
    17 C17    -15.8591 -52.8404 -21.0177   C.ar      1 RES1   0.0000
    18 C18    -17.1556 -53.3270 -21.0657   C.ar      1 RES1   0.0000
    19 C19    -17.6706 -54.0619 -19.9888   C.ar      1 RES1   0.0000
    20 C20    -16.8809 -54.3020 -18.8691   C.ar      1 RES1   0.0000
    21 N21    -17.4471 -55.0784 -17.7378   N.3       1 RES1   0.0000
    22 C22    -16.4217 -55.3686 -16.7190   C.3       1 RES1   0.0000
    23 C23    -16.9995 -56.1364 -15.5569   C.3       1 RES1   0.0000
    24 N24    -17.5594 -57.4263 -16.0653   N.4       1 RES1   1.0000
    25 C25    -17.9350 -58.2049 -15.1212   C.3       1 RES1   0.0000
    26 C26    -18.6514 -57.1024 -17.0311   C.3       1 RES1   0.0000
    27 C27    -18.0816 -56.3218 -18.1921   C.3       1 RES1   0.0000
    28 C28    -15.5802 -53.8168 -18.8165   C.ar      1 RES1   0.0000
    29 C29    -15.0670 -53.0871 -19.8969   C.ar      1 RES1   0.0000
    30 N30    -13.6358 -50.9723 -23.3742   N.ar      1 RES1   0.0000
    31 C31    -12.3833 -50.6136 -23.6278   C.ar      1 RES1   0.0000
    32 C32    -11.3807 -51.0810 -22.7767   C.ar      1 RES1   0.0000
    33 Cl33    -9.6968 -50.6154 -23.0938   Cl        1 RES1   0.0000
    34 H1     -16.0106 -54.4290 -16.3530   H         1 RES1   0.0000
    35 H2     -15.6280 -55.9594 -17.1739   H         1 RES1   0.0000
    36 H3     -17.7908 -55.5525 -15.0891   H         1 RES1   0.0000
    37 H4     -16.2176 -56.3389 -14.8265   H         1 RES1   0.0000
    38 H5     -16.8236 -57.8995 -16.5801   H         1 RES1   0.0000
    39 H6     -17.7752 -53.1383 -21.9411   H         1 RES1   0.0000
    40 H7     -18.6892 -54.4450 -20.0288   H         1 RES1   0.0000
    41 H8     -16.0132 -51.7729 -22.8776   H         1 RES1   0.0000
    42 H9     -11.7204 -55.6590 -16.5964   H         1 RES1   0.0000
    43 H10    -13.0625 -55.8555 -18.6820   H         1 RES1   0.0000
    44 H11     -9.8908 -53.9498 -16.4570   H         1 RES1   0.0000
    45 H12    -12.6196 -54.3703 -20.6331   H         1 RES1   0.0000
    46 H13     -9.7376 -52.1144 -20.9343   H         1 RES1   0.0000
    47 H14    -12.1448 -49.9730 -24.4756   H         1 RES1   0.0000
    48 H15    -18.7077 -57.7139 -14.5315   H         1 RES1   0.0000
    49 H16    -18.3326 -59.1253 -15.5463   H         1 RES1   0.0000
    50 H17    -17.0842 -58.4379 -14.4827   H         1 RES1   0.0000
    51 H18    -19.4129 -56.5056 -16.5312   H         1 RES1   0.0000
    52 H19    -19.0970 -58.0257 -17.3983   H         1 RES1   0.0000
    53 H20     -9.6621 -48.4894 -16.9042   H         1 RES1   0.0000
    54 H21     -8.3099 -47.7478 -17.7897   H         1 RES1   0.0000
    55 H22     -9.7695 -48.2636 -18.6649   H         1 RES1   0.0000
    56 H23     -7.8161 -50.1141 -17.2252   H         1 RES1   0.0000
    57 H24     -7.9235 -49.8883 -18.9859   H         1 RES1   0.0000
    58 H25    -17.3385 -56.9341 -18.7008   H         1 RES1   0.0000
    59 H26    -18.8860 -56.0774 -18.8843   H         1 RES1   0.0000
    60 H27    -14.9622 -54.0028 -17.9394   H         1 RES1   0.0000
    61 H28    -14.0456 -52.7112 -19.8612   H         1 RES1   0.0000
@<TRIPOS>BOND
     1     1     2    1
     2     2     3    1
     3     3     4    2
     4     3     5    1
     5     5     6    1
     6     6     7   ar
     7     7     8   ar
     8     8     9   ar
     9     9    10   ar
    10    10    11   ar
    11    11    12    1
    12    12    13    1
    13    13    14   ar
    14    14    15   ar
    15    15    16    1
    16    16    17    1
    17    17    18   ar
    18    18    19   ar
    19    19    20   ar
    20    20    21    1
    21    21    22    1
    22    22    23    1
    23    23    24    1
    24    24    25    1
    25    24    26    1
    26    26    27    1
    27    20    28   ar
    28    28    29   ar
    29    15    30   ar
    30    30    31   ar
    31    31    32   ar
    32    32    33    1
    33    11     6   ar
    34    32    13   ar
    35    29    17   ar
    36    27    21    1
    37    22    34    1
    38    22    35    1
    39    23    36    1
    40    23    37    1
    41    24    38    1
    42    18    39    1
    43    19    40    1
    44    16    41    1
    45     8    42    1
    46     9    43    1
    47     7    44    1
    48    10    45    1
    49    12    46    1
    50    31    47    1
    51    25    48    1
    52    25    49    1
    53    25    50    1
    54    26    51    1
    55    26    52    1
    56     1    53    1
    57     1    54    1
    58     1    55    1
    59     2    56    1
    60     2    57    1
    61    27    58    1
    62    27    59    1
    63    28    60    1
    64    29    61    1
@<TRIPOS>SUBSTRUCTURE
     1 RES1        1 GROUP             0 ****  ****    0  
@<TRIPOS>CRYSIN
    1.0000    1.0000    1.0000   90.0000   90.0000   90.0000     1     1
@<TRIPOS>MOLECULE
ligand_48
    61    64     1     0     0
SMALL
USER_CHARGES
****
Generated from the CSD

@<TRIPOS>ATOM
     1 C1      -8.1664 -48.8921 -18.8057   C.3       1 RES1   0.0000
     2 C2      -7.8447 -50.3828 -18.8987   C.3       1 RES1   0.0000
     3 C3      -9.1306 -51.1693 -18.6338   C.2       1 RES1   0.0000
     4 O4     -10.1583 -50.6496 -18.3326   O.2       1 RES1   0.0000
     5 O5      -9.0147 -52.5743 -18.7695   O.3       1 RES1   0.0000
     6 C6     -10.2085 -53.3334 -18.5402   C.ar      1 RES1   0.0000
     7 C7     -11.3438 -53.0975 -19.3184   C.ar      1 RES1   0.0000
     8 C8     -12.5068 -53.8506 -19.0768   C.ar      1 RES1   0.0000
     9 C9     -12.5042 -54.8174 -18.0568   C.ar      1 RES1   0.0000
    10 C10    -11.3602 -55.0489 -17.2712   C.ar      1 RES1   0.0000
    11 C11    -10.1997 -54.2949 -17.5122   C.ar      1 RES1   0.0000
    12 N12     -8.9551 -54.5067 -16.7112   N.pl3     1 RES1   0.0000
    13 C13     -8.4951 -55.8237 -16.2551   C.ar      1 RES1   0.0000
    14 N14     -9.1524 -56.9312 -16.6173   N.ar      1 RES1   0.0000
    15 C15     -8.7396 -58.1218 -16.2093   C.ar      1 RES1   0.0000
    16 N16     -9.4546 -59.3412 -16.5947   N.pl3     1 RES1   0.0000
    17 C17    -10.7174 -59.3372 -17.3562   C.ar      1 RES1   0.0000
    18 C18    -10.9169 -60.3208 -18.3116   C.ar      1 RES1   0.0000
    19 C19    -12.1090 -60.3535 -19.0482   C.ar      1 RES1   0.0000
    20 C20    -13.0932 -59.3967 -18.8223   C.ar      1 RES1   0.0000
    21 N21    -14.3462 -59.4466 -19.6164   N.pl3     1 RES1   0.0000
    22 C22    -15.6592 -59.0875 -19.0898   C.3       1 RES1   0.0000
    23 C23    -16.4799 -58.4150 -20.1628   C.3       1 RES1   0.0000
    24 N24    -16.5921 -59.2869 -21.3690   N.4       1 RES1   1.0000
    25 C25    -17.2905 -58.6909 -22.2612   C.3       1 RES1   0.0000
    26 C26    -15.2395 -59.6942 -21.8516   C.3       1 RES1   0.0000
    27 C27    -14.4528 -60.3571 -20.7485   C.3       1 RES1   0.0000
    28 C28    -12.8983 -58.4089 -17.8650   C.ar      1 RES1   0.0000
    29 C29    -11.7076 -58.3824 -17.1270   C.ar      1 RES1   0.0000
    30 N30     -7.6802 -58.2666 -15.4541   N.ar      1 RES1   0.0000
    31 C31     -6.9666 -57.2227 -15.0509   C.ar      1 RES1   0.0000
    32 C32     -7.3745 -55.9513 -15.4575   C.ar      1 RES1   0.0000
    33 Cl33    -6.4369 -54.5380 -14.9318   Cl        1 RES1   0.0000
    34 H1      -8.3970 -53.6941 -16.4693   H         1 RES1   0.0000
    35 H2     -14.9617 -61.2677 -20.4358   H         1 RES1   0.0000
    36 H3     -13.4561 -60.6045 -21.1110   H         1 RES1   0.0000
    37 H4     -13.6676 -57.6585 -17.6890   H         1 RES1   0.0000
    38 H5     -11.5548 -57.6132 -16.3714   H         1 RES1   0.0000
    39 H6     -11.3742 -55.8033 -16.4860   H         1 RES1   0.0000
    40 H7      -8.5454 -48.6639 -17.8106   H         1 RES1   0.0000
    41 H8      -7.2627 -48.3135 -18.9914   H         1 RES1   0.0000
    42 H9      -8.9203 -48.6364 -19.5488   H         1 RES1   0.0000
    43 H10     -7.0932 -50.6444 -18.1552   H         1 RES1   0.0000
    44 H11     -7.4681 -50.6169 -19.8933   H         1 RES1   0.0000
    45 H12     -9.0599 -60.2360 -16.3232   H         1 RES1   0.0000
    46 H13    -15.5365 -58.4059 -18.2494   H         1 RES1   0.0000
    47 H14    -16.1720 -59.9880 -18.7550   H         1 RES1   0.0000
    48 H15    -16.0017 -57.4776 -20.4431   H         1 RES1   0.0000
    49 H16    -17.4771 -58.2121 -19.7750   H         1 RES1   0.0000
    50 H17    -17.0901 -60.1285 -21.0973   H         1 RES1   0.0000
    51 H18     -6.0881 -57.3544 -14.4210   H         1 RES1   0.0000
    52 H19    -13.4017 -53.6860 -19.6750   H         1 RES1   0.0000
    53 H20    -13.4058 -55.3991 -17.8707   H         1 RES1   0.0000
    54 H21    -11.3288 -52.3409 -20.1015   H         1 RES1   0.0000
    55 H22    -16.8078 -57.7535 -22.5338   H         1 RES1   0.0000
    56 H23    -17.3731 -59.3262 -23.1418   H         1 RES1   0.0000
    57 H24    -18.2847 -58.4860 -21.8669   H         1 RES1   0.0000
    58 H25    -14.7014 -58.8109 -22.1924   H         1 RES1   0.0000
    59 H26    -15.3515 -60.3929 -22.6794   H         1 RES1   0.0000
    60 H27    -10.1465 -61.0694 -18.4904   H         1 RES1   0.0000
    61 H28    -12.2647 -61.1282 -19.7976   H         1 RES1   0.0000
@<TRIPOS>BOND
     1     1     2    1
     2     2     3    1
     3     3     4    2
     4     3     5    1
     5     5     6    1
     6     6     7   ar
     7     7     8   ar
     8     8     9   ar
     9     9    10   ar
    10    10    11   ar
    11    11    12    1
    12    12    13    1
    13    13    14   ar
    14    14    15   ar
    15    15    16    1
    16    16    17    1
    17    17    18   ar
    18    18    19   ar
    19    19    20   ar
    20    20    21    1
    21    21    22    1
    22    22    23    1
    23    23    24    1
    24    24    25    1
    25    24    26    1
    26    26    27    1
    27    20    28   ar
    28    28    29   ar
    29    15    30   ar
    30    30    31   ar
    31    31    32   ar
    32    32    33    1
    33    11     6   ar
    34    32    13   ar
    35    29    17   ar
    36    27    21    1
    37    12    34    1
    38    27    35    1
    39    27    36    1
    40    28    37    1
    41    29    38    1
    42    10    39    1
    43     1    40    1
    44     1    41    1
    45     1    42    1
    46     2    43    1
    47     2    44    1
    48    16    45    1
    49    22    46    1
    50    22    47    1
    51    23    48    1
    52    23    49    1
    53    24    50    1
    54    31    51    1
    55     8    52    1
    56     9    53    1
    57     7    54    1
    58    25    55    1
    59    25    56    1
    60    25    57    1
    61    26    58    1
    62    26    59    1
    63    18    60    1
    64    19    61    1
@<TRIPOS>SUBSTRUCTURE
     1 RES1        1 GROUP             0 ****  ****    0  
@<TRIPOS>CRYSIN
    1.0000    1.0000    1.0000   90.0000   90.0000   90.0000     1     1
@<TRIPOS>MOLECULE
ligand_49
    61    64     1     0     0
SMALL
USER_CHARGES
****
Generated from the CSD

@<TRIPOS>ATOM
     1 C1      -8.3565 -48.7569 -17.8653   C.3       1 RES1   0.0000
     2 C2      -7.9492 -50.2117 -18.0930   C.3       1 RES1   0.0000
     3 C3      -9.2191 -51.0649 -18.1374   C.2       1 RES1   0.0000
     4 O4     -10.3058 -50.6209 -17.9405   O.2       1 RES1   0.0000
     5 O5      -9.0126 -52.4354 -18.4288   O.3       1 RES1   0.0000
     6 C6     -10.1844 -53.2600 -18.4588   C.ar      1 RES1   0.0000
     7 C7     -10.9788 -53.3827 -17.3169   C.ar      1 RES1   0.0000
     8 C8     -12.1234 -54.1986 -17.3648   C.ar      1 RES1   0.0000
     9 C9     -12.4395 -54.8760 -18.5549   C.ar      1 RES1   0.0000
    10 C10    -11.6340 -54.7542 -19.7020   C.ar      1 RES1   0.0000
    11 C11    -10.4901 -53.9405 -19.6525   C.ar      1 RES1   0.0000
    12 N12     -9.6047 -53.7710 -20.8454   N.pl3     1 RES1   0.0000
    13 C13     -9.3523 -54.8311 -21.8287   C.ar      1 RES1   0.0000
    14 N14     -9.9009 -56.0412 -21.6727   N.ar      1 RES1   0.0000
    15 C15     -9.6770 -57.0001 -22.5586   C.ar      1 RES1   0.0000
    16 N16    -10.2676 -58.3310 -22.3955   N.pl3     1 RES1   0.0000
    17 C17    -10.1033 -59.4195 -23.3767   C.ar      1 RES1   0.0000
    18 C18    -10.0256 -60.7226 -22.9122   C.ar      1 RES1   0.0000
    19 C19     -9.8784 -61.7834 -23.8165   C.ar      1 RES1   0.0000
    20 C20     -9.8081 -61.5289 -25.1823   C.ar      1 RES1   0.0000
    21 N21     -9.6475 -62.6661 -26.1225   N.pl3     1 RES1   0.0000
    22 C22    -10.2556 -62.7192 -27.4483   C.3       1 RES1   0.0000
    23 C23     -9.3276 -63.4128 -28.4151   C.3       1 RES1   0.0000
    24 N24     -8.9689 -64.7748 -27.9210   N.4       1 RES1   1.0000
    25 C25     -8.1811 -65.3374 -28.7586   C.3       1 RES1   0.0000
    26 C26     -8.4090 -64.7028 -26.5391   C.3       1 RES1   0.0000
    27 C27     -9.3649 -63.9995 -25.6083   C.3       1 RES1   0.0000
    28 C28     -9.8862 -60.2242 -25.6531   C.ar      1 RES1   0.0000
    29 C29    -10.0385 -59.1669 -24.7466   C.ar      1 RES1   0.0000
    30 N30     -8.9294 -56.8063 -23.6156   N.ar      1 RES1   0.0000
    31 C31     -8.3490 -55.6360 -23.8508   C.ar      1 RES1   0.0000
    32 C32     -8.5586 -54.6028 -22.9360   C.ar      1 RES1   0.0000
    33 Cl33    -7.7935 -53.0273 -23.2277   Cl        1 RES1   0.0000
    34 H1     -11.8942 -55.2843 -20.6170   H         1 RES1   0.0000
    35 H2      -9.8191 -62.8071 -23.4498   H         1 RES1   0.0000
    36 H3      -8.8952 -48.6741 -16.9225   H         1 RES1   0.0000
    37 H4      -7.4655 -48.1317 -17.8304   H         1 RES1   0.0000
    38 H5      -8.9991 -48.4280 -18.6807   H         1 RES1   0.0000
    39 H6      -7.3088 -50.5466 -17.2783   H         1 RES1   0.0000
    40 H7      -7.4127 -50.3005 -19.0365   H         1 RES1   0.0000
    41 H8     -12.7593 -54.3045 -16.4871   H         1 RES1   0.0000
    42 H9     -13.3257 -55.5079 -18.5899   H         1 RES1   0.0000
    43 H10    -10.7157 -52.8539 -16.4020   H         1 RES1   0.0000
    44 H11    -10.2917 -64.5674 -25.5422   H         1 RES1   0.0000
    45 H12     -8.9165 -63.9200 -24.6191   H         1 RES1   0.0000
    46 H13     -9.8293 -60.0242 -26.7221   H         1 RES1   0.0000
    47 H14     -9.1529 -52.8726 -20.9829   H         1 RES1   0.0000
    48 H15     -9.8216 -65.3240 -27.8812   H         1 RES1   0.0000
    49 H16     -7.2772 -64.7395 -28.8648   H         1 RES1   0.0000
    50 H17     -7.9187 -66.3313 -28.3990   H         1 RES1   0.0000
    51 H18     -8.6772 -65.4201 -29.7245   H         1 RES1   0.0000
    52 H19     -7.4676 -64.1559 -26.5636   H         1 RES1   0.0000
    53 H20     -8.2325 -65.7130 -26.1726   H         1 RES1   0.0000
    54 H21    -10.8190 -58.5134 -21.5631   H         1 RES1   0.0000
    55 H22    -10.0790 -60.9229 -21.8431   H         1 RES1   0.0000
    56 H23    -10.4481 -61.7058 -27.7975   H         1 RES1   0.0000
    57 H24    -11.1943 -63.2684 -27.3926   H         1 RES1   0.0000
    58 H25     -8.4193 -62.8220 -28.5244   H         1 RES1   0.0000
    59 H26     -9.8210 -63.5022 -29.3818   H         1 RES1   0.0000
    60 H27    -10.1065 -58.1437 -25.1132   H         1 RES1   0.0000
    61 H28     -7.7272 -55.4862 -24.7322   H         1 RES1   0.0000
@<TRIPOS>BOND
     1     1     2    1
     2     2     3    1
     3     3     4    2
     4     3     5    1
     5     5     6    1
     6     6     7   ar
     7     7     8   ar
     8     8     9   ar
     9     9    10   ar
    10    10    11   ar
    11    11    12    1
    12    12    13    1
    13    13    14   ar
    14    14    15   ar
    15    15    16    1
    16    16    17    1
    17    17    18   ar
    18    18    19   ar
    19    19    20   ar
    20    20    21    1
    21    21    22    1
    22    22    23    1
    23    23    24    1
    24    24    25    1
    25    24    26    1
    26    26    27    1
    27    20    28   ar
    28    28    29   ar
    29    15    30   ar
    30    30    31   ar
    31    31    32   ar
    32    32    33    1
    33    11     6   ar
    34    32    13   ar
    35    29    17   ar
    36    27    21    1
    37    10    34    1
    38    19    35    1
    39     1    36    1
    40     1    37    1
    41     1    38    1
    42     2    39    1
    43     2    40    1
    44     8    41    1
    45     9    42    1
    46     7    43    1
    47    27    44    1
    48    27    45    1
    49    28    46    1
    50    12    47    1
    51    24    48    1
    52    25    49    1
    53    25    50    1
    54    25    51    1
    55    26    52    1
    56    26    53    1
    57    16    54    1
    58    18    55    1
    59    22    56    1
    60    22    57    1
    61    23    58    1
    62    23    59    1
    63    29    60    1
    64    31    61    1
@<TRIPOS>SUBSTRUCTURE
     1 RES1        1 GROUP             0 ****  ****    0  
@<TRIPOS>CRYSIN
    1.0000    1.0000    1.0000   90.0000   90.0000   90.0000     1     1
@<TRIPOS>MOLECULE
ligand_50
    61    64     1     0     0
SMALL
USER_CHARGES
****
Generated from the CSD

@<TRIPOS>ATOM
     1 C1      -8.0749 -48.9565 -17.6743   C.3       1 RES1   0.0000
     2 C2      -7.7502 -50.4220 -17.9595   C.3       1 RES1   0.0000
     3 C3      -9.0662 -51.1998 -18.0344   C.2       1 RES1   0.0000
     4 O4     -10.1262 -50.7034 -17.8181   O.2       1 RES1   0.0000
     5 O5      -8.9373 -52.5674 -18.3796   O.3       1 RES1   0.0000
     6 C6     -10.1537 -53.3230 -18.4389   C.ar      1 RES1   0.0000
     7 C7     -10.9533 -53.4457 -17.3007   C.ar      1 RES1   0.0000
     8 C8     -12.1420 -54.1935 -17.3777   C.ar      1 RES1   0.0000
     9 C9     -12.4963 -54.8045 -18.5927   C.ar      1 RES1   0.0000
    10 C10    -11.6857 -54.6829 -19.7363   C.ar      1 RES1   0.0000
    11 C11    -10.4977 -53.9374 -19.6578   C.ar      1 RES1   0.0000
    12 N12     -9.6047 -53.7710 -20.8454   N.pl3     1 RES1   0.0000
    13 C13     -9.3523 -54.8311 -21.8287   C.ar      1 RES1   0.0000
    14 N14     -9.9009 -56.0412 -21.6727   N.ar      1 RES1   0.0000
    15 C15     -9.6770 -57.0001 -22.5586   C.ar      1 RES1   0.0000
    16 N16    -10.2676 -58.3310 -22.3955   N.pl3     1 RES1   0.0000
    17 C17    -11.2478 -58.6625 -21.3448   C.ar      1 RES1   0.0000
    18 C18    -12.2133 -57.7229 -21.0207   C.ar      1 RES1   0.0000
    19 C19    -13.1668 -58.0070 -20.0333   C.ar      1 RES1   0.0000
    20 C20    -13.1438 -59.2326 -19.3756   C.ar      1 RES1   0.0000
    21 N21    -14.1596 -59.5115 -18.3300   N.pl3     1 RES1   0.0000
    22 C22    -14.7163 -58.4946 -17.4433   C.3       1 RES1   0.0000
    23 C23    -16.1705 -58.7889 -17.1684   C.3       1 RES1   0.0000
    24 N24    -16.3362 -60.1603 -16.6029   N.4       1 RES1   1.0000
    25 C25    -17.5774 -60.3822 -16.3820   C.3       1 RES1   0.0000
    26 C26    -15.7032 -61.1769 -17.4939   C.3       1 RES1   0.0000
    27 C27    -14.2542 -60.8426 -17.7458   C.3       1 RES1   0.0000
    28 C28    -12.1781 -60.1782 -19.6975   C.ar      1 RES1   0.0000
    29 C29    -11.2299 -59.8928 -20.6885   C.ar      1 RES1   0.0000
    30 N30     -8.9294 -56.8063 -23.6156   N.ar      1 RES1   0.0000
    31 C31     -8.3490 -55.6360 -23.8508   C.ar      1 RES1   0.0000
    32 C32     -8.5586 -54.6028 -22.9360   C.ar      1 RES1   0.0000
    33 Cl33    -7.7935 -53.0273 -23.2277   Cl        1 RES1   0.0000
    34 H1      -9.1474 -52.8748 -20.9791   H         1 RES1   0.0000
    35 H2     -10.6605 -52.9690 -16.3664   H         1 RES1   0.0000
    36 H3     -12.7825 -54.2982 -16.5032   H         1 RES1   0.0000
    37 H4     -16.7315 -58.7163 -18.0989   H         1 RES1   0.0000
    38 H5     -16.5537 -58.0601 -16.4557   H         1 RES1   0.0000
    39 H6     -15.8534 -60.1875 -15.7105   H         1 RES1   0.0000
    40 H7     -12.1583 -61.1371 -19.1817   H         1 RES1   0.0000
    41 H8     -10.4759 -60.6346 -20.9474   H         1 RES1   0.0000
    42 H9      -8.6081 -48.8804 -16.7278   H         1 RES1   0.0000
    43 H10     -7.1501 -48.3843 -17.6170   H         1 RES1   0.0000
    44 H11     -8.6979 -48.5603 -18.4748   H         1 RES1   0.0000
    45 H12     -7.1298 -50.8241 -17.1599   H         1 RES1   0.0000
    46 H13     -7.2195 -50.5040 -18.9069   H         1 RES1   0.0000
    47 H14    -13.4167 -55.3837 -18.6502   H         1 RES1   0.0000
    48 H15    -11.9757 -55.1609 -20.6708   H         1 RES1   0.0000
    49 H16     -9.9873 -59.0635 -23.0397   H         1 RES1   0.0000
    50 H17    -14.6293 -57.5174 -17.9160   H         1 RES1   0.0000
    51 H18    -14.1648 -58.4940 -16.5043   H         1 RES1   0.0000
    52 H19    -12.2313 -56.7625 -21.5338   H         1 RES1   0.0000
    53 H20    -13.9259 -57.2680 -19.7810   H         1 RES1   0.0000
    54 H21    -18.1319 -60.3047 -17.3161   H         1 RES1   0.0000
    55 H22    -17.6995 -61.3826 -15.9694   H         1 RES1   0.0000
    56 H23    -17.9568 -59.6481 -15.6727   H         1 RES1   0.0000
    57 H24    -16.2347 -61.1988 -18.4442   H         1 RES1   0.0000
    58 H25    -15.7664 -62.1554 -17.0200   H         1 RES1   0.0000
    59 H26    -13.7069 -60.8661 -16.8046   H         1 RES1   0.0000
    60 H27    -13.8270 -61.5720 -18.4324   H         1 RES1   0.0000
    61 H28     -7.7272 -55.4862 -24.7322   H         1 RES1   0.0000
@<TRIPOS>BOND
     1     1     2    1
     2     2     3    1
     3     3     4    2
     4     3     5    1
     5     5     6    1
     6     6     7   ar
     7     7     8   ar
     8     8     9   ar
     9     9    10   ar
    10    10    11   ar
    11    11    12    1
    12    12    13    1
    13    13    14   ar
    14    14    15   ar
    15    15    16    1
    16    16    17    1
    17    17    18   ar
    18    18    19   ar
    19    19    20   ar
    20    20    21    1
    21    21    22    1
    22    22    23    1
    23    23    24    1
    24    24    25    1
    25    24    26    1
    26    26    27    1
    27    20    28   ar
    28    28    29   ar
    29    15    30   ar
    30    30    31   ar
    31    31    32   ar
    32    32    33    1
    33    11     6   ar
    34    32    13   ar
    35    29    17   ar
    36    27    21    1
    37    12    34    1
    38     7    35    1
    39     8    36    1
    40    23    37    1
    41    23    38    1
    42    24    39    1
    43    28    40    1
    44    29    41    1
    45     1    42    1
    46     1    43    1
    47     1    44    1
    48     2    45    1
    49     2    46    1
    50     9    47    1
    51    10    48    1
    52    16    49    1
    53    22    50    1
    54    22    51    1
    55    18    52    1
    56    19    53    1
    57    25    54    1
    58    25    55    1
    59    25    56    1
    60    26    57    1
    61    26    58    1
    62    27    59    1
    63    27    60    1
    64    31    61    1
@<TRIPOS>SUBSTRUCTURE
     1 RES1        1 GROUP             0 ****  ****    0  
@<TRIPOS>CRYSIN
    1.0000    1.0000    1.0000   90.0000   90.0000   90.0000     1     1
@<TRIPOS>MOLECULE
ligand_51
    61    64     1     0     0
SMALL
USER_CHARGES
****
Generated from the CSD

@<TRIPOS>ATOM
     1 C1      -9.2024 -48.0220 -18.1791   C.3       1 RES1   0.0000
     2 C2      -8.4486 -49.3384 -18.3616   C.3       1 RES1   0.0000
     3 C3      -9.4584 -50.4855 -18.2798   C.2       1 RES1   0.0000
     4 O4      -9.1368 -51.6255 -18.1628   O.2       1 RES1   0.0000
     5 O5     -10.8180 -50.0961 -18.3565   O.3       1 RES1   0.0000
     6 C6     -11.7843 -51.1521 -18.2853   C.ar      1 RES1   0.0000
     7 C7     -12.4174 -51.4360 -17.0734   C.ar      1 RES1   0.0000
     8 C8     -13.3608 -52.4779 -17.0225   C.ar      1 RES1   0.0000
     9 C9     -13.6415 -53.2130 -18.1869   C.ar      1 RES1   0.0000
    10 C10    -12.9981 -52.9276 -19.4052   C.ar      1 RES1   0.0000
    11 C11    -12.0546 -51.8880 -19.4544   C.ar      1 RES1   0.0000
    12 N12    -11.3482 -51.5392 -20.7252   N.pl3     1 RES1   0.0000
    13 C13    -11.6619 -52.1468 -22.0239   C.ar      1 RES1   0.0000
    14 N14    -12.7042 -52.9764 -22.1470   N.ar      1 RES1   0.0000
    15 C15    -12.9918 -53.5256 -23.3176   C.ar      1 RES1   0.0000
    16 N16    -14.1273 -54.4399 -23.4635   N.pl3     1 RES1   0.0000
    17 C17    -15.0562 -54.7647 -22.3652   C.ar      1 RES1   0.0000
    18 C18    -15.5317 -56.0621 -22.2630   C.ar      1 RES1   0.0000
    19 C19    -16.4092 -56.4093 -21.2264   C.ar      1 RES1   0.0000
    20 C20    -16.8055 -55.4506 -20.2996   C.ar      1 RES1   0.0000
    21 N21    -17.7389 -55.8380 -19.2126   N.pl3     1 RES1   0.0000
    22 C22    -17.6845 -55.2935 -17.8595   C.3       1 RES1   0.0000
    23 C23    -19.0803 -55.1444 -17.3060   C.3       1 RES1   0.0000
    24 N24    -19.8078 -56.4471 -17.3444   N.4       1 RES1   1.0000
    25 C25    -20.9870 -56.2899 -16.8715   C.3       1 RES1   0.0000
    26 C26    -19.7952 -57.0164 -18.7242   C.3       1 RES1   0.0000
    27 C27    -18.3835 -57.1441 -19.2397   C.3       1 RES1   0.0000
    28 C28    -16.3310 -54.1486 -20.3975   C.ar      1 RES1   0.0000
    29 C29    -15.4500 -53.8064 -21.4318   C.ar      1 RES1   0.0000
    30 N30    -12.2864 -53.2764 -24.3918   N.ar      1 RES1   0.0000
    31 C31    -11.2380 -52.4631 -24.3613   C.ar      1 RES1   0.0000
    32 C32    -10.9019 -51.8695 -23.1436   C.ar      1 RES1   0.0000
    33 Cl33    -9.5038 -50.7771 -23.0759   Cl        1 RES1   0.0000
    34 H1     -14.2828 -54.8726 -24.3684   H         1 RES1   0.0000
    35 H2     -15.2233 -56.8130 -22.9889   H         1 RES1   0.0000
    36 H3     -16.6425 -53.3972 -19.6734   H         1 RES1   0.0000
    37 H4     -15.0713 -52.7881 -21.5071   H         1 RES1   0.0000
    38 H5     -12.1839 -50.8586 -16.1801   H         1 RES1   0.0000
    39 H6     -13.8694 -52.7130 -16.0887   H         1 RES1   0.0000
    40 H7     -16.7808 -57.4298 -21.1466   H         1 RES1   0.0000
    41 H8     -14.3717 -54.0198 -18.1454   H         1 RES1   0.0000
    42 H9     -13.2287 -53.5055 -20.2990   H         1 RES1   0.0000
    43 H10    -10.6567 -52.2646 -25.2605   H         1 RES1   0.0000
    44 H11    -10.6104 -50.8432 -20.6877   H         1 RES1   0.0000
    45 H12    -20.3587 -56.3603 -19.3860   H         1 RES1   0.0000
    46 H13    -20.2595 -58.0013 -18.7080   H         1 RES1   0.0000
    47 H14    -17.8277 -57.8368 -18.6094   H         1 RES1   0.0000
    48 H15    -18.4025 -57.5188 -20.2620   H         1 RES1   0.0000
    49 H16    -19.6247 -54.4138 -17.9024   H         1 RES1   0.0000
    50 H17    -19.0205 -54.7992 -16.2749   H         1 RES1   0.0000
    51 H18    -19.3150 -57.0948 -16.7379   H         1 RES1   0.0000
    52 H19    -21.5236 -55.5560 -17.4709   H         1 RES1   0.0000
    53 H20    -21.5188 -57.2398 -16.8990   H         1 RES1   0.0000
    54 H21    -20.9217 -55.9401 -15.8423   H         1 RES1   0.0000
    55 H22     -9.6950 -48.0174 -17.2079   H         1 RES1   0.0000
    56 H23     -8.5005 -47.1912 -18.2341   H         1 RES1   0.0000
    57 H24     -9.9489 -47.9192 -18.9653   H         1 RES1   0.0000
    58 H25     -7.7027 -49.4477 -17.5757   H         1 RES1   0.0000
    59 H26     -7.9566 -49.3494 -19.3331   H         1 RES1   0.0000
    60 H27    -17.1997 -54.3186 -17.8824   H         1 RES1   0.0000
    61 H28    -17.1141 -55.9677 -17.2223   H         1 RES1   0.0000
@<TRIPOS>BOND
     1     1     2    1
     2     2     3    1
     3     3     4    2
     4     3     5    1
     5     5     6    1
     6     6     7   ar
     7     7     8   ar
     8     8     9   ar
     9     9    10   ar
    10    10    11   ar
    11    11    12    1
    12    12    13    1
    13    13    14   ar
    14    14    15   ar
    15    15    16    1
    16    16    17    1
    17    17    18   ar
    18    18    19   ar
    19    19    20   ar
    20    20    21    1
    21    21    22    1
    22    22    23    1
    23    23    24    1
    24    24    25    1
    25    24    26    1
    26    26    27    1
    27    20    28   ar
    28    28    29   ar
    29    15    30   ar
    30    30    31   ar
    31    31    32   ar
    32    32    33    1
    33    11     6   ar
    34    32    13   ar
    35    29    17   ar
    36    27    21    1
    37    16    34    1
    38    18    35    1
    39    28    36    1
    40    29    37    1
    41     7    38    1
    42     8    39    1
    43    19    40    1
    44     9    41    1
    45    10    42    1
    46    31    43    1
    47    12    44    1
    48    26    45    1
    49    26    46    1
    50    27    47    1
    51    27    48    1
    52    23    49    1
    53    23    50    1
    54    24    51    1
    55    25    52    1
    56    25    53    1
    57    25    54    1
    58     1    55    1
    59     1    56    1
    60     1    57    1
    61     2    58    1
    62     2    59    1
    63    22    60    1
    64    22    61    1
@<TRIPOS>SUBSTRUCTURE
     1 RES1        1 GROUP             0 ****  ****    0  
@<TRIPOS>CRYSIN
    1.0000    1.0000    1.0000   90.0000   90.0000   90.0000     1     1
@<TRIPOS>MOLECULE
ligand_52
    61    64     1     0     0
SMALL
USER_CHARGES
****
Generated from the CSD

@<TRIPOS>ATOM
     1 C1      -8.1865 -49.2680 -18.1031   C.3       1 RES1   0.0000
     2 C2      -7.9847 -50.7722 -18.2797   C.3       1 RES1   0.0000
     3 C3      -9.3556 -51.4505 -18.2253   C.2       1 RES1   0.0000
     4 O4      -9.4928 -52.6272 -18.1097   O.2       1 RES1   0.0000
     5 O5     -10.4641 -50.5746 -18.3260   O.3       1 RES1   0.0000
     6 C6     -11.7599 -51.1851 -18.2807   C.ar      1 RES1   0.0000
     7 C7     -12.4624 -51.4162 -19.4653   C.ar      1 RES1   0.0000
     8 C8     -13.7338 -52.0140 -19.4006   C.ar      1 RES1   0.0000
     9 C9     -14.2717 -52.3596 -18.1490   C.ar      1 RES1   0.0000
    10 C10    -13.5633 -52.1207 -16.9571   C.ar      1 RES1   0.0000
    11 C11    -12.2943 -51.5220 -17.0228   C.ar      1 RES1   0.0000
    12 N12    -11.4969 -51.2531 -15.7869   N.pl3     1 RES1   0.0000
    13 C13    -11.8997 -51.6948 -14.4464   C.ar      1 RES1   0.0000
    14 N14    -12.9699 -52.4819 -14.2881   N.ar      1 RES1   0.0000
    15 C15    -13.3359 -52.8841 -13.0802   C.ar      1 RES1   0.0000
    16 N16    -14.5092 -53.7414 -12.8938   N.pl3     1 RES1   0.0000
    17 C17    -15.3190 -54.2655 -14.0093   C.ar      1 RES1   0.0000
    18 C18    -16.6928 -54.3464 -13.8484   C.ar      1 RES1   0.0000
    19 C19    -17.4951 -54.8310 -14.8907   C.ar      1 RES1   0.0000
    20 C20    -16.9124 -55.2337 -16.0880   C.ar      1 RES1   0.0000
    21 N21    -17.7794 -55.7482 -17.1772   N.pl3     1 RES1   0.0000
    22 C22    -17.5267 -55.5197 -18.5964   C.3       1 RES1   0.0000
    23 C23    -17.9323 -56.7337 -19.3956   C.3       1 RES1   0.0000
    24 N24    -19.3613 -57.0822 -19.1418   N.4       1 RES1   1.0000
    25 C25    -19.6760 -58.1147 -19.8300   C.3       1 RES1   0.0000
    26 C26    -19.6110 -57.2478 -17.6794   C.3       1 RES1   0.0000
    27 C27    -19.1880 -56.0155 -16.9194   C.3       1 RES1   0.0000
    28 C28    -15.5354 -55.1539 -16.2543   C.ar      1 RES1   0.0000
    29 C29    -14.7372 -54.6641 -15.2123   C.ar      1 RES1   0.0000
    30 N30    -12.6707 -52.5436 -12.0054   N.ar      1 RES1   0.0000
    31 C31    -11.5952 -51.7686 -12.0704   C.ar      1 RES1   0.0000
    32 C32    -11.1823 -51.3214 -13.3265   C.ar      1 RES1   0.0000
    33 Cl33    -9.7462 -50.2835 -13.4409   Cl        1 RES1   0.0000
    34 H1     -14.7790 -53.9877 -11.9468   H         1 RES1   0.0000
    35 H2     -17.1499 -54.0331 -12.9109   H         1 RES1   0.0000
    36 H3     -18.5749 -54.8923 -14.7631   H         1 RES1   0.0000
    37 H4      -7.3523 -51.1553 -17.4802   H         1 RES1   0.0000
    38 H5      -7.5138 -50.9702 -19.2415   H         1 RES1   0.0000
    39 H6     -13.9935 -52.3965 -15.9955   H         1 RES1   0.0000
    40 H7     -12.0317 -51.1374 -20.4259   H         1 RES1   0.0000
    41 H8     -16.4656 -55.3269 -18.7471   H         1 RES1   0.0000
    42 H9     -18.1032 -54.6586 -18.9312   H         1 RES1   0.0000
    43 H10    -17.3033 -57.5756 -19.1100   H         1 RES1   0.0000
    44 H11    -17.7988 -56.5241 -20.4559   H         1 RES1   0.0000
    45 H12    -14.2967 -52.2075 -20.3126   H         1 RES1   0.0000
    46 H13    -15.2567 -52.8216 -18.1008   H         1 RES1   0.0000
    47 H14    -13.6582 -54.5944 -15.3423   H         1 RES1   0.0000
    48 H15    -11.0505 -51.4896 -11.1696   H         1 RES1   0.0000
    49 H16    -19.7848 -55.1649 -17.2452   H         1 RES1   0.0000
    50 H17    -19.3380 -56.1770 -15.8529   H         1 RES1   0.0000
    51 H18    -15.0784 -55.4707 -17.1906   H         1 RES1   0.0000
    52 H19     -8.6604 -49.0757 -17.1417   H         1 RES1   0.0000
    53 H20     -7.2210 -48.7656 -18.1388   H         1 RES1   0.0000
    54 H21     -8.8219 -48.8906 -18.9029   H         1 RES1   0.0000
    55 H22    -19.9312 -56.3079 -19.4673   H         1 RES1   0.0000
    56 H23    -19.0410 -58.9509 -19.5411   H         1 RES1   0.0000
    57 H24    -20.7185 -58.3699 -19.6456   H         1 RES1   0.0000
    58 H25    -19.5362 -57.9016 -20.8888   H         1 RES1   0.0000
    59 H26    -19.0443 -58.1035 -17.3154   H         1 RES1   0.0000
    60 H27    -20.6738 -57.4203 -17.5162   H         1 RES1   0.0000
    61 H28    -10.6284 -50.7362 -15.8801   H         1 RES1   0.0000
@<TRIPOS>BOND
     1     1     2    1
     2     2     3    1
     3     3     4    2
     4     3     5    1
     5     5     6    1
     6     6     7   ar
     7     7     8   ar
     8     8     9   ar
     9     9    10   ar
    10    10    11   ar
    11    11    12    1
    12    12    13    1
    13    13    14   ar
    14    14    15   ar
    15    15    16    1
    16    16    17    1
    17    17    18   ar
    18    18    19   ar
    19    19    20   ar
    20    20    21    1
    21    21    22    1
    22    22    23    1
    23    23    24    1
    24    24    25    1
    25    24    26    1
    26    26    27    1
    27    20    28   ar
    28    28    29   ar
    29    15    30   ar
    30    30    31   ar
    31    31    32   ar
    32    32    33    1
    33    11     6   ar
    34    32    13   ar
    35    29    17   ar
    36    27    21    1
    37    16    34    1
    38    18    35    1
    39    19    36    1
    40     2    37    1
    41     2    38    1
    42    10    39    1
    43     7    40    1
    44    22    41    1
    45    22    42    1
    46    23    43    1
    47    23    44    1
    48     8    45    1
    49     9    46    1
    50    29    47    1
    51    31    48    1
    52    27    49    1
    53    27    50    1
    54    28    51    1
    55     1    52    1
    56     1    53    1
    57     1    54    1
    58    24    55    1
    59    25    56    1
    60    25    57    1
    61    25    58    1
    62    26    59    1
    63    26    60    1
    64    12    61    1
@<TRIPOS>SUBSTRUCTURE
     1 RES1        1 GROUP             0 ****  ****    0  
@<TRIPOS>CRYSIN
    1.0000    1.0000    1.0000   90.0000   90.0000   90.0000     1     1
@<TRIPOS>MOLECULE
ligand_53
    61    64     1     0     0
SMALL
USER_CHARGES
****
Generated from the CSD

@<TRIPOS>ATOM
     1 C1      -8.5923 -48.6369 -17.9976   C.3       1 RES1   0.0000
     2 C2      -8.1194 -50.0721 -18.2231   C.3       1 RES1   0.0000
     3 C3      -9.3443 -50.9896 -18.2065   C.2       1 RES1   0.0000
     4 O4      -9.2657 -52.1750 -18.1325   O.2       1 RES1   0.0000
     5 O5     -10.5931 -50.3267 -18.2892   O.3       1 RES1   0.0000
     6 C6     -11.7564 -51.1636 -18.2786   C.ar      1 RES1   0.0000
     7 C7     -12.4641 -51.3572 -17.0905   C.ar      1 RES1   0.0000
     8 C8     -13.6017 -52.1842 -17.0993   C.ar      1 RES1   0.0000
     9 C9     -13.9978 -52.8013 -18.2982   C.ar      1 RES1   0.0000
    10 C10    -13.2795 -52.6081 -19.4925   C.ar      1 RES1   0.0000
    11 C11    -12.1424 -51.7834 -19.4821   C.ar      1 RES1   0.0000
    12 N12    -11.3482 -51.5392 -20.7252   N.pl3     1 RES1   0.0000
    13 C13    -11.6619 -52.1468 -22.0239   C.ar      1 RES1   0.0000
    14 N14    -12.7042 -52.9764 -22.1470   N.ar      1 RES1   0.0000
    15 C15    -12.9918 -53.5256 -23.3176   C.ar      1 RES1   0.0000
    16 N16    -14.1273 -54.4399 -23.4635   N.pl3     1 RES1   0.0000
    17 C17    -14.4741 -55.1102 -24.7304   C.ar      1 RES1   0.0000
    18 C18    -15.8128 -55.2564 -25.0564   C.ar      1 RES1   0.0000
    19 C19    -16.1797 -55.8804 -26.2569   C.ar      1 RES1   0.0000
    20 C20    -15.1995 -56.3556 -27.1220   C.ar      1 RES1   0.0000
    21 N21    -15.6094 -57.0173 -28.3858   N.pl3     1 RES1   0.0000
    22 C22    -14.8724 -56.9049 -29.6405   C.3       1 RES1   0.0000
    23 C23    -14.9392 -58.2085 -30.3977   C.3       1 RES1   0.0000
    24 N24    -16.3566 -58.6154 -30.6284   N.4       1 RES1   1.0000
    25 C25    -16.3821 -59.7231 -31.2696   C.3       1 RES1   0.0000
    26 C26    -17.1076 -58.6611 -29.3391   C.3       1 RES1   0.0000
    27 C27    -17.0110 -57.3420 -28.6142   C.3       1 RES1   0.0000
    28 C28    -13.8558 -56.2107 -26.7999   C.ar      1 RES1   0.0000
    29 C29    -13.4929 -55.5820 -25.6017   C.ar      1 RES1   0.0000
    30 N30    -12.2864 -53.2764 -24.3918   N.ar      1 RES1   0.0000
    31 C31    -11.2380 -52.4631 -24.3613   C.ar      1 RES1   0.0000
    32 C32    -10.9019 -51.8695 -23.1436   C.ar      1 RES1   0.0000
    33 Cl33    -9.5038 -50.7771 -23.0759   Cl        1 RES1   0.0000
    34 H1     -13.8318 -56.6649 -29.4271   H         1 RES1   0.0000
    35 H2     -15.3107 -56.1132 -30.2464   H         1 RES1   0.0000
    36 H3     -17.2323 -55.9931 -26.5123   H         1 RES1   0.0000
    37 H4     -14.8784 -53.4419 -18.3029   H         1 RES1   0.0000
    38 H5     -13.6011 -53.0919 -20.4136   H         1 RES1   0.0000
    39 H6     -12.1397 -50.8745 -16.1698   H         1 RES1   0.0000
    40 H7     -14.1708 -52.3450 -16.1848   H         1 RES1   0.0000
    41 H8     -13.0880 -56.5842 -27.4759   H         1 RES1   0.0000
    42 H9     -12.4404 -55.4613 -25.3497   H         1 RES1   0.0000
    43 H10    -15.8734 -60.4908 -30.6884   H         1 RES1   0.0000
    44 H11    -17.4158 -60.0210 -31.4385   H         1 RES1   0.0000
    45 H12    -15.8787 -59.5998 -32.2274   H         1 RES1   0.0000
    46 H13    -16.6890 -59.4453 -28.7101   H         1 RES1   0.0000
    47 H14    -18.1546 -58.8799 -29.5437   H         1 RES1   0.0000
    48 H15    -17.4712 -56.5611 -29.2178   H         1 RES1   0.0000
    49 H16    -17.5278 -57.4140 -27.6583   H         1 RES1   0.0000
    50 H17     -9.0975 -48.5681 -17.0353   H         1 RES1   0.0000
    51 H18     -7.7342 -47.9664 -18.0058   H         1 RES1   0.0000
    52 H19     -9.2823 -48.3532 -18.7909   H         1 RES1   0.0000
    53 H20     -7.4314 -50.3620 -17.4303   H         1 RES1   0.0000
    54 H21     -7.6161 -50.1470 -19.1859   H         1 RES1   0.0000
    55 H22    -14.4349 -58.9825 -29.8211   H         1 RES1   0.0000
    56 H23    -14.4411 -58.0891 -31.3587   H         1 RES1   0.0000
    57 H24    -16.7900 -57.9088 -31.2141   H         1 RES1   0.0000
    58 H25    -10.5472 -50.9184 -20.6677   H         1 RES1   0.0000
    59 H26    -10.6567 -52.2646 -25.2605   H         1 RES1   0.0000
    60 H27    -16.5810 -54.8861 -24.3791   H         1 RES1   0.0000
    61 H28    -14.7058 -54.6215 -22.6495   H         1 RES1   0.0000
@<TRIPOS>BOND
     1     1     2    1
     2     2     3    1
     3     3     4    2
     4     3     5    1
     5     5     6    1
     6     6     7   ar
     7     7     8   ar
     8     8     9   ar
     9     9    10   ar
    10    10    11   ar
    11    11    12    1
    12    12    13    1
    13    13    14   ar
    14    14    15   ar
    15    15    16    1
    16    16    17    1
    17    17    18   ar
    18    18    19   ar
    19    19    20   ar
    20    20    21    1
    21    21    22    1
    22    22    23    1
    23    23    24    1
    24    24    25    1
    25    24    26    1
    26    26    27    1
    27    20    28   ar
    28    28    29   ar
    29    15    30   ar
    30    30    31   ar
    31    31    32   ar
    32    32    33    1
    33    11     6   ar
    34    32    13   ar
    35    29    17   ar
    36    27    21    1
    37    22    34    1
    38    22    35    1
    39    19    36    1
    40     9    37    1
    41    10    38    1
    42     7    39    1
    43     8    40    1
    44    28    41    1
    45    29    42    1
    46    25    43    1
    47    25    44    1
    48    25    45    1
    49    26    46    1
    50    26    47    1
    51    27    48    1
    52    27    49    1
    53     1    50    1
    54     1    51    1
    55     1    52    1
    56     2    53    1
    57     2    54    1
    58    23    55    1
    59    23    56    1
    60    24    57    1
    61    12    58    1
    62    31    59    1
    63    18    60    1
    64    16    61    1
@<TRIPOS>SUBSTRUCTURE
     1 RES1        1 GROUP             0 ****  ****    0  
@<TRIPOS>CRYSIN
    1.0000    1.0000    1.0000   90.0000   90.0000   90.0000     1     1
@<TRIPOS>MOLECULE
ligand_54
    61    64     1     0     0
SMALL
USER_CHARGES
****
Generated from the CSD

@<TRIPOS>ATOM
     1 C1      -8.6648 -48.5468 -18.0048   C.3       1 RES1   0.0000
     2 C2      -8.1555 -49.9696 -18.2299   C.3       1 RES1   0.0000
     3 C3      -9.3562 -50.9184 -18.2109   C.2       1 RES1   0.0000
     4 O4      -9.2470 -52.1013 -18.1360   O.2       1 RES1   0.0000
     5 O5     -10.6219 -50.2878 -18.2922   O.3       1 RES1   0.0000
     6 C6     -11.7632 -51.1545 -18.2794   C.ar      1 RES1   0.0000
     7 C7     -12.4002 -51.4847 -19.4774   C.ar      1 RES1   0.0000
     8 C8     -13.5205 -52.3345 -19.4444   C.ar      1 RES1   0.0000
     9 C9     -13.9776 -52.8271 -18.2101   C.ar      1 RES1   0.0000
    10 C10    -13.3364 -52.4883 -17.0044   C.ar      1 RES1   0.0000
    11 C11    -12.2188 -51.6381 -17.0384   C.ar      1 RES1   0.0000
    12 N12    -11.4969 -51.2531 -15.7869   N.pl3     1 RES1   0.0000
    13 C13    -11.8997 -51.6948 -14.4464   C.ar      1 RES1   0.0000
    14 N14    -12.9699 -52.4819 -14.2881   N.ar      1 RES1   0.0000
    15 C15    -13.3359 -52.8841 -13.0802   C.ar      1 RES1   0.0000
    16 N16    -14.5092 -53.7414 -12.8938   N.pl3     1 RES1   0.0000
    17 C17    -14.9869 -54.1902 -11.5728   C.ar      1 RES1   0.0000
    18 C18    -15.4737 -55.4815 -11.4491   C.ar      1 RES1   0.0000
    19 C19    -15.9278 -55.9454 -10.2067   C.ar      1 RES1   0.0000
    20 C20    -15.8921 -55.1086  -9.0960   C.ar      1 RES1   0.0000
    21 N21    -16.3821 -55.6179  -7.7909   N.pl3     1 RES1   0.0000
    22 C22    -15.7981 -55.2547  -6.5035   C.3       1 RES1   0.0000
    23 C23    -16.8791 -55.1549  -5.4554   C.3       1 RES1   0.0000
    24 N24    -17.6516 -56.4290  -5.3677   N.4       1 RES1   1.0000
    25 C25    -18.5608 -56.3145  -4.4738   C.3       1 RES1   0.0000
    26 C26    -18.1848 -56.8145  -6.7075   C.3       1 RES1   0.0000
    27 C27    -17.0738 -56.8982  -7.7241   C.3       1 RES1   0.0000
    28 C28    -15.4044 -53.8132  -9.2148   C.ar      1 RES1   0.0000
    29 C29    -14.9465 -53.3547 -10.4570   C.ar      1 RES1   0.0000
    30 N30    -12.6707 -52.5436 -12.0054   N.ar      1 RES1   0.0000
    31 C31    -11.5952 -51.7686 -12.0704   C.ar      1 RES1   0.0000
    32 C32    -11.1823 -51.3214 -13.3265   C.ar      1 RES1   0.0000
    33 Cl33    -9.7462 -50.2835 -13.4409   Cl        1 RES1   0.0000
    34 H1     -10.6827 -50.6527 -15.8689   H         1 RES1   0.0000
    35 H2     -12.0346 -51.0897 -20.4241   H         1 RES1   0.0000
    36 H3     -14.0294 -52.6084 -20.3674   H         1 RES1   0.0000
    37 H4     -15.0203 -54.0424 -13.7175   H         1 RES1   0.0000
    38 H5     -14.8456 -53.4843 -18.1864   H         1 RES1   0.0000
    39 H6     -13.7021 -52.8804 -16.0565   H         1 RES1   0.0000
    40 H7     -15.2943 -54.2935  -6.5945   H         1 RES1   0.0000
    41 H8     -15.0776 -56.0155  -6.2070   H         1 RES1   0.0000
    42 H9     -17.5568 -54.3438  -5.7176   H         1 RES1   0.0000
    43 H10    -16.4215 -54.9476  -4.4892   H         1 RES1   0.0000
    44 H11    -17.0126 -57.1582  -5.0675   H         1 RES1   0.0000
    45 H12     -9.1702 -48.4903 -17.0419   H         1 RES1   0.0000
    46 H13     -7.8242 -47.8545 -18.0148   H         1 RES1   0.0000
    47 H14     -9.3630 -48.2815 -18.7973   H         1 RES1   0.0000
    48 H15     -7.4591 -50.2411 -17.4379   H         1 RES1   0.0000
    49 H16     -7.6518 -50.0323 -19.1934   H         1 RES1   0.0000
    50 H17    -16.3706 -57.6763  -7.4307   H         1 RES1   0.0000
    51 H18    -17.4922 -57.1366  -8.7008   H         1 RES1   0.0000
    52 H19    -15.3781 -53.1570  -8.3461   H         1 RES1   0.0000
    53 H20    -14.5575 -52.3419 -10.5516   H         1 RES1   0.0000
    54 H21    -15.5036 -56.1369 -12.3183   H         1 RES1   0.0000
    55 H22    -16.3086 -56.9611 -10.1110   H         1 RES1   0.0000
    56 H23    -11.0505 -51.4896 -11.1696   H         1 RES1   0.0000
    57 H24    -19.2322 -55.4999  -4.7412   H         1 RES1   0.0000
    58 H25    -19.1251 -57.2436  -4.4089   H         1 RES1   0.0000
    59 H26    -18.0985 -56.1026  -3.5108   H         1 RES1   0.0000
    60 H27    -18.9091 -56.0686  -7.0313   H         1 RES1   0.0000
    61 H28    -18.6726 -57.7851  -6.6315   H         1 RES1   0.0000
@<TRIPOS>BOND
     1     1     2    1
     2     2     3    1
     3     3     4    2
     4     3     5    1
     5     5     6    1
     6     6     7   ar
     7     7     8   ar
     8     8     9   ar
     9     9    10   ar
    10    10    11   ar
    11    11    12    1
    12    12    13    1
    13    13    14   ar
    14    14    15   ar
    15    15    16    1
    16    16    17    1
    17    17    18   ar
    18    18    19   ar
    19    19    20   ar
    20    20    21    1
    21    21    22    1
    22    22    23    1
    23    23    24    1
    24    24    25    1
    25    24    26    1
    26    26    27    1
    27    20    28   ar
    28    28    29   ar
    29    15    30   ar
    30    30    31   ar
    31    31    32   ar
    32    32    33    1
    33    11     6   ar
    34    32    13   ar
    35    29    17   ar
    36    27    21    1
    37    12    34    1
    38     7    35    1
    39     8    36    1
    40    16    37    1
    41     9    38    1
    42    10    39    1
    43    22    40    1
    44    22    41    1
    45    23    42    1
    46    23    43    1
    47    24    44    1
    48     1    45    1
    49     1    46    1
    50     1    47    1
    51     2    48    1
    52     2    49    1
    53    27    50    1
    54    27    51    1
    55    28    52    1
    56    29    53    1
    57    18    54    1
    58    19    55    1
    59    31    56    1
    60    25    57    1
    61    25    58    1
    62    25    59    1
    63    26    60    1
    64    26    61    1
@<TRIPOS>SUBSTRUCTURE
     1 RES1        1 GROUP             0 ****  ****    0  
@<TRIPOS>CRYSIN
    1.0000    1.0000    1.0000   90.0000   90.0000   90.0000     1     1
@<TRIPOS>MOLECULE
ligand_55
    61    64     1     0     0
SMALL
USER_CHARGES
****
Generated from the CSD

@<TRIPOS>ATOM
     1 C1      -8.9872 -48.4875 -17.9712   C.3       1 RES1   0.0000
     2 C2      -8.4041 -49.8778 -18.2191   C.3       1 RES1   0.0000
     3 C3      -9.5501 -50.8918 -18.1891   C.2       1 RES1   0.0000
     4 O4     -10.6733 -50.5936 -17.9313   O.2       1 RES1   0.0000
     5 O5      -9.1806 -52.2257 -18.4892   O.3       1 RES1   0.0000
     6 C6     -10.2352 -53.1958 -18.4650   C.ar      1 RES1   0.0000
     7 C7     -10.8464 -53.5897 -19.6571   C.ar      1 RES1   0.0000
     8 C8     -11.8815 -54.5409 -19.6130   C.ar      1 RES1   0.0000
     9 C9     -12.2818 -55.0691 -18.3737   C.ar      1 RES1   0.0000
    10 C10    -11.6671 -54.6663 -17.1739   C.ar      1 RES1   0.0000
    11 C11    -10.6347 -53.7148 -17.2190   C.ar      1 RES1   0.0000
    12 N12     -9.9437 -53.2583 -15.9741   N.pl3     1 RES1   0.0000
    13 C13    -10.6120 -53.1263 -14.6741   C.ar      1 RES1   0.0000
    14 N14    -11.9181 -53.3909 -14.5564   N.ar      1 RES1   0.0000
    15 C15    -12.5248 -53.2747 -13.3846   C.ar      1 RES1   0.0000
    16 N16    -13.9557 -53.5562 -13.2446   N.pl3     1 RES1   0.0000
    17 C17    -14.7032 -53.3642 -11.9880   C.ar      1 RES1   0.0000
    18 C18    -14.3725 -52.2886 -11.1795   C.ar      1 RES1   0.0000
    19 C19    -15.0678 -52.0697  -9.9821   C.ar      1 RES1   0.0000
    20 C20    -16.0900 -52.9337  -9.6029   C.ar      1 RES1   0.0000
    21 N21    -16.8103 -52.6866  -8.3289   N.pl3     1 RES1   0.0000
    22 C22    -16.8834 -51.3844  -7.6737   C.3       1 RES1   0.0000
    23 C23    -18.2325 -51.2094  -7.0209   C.3       1 RES1   0.0000
    24 N24    -18.5065 -52.3214  -6.0638   N.4       1 RES1   1.0000
    25 C25    -19.6560 -52.1478  -5.5278   C.3       1 RES1   0.0000
    26 C26    -18.3630 -53.6447  -6.7394   C.3       1 RES1   0.0000
    27 C27    -17.0043 -53.7756  -7.3811   C.3       1 RES1   0.0000
    28 C28    -16.4256 -54.0131 -10.4105   C.ar      1 RES1   0.0000
    29 C29    -15.7320 -54.2259 -11.6090   C.ar      1 RES1   0.0000
    30 N30    -11.8810 -52.9119 -12.3040   N.ar      1 RES1   0.0000
    31 C31    -10.5835 -52.6336 -12.3289   C.ar      1 RES1   0.0000
    32 C32     -9.9116 -52.7406 -13.5476   C.ar      1 RES1   0.0000
    33 Cl33    -8.1753 -52.3740 -13.6078   Cl        1 RES1   0.0000
    34 H1     -16.7367 -50.5995  -8.4142   H         1 RES1   0.0000
    35 H2     -16.1046 -51.3182  -6.9154   H         1 RES1   0.0000
    36 H3     -19.0032 -51.2025  -7.7903   H         1 RES1   0.0000
    37 H4     -18.2485 -50.2629  -6.4826   H         1 RES1   0.0000
    38 H5     -17.2244 -54.6909 -10.1132   H         1 RES1   0.0000
    39 H6     -15.9973 -55.0675 -12.2471   H         1 RES1   0.0000
    40 H7     -11.9877 -55.0870 -16.2220   H         1 RES1   0.0000
    41 H8     -17.8108 -52.2734  -5.3263   H         1 RES1   0.0000
    42 H9     -20.4205 -52.1389  -6.3033   H         1 RES1   0.0000
    43 H10    -19.8570 -52.9587  -4.8292   H         1 RES1   0.0000
    44 H11    -19.6684 -51.1982  -4.9949   H         1 RES1   0.0000
    45 H12     -8.9571 -53.0267 -16.0313   H         1 RES1   0.0000
    46 H13    -19.1303 -53.7387  -7.5064   H         1 RES1   0.0000
    47 H14    -18.4873 -54.4368  -6.0025   H         1 RES1   0.0000
    48 H15    -16.2337 -53.7304  -6.6129   H         1 RES1   0.0000
    49 H16    -16.9398 -54.7285  -7.9043   H         1 RES1   0.0000
    50 H17    -13.5715 -51.6125 -11.4746   H         1 RES1   0.0000
    51 H18    -14.8076 -51.2230  -9.3486   H         1 RES1   0.0000
    52 H19     -9.4780 -48.4677 -16.9993   H         1 RES1   0.0000
    53 H20     -8.1865 -47.7496 -17.9886   H         1 RES1   0.0000
    54 H21     -9.7128 -48.2542 -18.7491   H         1 RES1   0.0000
    55 H22     -7.6800 -50.1174 -17.4418   H         1 RES1   0.0000
    56 H23     -7.9147 -49.9038 -19.1916   H         1 RES1   0.0000
    57 H24    -10.5260 -53.1662 -20.6079   H         1 RES1   0.0000
    58 H25    -14.4592 -53.9017 -14.0554   H         1 RES1   0.0000
    59 H26    -12.3686 -54.8653 -20.5313   H         1 RES1   0.0000
    60 H27    -13.0839 -55.8050 -18.3414   H         1 RES1   0.0000
    61 H28    -10.0582 -52.3305 -11.4244   H         1 RES1   0.0000
@<TRIPOS>BOND
     1     1     2    1
     2     2     3    1
     3     3     4    2
     4     3     5    1
     5     5     6    1
     6     6     7   ar
     7     7     8   ar
     8     8     9   ar
     9     9    10   ar
    10    10    11   ar
    11    11    12    1
    12    12    13    1
    13    13    14   ar
    14    14    15   ar
    15    15    16    1
    16    16    17    1
    17    17    18   ar
    18    18    19   ar
    19    19    20   ar
    20    20    21    1
    21    21    22    1
    22    22    23    1
    23    23    24    1
    24    24    25    1
    25    24    26    1
    26    26    27    1
    27    20    28   ar
    28    28    29   ar
    29    15    30   ar
    30    30    31   ar
    31    31    32   ar
    32    32    33    1
    33    11     6   ar
    34    32    13   ar
    35    29    17   ar
    36    27    21    1
    37    22    34    1
    38    22    35    1
    39    23    36    1
    40    23    37    1
    41    28    38    1
    42    29    39    1
    43    10    40    1
    44    24    41    1
    45    25    42    1
    46    25    43    1
    47    25    44    1
    48    12    45    1
    49    26    46    1
    50    26    47    1
    51    27    48    1
    52    27    49    1
    53    18    50    1
    54    19    51    1
    55     1    52    1
    56     1    53    1
    57     1    54    1
    58     2    55    1
    59     2    56    1
    60     7    57    1
    61    16    58    1
    62     8    59    1
    63     9    60    1
    64    31    61    1
@<TRIPOS>SUBSTRUCTURE
     1 RES1        1 GROUP             0 ****  ****    0  
@<TRIPOS>CRYSIN
    1.0000    1.0000    1.0000   90.0000   90.0000   90.0000     1     1
@<TRIPOS>MOLECULE
ligand_56
    61    64     1     0     0
SMALL
USER_CHARGES
****
Generated from the CSD

@<TRIPOS>ATOM
     1 C1      -8.3097 -48.7577 -18.0432   C.3       1 RES1   0.0000
     2 C2      -7.9216 -50.2160 -18.2825   C.3       1 RES1   0.0000
     3 C3      -9.1938 -51.0654 -18.2365   C.2       1 RES1   0.0000
     4 O4     -10.2645 -50.6162 -17.9744   O.2       1 RES1   0.0000
     5 O5      -9.0101 -52.4394 -18.5272   O.3       1 RES1   0.0000
     6 C6     -10.1859 -53.2578 -18.4880   C.ar      1 RES1   0.0000
     7 C7     -10.4537 -54.0382 -17.3613   C.ar      1 RES1   0.0000
     8 C8     -11.6111 -54.8370 -17.3424   C.ar      1 RES1   0.0000
     9 C9     -12.4681 -54.8378 -18.4562   C.ar      1 RES1   0.0000
    10 C10    -12.1926 -54.0542 -19.5918   C.ar      1 RES1   0.0000
    11 C11    -11.0354 -53.2582 -19.6104   C.ar      1 RES1   0.0000
    12 N12    -10.7002 -52.4015 -20.7891   N.pl3     1 RES1   0.0000
    13 C13    -11.0078 -52.7694 -22.1763   C.ar      1 RES1   0.0000
    14 N14    -11.5941 -53.9404 -22.4501   N.ar      1 RES1   0.0000
    15 C15    -11.8749 -54.2756 -23.7004   C.ar      1 RES1   0.0000
    16 N16    -12.5117 -55.5575 -24.0131   N.pl3     1 RES1   0.0000
    17 C17    -12.7719 -56.0223 -25.3882   C.ar      1 RES1   0.0000
    18 C18    -11.8436 -55.7261 -26.3733   C.ar      1 RES1   0.0000
    19 C19    -12.0534 -56.1596 -27.6897   C.ar      1 RES1   0.0000
    20 C20    -13.1957 -56.8864 -28.0094   C.ar      1 RES1   0.0000
    21 N21    -13.4009 -57.3318 -29.4103   N.pl3     1 RES1   0.0000
    22 C22    -12.3215 -57.4990 -30.3784   C.3       1 RES1   0.0000
    23 C23    -12.6138 -58.6725 -31.2808   C.3       1 RES1   0.0000
    24 N24    -13.9350 -58.5065 -31.9551   N.4       1 RES1   1.0000
    25 C25    -14.1566 -59.5156 -32.7110   C.3       1 RES1   0.0000
    26 C26    -15.0134 -58.2726 -30.9498   C.3       1 RES1   0.0000
    27 C27    -14.6793 -57.0958 -30.0677   C.3       1 RES1   0.0000
    28 C28    -14.1290 -57.1865 -27.0251   C.ar      1 RES1   0.0000
    29 C29    -13.9134 -56.7560 -25.7094   C.ar      1 RES1   0.0000
    30 N30    -11.6053 -53.4837 -24.7073   N.ar      1 RES1   0.0000
    31 C31    -11.0276 -52.3024 -24.5268   C.ar      1 RES1   0.0000
    32 C32    -10.7127 -51.9173 -23.2227   C.ar      1 RES1   0.0000
    33 Cl33    -9.9395 -50.3416 -22.9540   Cl        1 RES1   0.0000
    34 H1      -9.7757 -54.0284 -16.5091   H         1 RES1   0.0000
    35 H2      -8.7862 -48.6641 -17.0685   H         1 RES1   0.0000
    36 H3      -7.4168 -48.1350 -18.0720   H         1 RES1   0.0000
    37 H4      -9.0027 -48.4346 -18.8186   H         1 RES1   0.0000
    38 H5      -7.2308 -50.5452 -17.5076   H         1 RES1   0.0000
    39 H6      -7.4474 -50.3156 -19.2577   H         1 RES1   0.0000
    40 H7     -14.6402 -56.9953 -24.9345   H         1 RES1   0.0000
    41 H8     -10.8057 -51.6524 -25.3719   H         1 RES1   0.0000
    42 H9     -11.8413 -55.4497 -16.4720   H         1 RES1   0.0000
    43 H10    -13.3635 -55.4574 -18.4400   H         1 RES1   0.0000
    44 H11    -11.3220 -55.9274 -28.4624   H         1 RES1   0.0000
    45 H12    -10.9499 -55.1558 -26.1245   H         1 RES1   0.0000
    46 H13    -11.3865 -57.6756 -29.8489   H         1 RES1   0.0000
    47 H14    -12.2332 -56.5952 -30.9795   H         1 RES1   0.0000
    48 H15    -12.6284 -59.5849 -30.6865   H         1 RES1   0.0000
    49 H16    -11.8335 -58.7444 -32.0371   H         1 RES1   0.0000
    50 H17    -14.6149 -56.1937 -30.6743   H         1 RES1   0.0000
    51 H18    -15.4574 -56.9728 -29.3158   H         1 RES1   0.0000
    52 H19    -15.0243 -57.7539 -27.2751   H         1 RES1   0.0000
    53 H20    -10.2338 -51.5159 -20.6205   H         1 RES1   0.0000
    54 H21    -13.8794 -57.6833 -32.5463   H         1 RES1   0.0000
    55 H22    -14.1666 -60.4239 -32.1103   H         1 RES1   0.0000
    56 H23    -15.1204 -59.3955 -33.2035   H         1 RES1   0.0000
    57 H24    -13.3713 -59.5858 -33.4622   H         1 RES1   0.0000
    58 H25    -15.1236 -59.1621 -30.3313   H         1 RES1   0.0000
    59 H26    -15.9492 -58.0741 -31.4701   H         1 RES1   0.0000
    60 H27    -12.7884 -56.1574 -23.2425   H         1 RES1   0.0000
    61 H28    -12.8682 -54.0647 -20.4458   H         1 RES1   0.0000
@<TRIPOS>BOND
     1     1     2    1
     2     2     3    1
     3     3     4    2
     4     3     5    1
     5     5     6    1
     6     6     7   ar
     7     7     8   ar
     8     8     9   ar
     9     9    10   ar
    10    10    11   ar
    11    11    12    1
    12    12    13    1
    13    13    14   ar
    14    14    15   ar
    15    15    16    1
    16    16    17    1
    17    17    18   ar
    18    18    19   ar
    19    19    20   ar
    20    20    21    1
    21    21    22    1
    22    22    23    1
    23    23    24    1
    24    24    25    1
    25    24    26    1
    26    26    27    1
    27    20    28   ar
    28    28    29   ar
    29    15    30   ar
    30    30    31   ar
    31    31    32   ar
    32    32    33    1
    33    11     6   ar
    34    32    13   ar
    35    29    17   ar
    36    27    21    1
    37     7    34    1
    38     1    35    1
    39     1    36    1
    40     1    37    1
    41     2    38    1
    42     2    39    1
    43    29    40    1
    44    31    41    1
    45     8    42    1
    46     9    43    1
    47    19    44    1
    48    18    45    1
    49    22    46    1
    50    22    47    1
    51    23    48    1
    52    23    49    1
    53    27    50    1
    54    27    51    1
    55    28    52    1
    56    12    53    1
    57    24    54    1
    58    25    55    1
    59    25    56    1
    60    25    57    1
    61    26    58    1
    62    26    59    1
    63    16    60    1
    64    10    61    1
@<TRIPOS>SUBSTRUCTURE
     1 RES1        1 GROUP             0 ****  ****    0  
@<TRIPOS>CRYSIN
    1.0000    1.0000    1.0000   90.0000   90.0000   90.0000     1     1
@<TRIPOS>MOLECULE
ligand_57
    61    64     1     0     0
SMALL
USER_CHARGES
****
Generated from the CSD

@<TRIPOS>ATOM
     1 C1      -9.0240 -48.4894 -17.8877   C.3       1 RES1   0.0000
     2 C2      -8.4274 -49.8807 -18.0945   C.3       1 RES1   0.0000
     3 C3      -9.5741 -50.8935 -18.1381   C.2       1 RES1   0.0000
     4 O4     -10.7114 -50.5938 -17.9551   O.2       1 RES1   0.0000
     5 O5      -9.1871 -52.2283 -18.4112   O.3       1 RES1   0.0000
     6 C6     -10.2420 -53.1973 -18.4546   C.ar      1 RES1   0.0000
     7 C7     -10.4828 -54.0145 -17.3481   C.ar      1 RES1   0.0000
     8 C8     -11.5208 -54.9614 -17.4105   C.ar      1 RES1   0.0000
     9 C9     -12.2878 -55.0694 -18.5833   C.ar      1 RES1   0.0000
    10 C10    -12.0392 -54.2478 -19.6981   C.ar      1 RES1   0.0000
    11 C11    -11.0010 -53.3037 -19.6354   C.ar      1 RES1   0.0000
    12 N12    -10.7002 -52.4015 -20.7891   N.pl3     1 RES1   0.0000
    13 C13    -11.7216 -51.8933 -21.7126   C.ar      1 RES1   0.0000
    14 N14    -13.0104 -52.2020 -21.5301   N.ar      1 RES1   0.0000
    15 C15    -13.9355 -51.7441 -22.3602   C.ar      1 RES1   0.0000
    16 N16    -15.3494 -52.0799 -22.1738   N.pl3     1 RES1   0.0000
    17 C17    -16.4127 -51.6710 -23.1102   C.ar      1 RES1   0.0000
    18 C18    -16.1278 -51.6496 -24.4660   C.ar      1 RES1   0.0000
    19 C19    -17.1167 -51.2748 -25.3861   C.ar      1 RES1   0.0000
    20 C20    -18.3857 -50.9218 -24.9387   C.ar      1 RES1   0.0000
    21 N21    -19.4169 -50.5237 -25.9291   N.pl3     1 RES1   0.0000
    22 C22    -19.3892 -50.9134 -27.3354   C.3       1 RES1   0.0000
    23 C23    -20.7936 -51.1513 -27.8334   C.3       1 RES1   0.0000
    24 N24    -21.6450 -49.9449 -27.6150   N.4       1 RES1   1.0000
    25 C25    -22.8286 -50.1761 -28.0444   C.3       1 RES1   0.0000
    26 C26    -21.6069 -49.5262 -26.1827   C.3       1 RES1   0.0000
    27 C27    -20.1869 -49.3039 -25.7256   C.3       1 RES1   0.0000
    28 C28    -18.6765 -50.9424 -23.5803   C.ar      1 RES1   0.0000
    29 C29    -17.6871 -51.3224 -22.6641   C.ar      1 RES1   0.0000
    30 N30    -13.6358 -50.9723 -23.3742   N.ar      1 RES1   0.0000
    31 C31    -12.3833 -50.6136 -23.6278   C.ar      1 RES1   0.0000
    32 C32    -11.3807 -51.0810 -22.7767   C.ar      1 RES1   0.0000
    33 Cl33    -9.6968 -50.6154 -23.0938   Cl        1 RES1   0.0000
    34 H1     -12.1448 -49.9730 -24.4756   H         1 RES1   0.0000
    35 H2     -13.0906 -55.8037 -18.6301   H         1 RES1   0.0000
    36 H3     -12.6443 -54.3427 -20.5986   H         1 RES1   0.0000
    37 H4     -19.7425 -48.4933 -26.3013   H         1 RES1   0.0000
    38 H5     -20.1821 -49.0433 -24.6683   H         1 RES1   0.0000
    39 H6     -19.6692 -50.6644 -23.2293   H         1 RES1   0.0000
    40 H7     -23.2517 -51.0222 -27.5049   H         1 RES1   0.0000
    41 H8     -23.4507 -49.2965 -27.8855   H         1 RES1   0.0000
    42 H9     -22.7903 -50.4063 -29.1081   H         1 RES1   0.0000
    43 H10    -22.0607 -50.3047 -25.5713   H         1 RES1   0.0000
    44 H11    -22.1681 -48.6002 -26.0667   H         1 RES1   0.0000
    45 H12    -17.9141 -51.3456 -21.5993   H         1 RES1   0.0000
    46 H13    -18.8082 -51.8279 -27.4447   H         1 RES1   0.0000
    47 H14    -18.9289 -50.1188 -27.9207   H         1 RES1   0.0000
    48 H15     -9.7357 -52.1250 -20.9423   H         1 RES1   0.0000
    49 H16    -16.8915 -51.2600 -26.4514   H         1 RES1   0.0000
    50 H17    -15.1343 -51.9243 -24.8173   H         1 RES1   0.0000
    51 H18     -9.8752 -53.9199 -16.4493   H         1 RES1   0.0000
    52 H19    -11.7285 -55.6055 -16.5573   H         1 RES1   0.0000
    53 H20    -15.6109 -52.6227 -21.3570   H         1 RES1   0.0000
    54 H21     -9.5775 -48.4675 -16.9501   H         1 RES1   0.0000
    55 H22     -8.2230 -47.7524 -17.8537   H         1 RES1   0.0000
    56 H23     -9.6967 -48.2567 -18.7119   H         1 RES1   0.0000
    57 H24     -7.7561 -50.1197 -17.2710   H         1 RES1   0.0000
    58 H25     -7.8753 -49.9089 -19.0327   H         1 RES1   0.0000
    59 H26    -21.2249 -51.9946 -27.2961   H         1 RES1   0.0000
    60 H27    -20.7613 -51.3775 -28.8982   H         1 RES1   0.0000
    61 H28    -21.2572 -49.1880 -28.1691   H         1 RES1   0.0000
@<TRIPOS>BOND
     1     1     2    1
     2     2     3    1
     3     3     4    2
     4     3     5    1
     5     5     6    1
     6     6     7   ar
     7     7     8   ar
     8     8     9   ar
     9     9    10   ar
    10    10    11   ar
    11    11    12    1
    12    12    13    1
    13    13    14   ar
    14    14    15   ar
    15    15    16    1
    16    16    17    1
    17    17    18   ar
    18    18    19   ar
    19    19    20   ar
    20    20    21    1
    21    21    22    1
    22    22    23    1
    23    23    24    1
    24    24    25    1
    25    24    26    1
    26    26    27    1
    27    20    28   ar
    28    28    29   ar
    29    15    30   ar
    30    30    31   ar
    31    31    32   ar
    32    32    33    1
    33    11     6   ar
    34    32    13   ar
    35    29    17   ar
    36    27    21    1
    37    31    34    1
    38     9    35    1
    39    10    36    1
    40    27    37    1
    41    27    38    1
    42    28    39    1
    43    25    40    1
    44    25    41    1
    45    25    42    1
    46    26    43    1
    47    26    44    1
    48    29    45    1
    49    22    46    1
    50    22    47    1
    51    12    48    1
    52    19    49    1
    53    18    50    1
    54     7    51    1
    55     8    52    1
    56    16    53    1
    57     1    54    1
    58     1    55    1
    59     1    56    1
    60     2    57    1
    61     2    58    1
    62    23    59    1
    63    23    60    1
    64    24    61    1
@<TRIPOS>SUBSTRUCTURE
     1 RES1        1 GROUP             0 ****  ****    0  
@<TRIPOS>CRYSIN
    1.0000    1.0000    1.0000   90.0000   90.0000   90.0000     1     1
@<TRIPOS>MOLECULE
ligand_58
    61    64     1     0     0
SMALL
USER_CHARGES
****
Generated from the CSD

@<TRIPOS>ATOM
     1 C1      -8.9842 -48.4880 -17.9709   C.3       1 RES1   0.0000
     2 C2      -8.4019 -49.8786 -18.2188   C.3       1 RES1   0.0000
     3 C3      -9.5485 -50.8919 -18.1889   C.2       1 RES1   0.0000
     4 O4     -10.6715 -50.5931 -17.9313   O.2       1 RES1   0.0000
     5 O5      -9.1797 -52.2260 -18.4891   O.3       1 RES1   0.0000
     6 C6     -10.2348 -53.1955 -18.4650   C.ar      1 RES1   0.0000
     7 C7     -10.8462 -53.5890 -19.6573   C.ar      1 RES1   0.0000
     8 C8     -11.8818 -54.5397 -19.6133   C.ar      1 RES1   0.0000
     9 C9     -12.2825 -55.0677 -18.3740   C.ar      1 RES1   0.0000
    10 C10    -11.6678 -54.6653 -17.1741   C.ar      1 RES1   0.0000
    11 C11    -10.6348 -53.7144 -17.2191   C.ar      1 RES1   0.0000
    12 N12     -9.9437 -53.2583 -15.9741   N.pl3     1 RES1   0.0000
    13 C13    -10.6120 -53.1263 -14.6741   C.ar      1 RES1   0.0000
    14 N14    -11.9181 -53.3909 -14.5564   N.ar      1 RES1   0.0000
    15 C15    -12.5248 -53.2747 -13.3846   C.ar      1 RES1   0.0000
    16 N16    -13.9557 -53.5562 -13.2446   N.pl3     1 RES1   0.0000
    17 C17    -14.6732 -53.5014 -11.9574   C.ar      1 RES1   0.0000
    18 C18    -15.9895 -53.0686 -11.9518   C.ar      1 RES1   0.0000
    19 C19    -16.7056 -53.0122 -10.7480   C.ar      1 RES1   0.0000
    20 C20    -16.0945 -53.3890  -9.5565   C.ar      1 RES1   0.0000
    21 N21    -16.8690 -53.3173  -8.2924   N.pl3     1 RES1   0.0000
    22 C22    -16.2614 -53.2085  -6.9698   C.3       1 RES1   0.0000
    23 C23    -17.1130 -52.3367  -6.0800   C.3       1 RES1   0.0000
    24 N24    -18.5080 -52.8618  -6.0016   N.4       1 RES1   1.0000
    25 C25    -19.2062 -52.1027  -5.2433   C.3       1 RES1   0.0000
    26 C26    -19.0862 -53.0258  -7.3679   C.3       1 RES1   0.0000
    27 C27    -18.2029 -53.8989  -8.2237   C.3       1 RES1   0.0000
    28 C28    -14.7752 -53.8243  -9.5571   C.ar      1 RES1   0.0000
    29 C29    -14.0643 -53.8843 -10.7628   C.ar      1 RES1   0.0000
    30 N30    -11.8810 -52.9119 -12.3040   N.ar      1 RES1   0.0000
    31 C31    -10.5835 -52.6336 -12.3289   C.ar      1 RES1   0.0000
    32 C32     -9.9116 -52.7406 -13.5476   C.ar      1 RES1   0.0000
    33 Cl33    -8.1753 -52.3740 -13.6078   Cl        1 RES1   0.0000
    34 H1     -15.2699 -52.7681  -7.0637   H         1 RES1   0.0000
    35 H2     -16.1776 -54.2007  -6.5288   H         1 RES1   0.0000
    36 H3     -17.1342 -51.3261  -6.4851   H         1 RES1   0.0000
    37 H4     -16.6818 -52.3181  -5.0802   H         1 RES1   0.0000
    38 H5     -14.2957 -54.1176  -8.6244   H         1 RES1   0.0000
    39 H6     -13.0321 -54.2313 -10.7671   H         1 RES1   0.0000
    40 H7     -11.9889 -55.0858 -16.2222   H         1 RES1   0.0000
    41 H8     -14.4810 -53.8019 -14.0776   H         1 RES1   0.0000
    42 H9     -18.4694 -53.7795  -5.5697   H         1 RES1   0.0000
    43 H10    -19.2199 -51.0938  -5.6531   H         1 RES1   0.0000
    44 H11    -20.2243 -52.4849  -5.1853   H         1 RES1   0.0000
    45 H12    -18.7683 -52.0836  -4.2464   H         1 RES1   0.0000
    46 H13    -10.5256 -53.1656 -20.6080   H         1 RES1   0.0000
    47 H14     -8.9571 -53.0270 -16.0312   H         1 RES1   0.0000
    48 H15    -16.4683 -52.7719 -12.8838   H         1 RES1   0.0000
    49 H16    -17.7405 -52.6733 -10.7456   H         1 RES1   0.0000
    50 H17     -7.6780 -50.1186 -17.4415   H         1 RES1   0.0000
    51 H18     -7.9125 -49.9049 -19.1913   H         1 RES1   0.0000
    52 H19    -12.3690 -54.8639 -20.5317   H         1 RES1   0.0000
    53 H20    -13.0850 -55.8032 -18.3418   H         1 RES1   0.0000
    54 H21     -9.4751 -48.4680 -16.9990   H         1 RES1   0.0000
    55 H22     -8.1830 -47.7506 -17.9882   H         1 RES1   0.0000
    56 H23     -9.7096 -48.2542 -18.7488   H         1 RES1   0.0000
    57 H24    -19.1804 -52.0467  -7.8353   H         1 RES1   0.0000
    58 H25    -20.0702 -53.4852  -7.2861   H         1 RES1   0.0000
    59 H26    -18.1431 -54.8946  -7.7867   H         1 RES1   0.0000
    60 H27    -18.6216 -53.9672  -9.2266   H         1 RES1   0.0000
    61 H28    -10.0582 -52.3305 -11.4244   H         1 RES1   0.0000
@<TRIPOS>BOND
     1     1     2    1
     2     2     3    1
     3     3     4    2
     4     3     5    1
     5     5     6    1
     6     6     7   ar
     7     7     8   ar
     8     8     9   ar
     9     9    10   ar
    10    10    11   ar
    11    11    12    1
    12    12    13    1
    13    13    14   ar
    14    14    15   ar
    15    15    16    1
    16    16    17    1
    17    17    18   ar
    18    18    19   ar
    19    19    20   ar
    20    20    21    1
    21    21    22    1
    22    22    23    1
    23    23    24    1
    24    24    25    1
    25    24    26    1
    26    26    27    1
    27    20    28   ar
    28    28    29   ar
    29    15    30   ar
    30    30    31   ar
    31    31    32   ar
    32    32    33    1
    33    11     6   ar
    34    32    13   ar
    35    29    17   ar
    36    27    21    1
    37    22    34    1
    38    22    35    1
    39    23    36    1
    40    23    37    1
    41    28    38    1
    42    29    39    1
    43    10    40    1
    44    16    41    1
    45    24    42    1
    46    25    43    1
    47    25    44    1
    48    25    45    1
    49     7    46    1
    50    12    47    1
    51    18    48    1
    52    19    49    1
    53     2    50    1
    54     2    51    1
    55     8    52    1
    56     9    53    1
    57     1    54    1
    58     1    55    1
    59     1    56    1
    60    26    57    1
    61    26    58    1
    62    27    59    1
    63    27    60    1
    64    31    61    1
@<TRIPOS>SUBSTRUCTURE
     1 RES1        1 GROUP             0 ****  ****    0  
@<TRIPOS>CRYSIN
    1.0000    1.0000    1.0000   90.0000   90.0000   90.0000     1     1
@<TRIPOS>MOLECULE
ligand_59
    61    64     1     0     0
SMALL
USER_CHARGES
****
Generated from the CSD

@<TRIPOS>ATOM
     1 C1      -8.2762 -48.7716 -18.1542   C.3       1 RES1   0.0000
     2 C2      -7.8966 -50.2412 -18.3288   C.3       1 RES1   0.0000
     3 C3      -9.1776 -51.0773 -18.2802   C.2       1 RES1   0.0000
     4 O4     -10.2497 -50.6092 -18.0603   O.2       1 RES1   0.0000
     5 O5      -9.0003 -52.4629 -18.5142   O.3       1 RES1   0.0000
     6 C6     -10.1844 -53.2691 -18.4711   C.ar      1 RES1   0.0000
     7 C7     -10.8277 -53.6253 -19.6583   C.ar      1 RES1   0.0000
     8 C8     -11.9900 -54.4148 -19.5958   C.ar      1 RES1   0.0000
     9 C9     -12.4817 -54.8224 -18.3439   C.ar      1 RES1   0.0000
    10 C10    -11.8339 -54.4574 -17.1494   C.ar      1 RES1   0.0000
    11 C11    -10.6741 -53.6674 -17.2129   C.ar      1 RES1   0.0000
    12 N12     -9.9437 -53.2583 -15.9741   N.pl3     1 RES1   0.0000
    13 C13     -9.8634 -54.0872 -14.7655   C.ar      1 RES1   0.0000
    14 N14    -10.4327 -55.2975 -14.7379   N.ar      1 RES1   0.0000
    15 C15    -10.3611 -56.0494 -13.6497   C.ar      1 RES1   0.0000
    16 N16    -10.9855 -57.3742 -13.6056   N.pl3     1 RES1   0.0000
    17 C17    -10.8900 -58.2800 -12.4458   C.ar      1 RES1   0.0000
    18 C18    -11.9743 -59.0895 -12.1478   C.ar      1 RES1   0.0000
    19 C19    -11.9158 -59.9695 -11.0582   C.ar      1 RES1   0.0000
    20 C20    -10.7690 -60.0297 -10.2731   C.ar      1 RES1   0.0000
    21 N21    -10.7296 -60.9650  -9.1212   N.pl3     1 RES1   0.0000
    22 C22     -9.8469 -60.8029  -7.9702   C.3       1 RES1   0.0000
    23 C23    -10.5468 -61.2599  -6.7139   C.3       1 RES1   0.0000
    24 N24    -11.0159 -62.6702  -6.8515   N.4       1 RES1   1.0000
    25 C25    -11.6062 -63.0292  -5.7738   C.3       1 RES1   0.0000
    26 C26    -11.8636 -62.8263  -8.0702   C.3       1 RES1   0.0000
    27 C27    -11.1286 -62.3546  -9.2998   C.3       1 RES1   0.0000
    28 C28     -9.6790 -59.2206 -10.5682   C.ar      1 RES1   0.0000
    29 C29     -9.7391 -58.3460 -11.6611   C.ar      1 RES1   0.0000
    30 N30     -9.7307 -55.6524 -12.5733   N.ar      1 RES1   0.0000
    31 C31     -9.1346 -54.4680 -12.5144   C.ar      1 RES1   0.0000
    32 C32     -9.1932 -53.6460 -13.6410   C.ar      1 RES1   0.0000
    33 Cl33    -8.4037 -52.0565 -13.5882   Cl        1 RES1   0.0000
    34 H1     -11.5116 -57.6849 -14.4161   H         1 RES1   0.0000
    35 H2     -13.3822 -55.4330 -18.2974   H         1 RES1   0.0000
    36 H3     -12.2268 -54.7833 -16.1875   H         1 RES1   0.0000
    37 H4      -9.4773 -52.3568 -15.9686   H         1 RES1   0.0000
    38 H5      -8.6147 -54.1468 -11.6130   H         1 RES1   0.0000
    39 H6     -12.7683 -60.6062 -10.8263   H         1 RES1   0.0000
    40 H7      -9.5746 -59.7533  -7.8697   H         1 RES1   0.0000
    41 H8      -8.9475 -61.3986  -8.1189   H         1 RES1   0.0000
    42 H9     -10.4348 -53.2963 -20.6192   H         1 RES1   0.0000
    43 H10    -12.5046 -54.7078 -20.5097   H         1 RES1   0.0000
    44 H11    -11.4044 -60.6149  -6.5282   H         1 RES1   0.0000
    45 H12     -9.8548 -61.1940  -5.8756   H         1 RES1   0.0000
    46 H13    -10.1971 -63.2588  -6.9666   H         1 RES1   0.0000
    47 H14    -12.4602 -62.3780  -5.5934   H         1 RES1   0.0000
    48 H15    -11.9489 -64.0581  -5.8731   H         1 RES1   0.0000
    49 H16    -10.9117 -62.9570  -4.9381   H         1 RES1   0.0000
    50 H17    -12.8731 -59.0420 -12.7608   H         1 RES1   0.0000
    51 H18     -8.7817 -59.2659  -9.9527   H         1 RES1   0.0000
    52 H19     -8.8837 -57.7153 -11.8987   H         1 RES1   0.0000
    53 H20     -8.7740 -48.6368 -17.1951   H         1 RES1   0.0000
    54 H21     -7.3770 -48.1582 -18.1858   H         1 RES1   0.0000
    55 H22     -8.9482 -48.4724 -18.9572   H         1 RES1   0.0000
    56 H23     -7.2269 -50.5464 -17.5261   H         1 RES1   0.0000
    57 H24     -7.4011 -50.3821 -19.2882   H         1 RES1   0.0000
    58 H25    -12.7724 -62.2384  -7.9503   H         1 RES1   0.0000
    59 H26    -12.1242 -63.8767  -8.1914   H         1 RES1   0.0000
    60 H27    -10.2433 -62.9701  -9.4525   H         1 RES1   0.0000
    61 H28    -11.7817 -62.4365 -10.1674   H         1 RES1   0.0000
@<TRIPOS>BOND
     1     1     2    1
     2     2     3    1
     3     3     4    2
     4     3     5    1
     5     5     6    1
     6     6     7   ar
     7     7     8   ar
     8     8     9   ar
     9     9    10   ar
    10    10    11   ar
    11    11    12    1
    12    12    13    1
    13    13    14   ar
    14    14    15   ar
    15    15    16    1
    16    16    17    1
    17    17    18   ar
    18    18    19   ar
    19    19    20   ar
    20    20    21    1
    21    21    22    1
    22    22    23    1
    23    23    24    1
    24    24    25    1
    25    24    26    1
    26    26    27    1
    27    20    28   ar
    28    28    29   ar
    29    15    30   ar
    30    30    31   ar
    31    31    32   ar
    32    32    33    1
    33    11     6   ar
    34    32    13   ar
    35    29    17   ar
    36    27    21    1
    37    16    34    1
    38     9    35    1
    39    10    36    1
    40    12    37    1
    41    31    38    1
    42    19    39    1
    43    22    40    1
    44    22    41    1
    45     7    42    1
    46     8    43    1
    47    23    44    1
    48    23    45    1
    49    24    46    1
    50    25    47    1
    51    25    48    1
    52    25    49    1
    53    18    50    1
    54    28    51    1
    55    29    52    1
    56     1    53    1
    57     1    54    1
    58     1    55    1
    59     2    56    1
    60     2    57    1
    61    26    58    1
    62    26    59    1
    63    27    60    1
    64    27    61    1
@<TRIPOS>SUBSTRUCTURE
     1 RES1        1 GROUP             0 ****  ****    0  
@<TRIPOS>CRYSIN
    1.0000    1.0000    1.0000   90.0000   90.0000   90.0000     1     1
@<TRIPOS>MOLECULE
ligand_60
    61    64     1     0     0
SMALL
USER_CHARGES
****
Generated from the CSD

@<TRIPOS>ATOM
     1 C1      -9.0234 -48.4890 -17.8886   C.3       1 RES1   0.0000
     2 C2      -8.4270 -49.8805 -18.0951   C.3       1 RES1   0.0000
     3 C3      -9.5737 -50.8931 -18.1385   C.2       1 RES1   0.0000
     4 O4     -10.7110 -50.5932 -17.9555   O.2       1 RES1   0.0000
     5 O5      -9.1869 -52.2280 -18.4113   O.3       1 RES1   0.0000
     6 C6     -10.2420 -53.1969 -18.4545   C.ar      1 RES1   0.0000
     7 C7     -10.4828 -54.0138 -17.3478   C.ar      1 RES1   0.0000
     8 C8     -11.5210 -54.9607 -17.4100   C.ar      1 RES1   0.0000
     9 C9     -12.2880 -55.0687 -18.5826   C.ar      1 RES1   0.0000
    10 C10    -12.0394 -54.2474 -19.6977   C.ar      1 RES1   0.0000
    11 C11    -11.0010 -53.3034 -19.6352   C.ar      1 RES1   0.0000
    12 N12    -10.7002 -52.4015 -20.7891   N.pl3     1 RES1   0.0000
    13 C13    -11.7216 -51.8933 -21.7126   C.ar      1 RES1   0.0000
    14 N14    -13.0104 -52.2020 -21.5301   N.ar      1 RES1   0.0000
    15 C15    -13.9355 -51.7441 -22.3602   C.ar      1 RES1   0.0000
    16 N16    -15.3494 -52.0799 -22.1738   N.pl3     1 RES1   0.0000
    17 C17    -16.4298 -51.5538 -23.0286   C.ar      1 RES1   0.0000
    18 C18    -17.5180 -52.3688 -23.2959   C.ar      1 RES1   0.0000
    19 C19    -18.5680 -51.8989 -24.0970   C.ar      1 RES1   0.0000
    20 C20    -18.5177 -50.6136 -24.6267   C.ar      1 RES1   0.0000
    21 N21    -19.6376 -50.1372 -25.4763   N.pl3     1 RES1   0.0000
    22 C22    -19.5164 -49.0630 -26.4570   C.3       1 RES1   0.0000
    23 C23    -20.3807 -49.3597 -27.6578   C.3       1 RES1   0.0000
    24 N24    -21.8005 -49.5724 -27.2495   N.4       1 RES1   1.0000
    25 C25    -22.5082 -49.8235 -28.2863   C.3       1 RES1   0.0000
    26 C26    -21.8936 -50.6296 -26.1999   C.3       1 RES1   0.0000
    27 C27    -21.0125 -50.2961 -25.0220   C.3       1 RES1   0.0000
    28 C28    -17.4290 -49.7924 -24.3610   C.ar      1 RES1   0.0000
    29 C29    -16.3839 -50.2636 -23.5557   C.ar      1 RES1   0.0000
    30 N30    -13.6358 -50.9723 -23.3742   N.ar      1 RES1   0.0000
    31 C31    -12.3833 -50.6136 -23.6278   C.ar      1 RES1   0.0000
    32 C32    -11.3807 -51.0810 -22.7767   C.ar      1 RES1   0.0000
    33 Cl33    -9.6968 -50.6154 -23.0938   Cl        1 RES1   0.0000
    34 H1     -22.1317 -50.7214 -28.7740   H         1 RES1   0.0000
    35 H2     -23.5444 -49.9789 -27.9896   H         1 RES1   0.0000
    36 H3     -22.4505 -48.9838 -28.9773   H         1 RES1   0.0000
    37 H4     -21.5776 -51.5817 -26.6236   H         1 RES1   0.0000
    38 H5     -22.9261 -50.7073 -25.8624   H         1 RES1   0.0000
    39 H6     -15.5324 -49.6198 -23.3405   H         1 RES1   0.0000
    40 H7      -7.7558 -50.1194 -17.2715   H         1 RES1   0.0000
    41 H8      -7.8749 -49.9090 -19.0333   H         1 RES1   0.0000
    42 H9     -15.5985 -52.7079 -21.4163   H         1 RES1   0.0000
    43 H10    -17.5576 -53.3757 -22.8831   H         1 RES1   0.0000
    44 H11    -13.0910 -55.8029 -18.6292   H         1 RES1   0.0000
    45 H12    -12.6445 -54.3424 -20.5981   H         1 RES1   0.0000
    46 H13    -20.0121 -50.2587 -28.1496   H         1 RES1   0.0000
    47 H14    -20.3302 -48.5206 -28.3501   H         1 RES1   0.0000
    48 H15    -22.1397 -48.7050 -26.8460   H         1 RES1   0.0000
    49 H16     -9.5769 -48.4668 -16.9510   H         1 RES1   0.0000
    50 H17     -8.2223 -47.7521 -17.8548   H         1 RES1   0.0000
    51 H18     -9.6960 -48.2564 -18.7128   H         1 RES1   0.0000
    52 H19     -9.7356 -52.1252 -20.9424   H         1 RES1   0.0000
    53 H20    -18.4776 -48.9785 -26.7726   H         1 RES1   0.0000
    54 H21    -19.8361 -48.1250 -26.0056   H         1 RES1   0.0000
    55 H22    -19.4233 -52.5402 -24.3047   H         1 RES1   0.0000
    56 H23     -9.8752 -53.9190 -16.4491   H         1 RES1   0.0000
    57 H24    -11.7287 -55.6047 -16.5567   H         1 RES1   0.0000
    58 H25    -21.3534 -49.3687 -24.5642   H         1 RES1   0.0000
    59 H26    -21.0628 -51.1017 -24.2909   H         1 RES1   0.0000
    60 H27    -17.3882 -48.7868 -24.7769   H         1 RES1   0.0000
    61 H28    -12.1448 -49.9730 -24.4756   H         1 RES1   0.0000
@<TRIPOS>BOND
     1     1     2    1
     2     2     3    1
     3     3     4    2
     4     3     5    1
     5     5     6    1
     6     6     7   ar
     7     7     8   ar
     8     8     9   ar
     9     9    10   ar
    10    10    11   ar
    11    11    12    1
    12    12    13    1
    13    13    14   ar
    14    14    15   ar
    15    15    16    1
    16    16    17    1
    17    17    18   ar
    18    18    19   ar
    19    19    20   ar
    20    20    21    1
    21    21    22    1
    22    22    23    1
    23    23    24    1
    24    24    25    1
    25    24    26    1
    26    26    27    1
    27    20    28   ar
    28    28    29   ar
    29    15    30   ar
    30    30    31   ar
    31    31    32   ar
    32    32    33    1
    33    11     6   ar
    34    32    13   ar
    35    29    17   ar
    36    27    21    1
    37    25    34    1
    38    25    35    1
    39    25    36    1
    40    26    37    1
    41    26    38    1
    42    29    39    1
    43     2    40    1
    44     2    41    1
    45    16    42    1
    46    18    43    1
    47     9    44    1
    48    10    45    1
    49    23    46    1
    50    23    47    1
    51    24    48    1
    52     1    49    1
    53     1    50    1
    54     1    51    1
    55    12    52    1
    56    22    53    1
    57    22    54    1
    58    19    55    1
    59     7    56    1
    60     8    57    1
    61    27    58    1
    62    27    59    1
    63    28    60    1
    64    31    61    1
@<TRIPOS>SUBSTRUCTURE
     1 RES1        1 GROUP             0 ****  ****    0  
@<TRIPOS>CRYSIN
    1.0000    1.0000    1.0000   90.0000   90.0000   90.0000     1     1
@<TRIPOS>MOLECULE
ligand_61
    61    64     1     0     0
SMALL
USER_CHARGES
****
Generated from the CSD

@<TRIPOS>ATOM
     1 C1      -8.5636 -48.6150 -18.0270   C.3       1 RES1   0.0000
     2 C2      -8.0920 -50.0513 -18.2485   C.3       1 RES1   0.0000
     3 C3      -9.3166 -50.9689 -18.2194   C.2       1 RES1   0.0000
     4 O4     -10.4149 -50.5773 -17.9801   O.2       1 RES1   0.0000
     5 O5      -9.0527 -52.3325 -18.4967   O.3       1 RES1   0.0000
     6 C6     -10.1825 -53.2138 -18.4728   C.ar      1 RES1   0.0000
     7 C7     -10.4282 -54.0006 -17.3456   C.ar      1 RES1   0.0000
     8 C8     -11.5404 -54.8615 -17.3418   C.ar      1 RES1   0.0000
     9 C9     -12.3753 -54.9162 -18.4710   C.ar      1 RES1   0.0000
    10 C10    -12.1220 -54.1258 -19.6071   C.ar      1 RES1   0.0000
    11 C11    -11.0098 -53.2678 -19.6105   C.ar      1 RES1   0.0000
    12 N12    -10.7002 -52.4015 -20.7891   N.pl3     1 RES1   0.0000
    13 C13    -11.4932 -52.3939 -22.0242   C.ar      1 RES1   0.0000
    14 N14    -12.5573 -53.1952 -22.1482   N.ar      1 RES1   0.0000
    15 C15    -13.2766 -53.1903 -23.2605   C.ar      1 RES1   0.0000
    16 N16    -14.4406 -54.0674 -23.4102   N.pl3     1 RES1   0.0000
    17 C17    -15.4399 -53.9163 -24.4841   C.ar      1 RES1   0.0000
    18 C18    -16.7790 -54.0840 -24.1698   C.ar      1 RES1   0.0000
    19 C19    -17.7574 -53.9390 -25.1631   C.ar      1 RES1   0.0000
    20 C20    -17.3849 -53.6284 -26.4669   C.ar      1 RES1   0.0000
    21 N21    -18.4363 -53.4840 -27.5045   N.3       1 RES1   0.0000
    22 C22    -18.4214 -52.1355 -28.1003   C.3       1 RES1   0.0000
    23 C23    -19.4727 -51.9934 -29.1719   C.3       1 RES1   0.0000
    24 N24    -20.8153 -52.2413 -28.5623   N.4       1 RES1   1.0000
    25 C25    -21.7757 -51.9929 -29.3713   C.3       1 RES1   0.0000
    26 C26    -20.8306 -53.6412 -28.0423   C.3       1 RES1   0.0000
    27 C27    -19.7707 -53.7941 -26.9768   C.3       1 RES1   0.0000
    28 C28    -16.0436 -53.4587 -26.7868   C.ar      1 RES1   0.0000
    29 C29    -15.0689 -53.5992 -25.7903   C.ar      1 RES1   0.0000
    30 N30    -12.9892 -52.4055 -24.2681   N.ar      1 RES1   0.0000
    31 C31    -11.9536 -51.5763 -24.2294   C.ar      1 RES1   0.0000
    32 C32    -11.1696 -51.5573 -23.0747   C.ar      1 RES1   0.0000
    33 Cl33    -9.7784 -50.4568 -22.9975   Cl        1 RES1   0.0000
    34 H1     -14.0173 -53.4602 -26.0368   H         1 RES1   0.0000
    35 H2     -19.9936 -53.1157 -26.1546   H         1 RES1   0.0000
    36 H3     -19.7787 -54.8205 -26.6130   H         1 RES1   0.0000
    37 H4     -15.7512 -53.2175 -27.8077   H         1 RES1   0.0000
    38 H5      -9.0625 -48.5415 -17.0618   H         1 RES1   0.0000
    39 H6      -7.7057 -47.9445 -18.0441   H         1 RES1   0.0000
    40 H7      -9.2588 -48.3353 -18.8172   H         1 RES1   0.0000
    41 H8      -9.7677 -53.9483 -16.4813   H         1 RES1   0.0000
    42 H9     -21.6842 -52.6299 -30.2498   H         1 RES1   0.0000
    43 H10    -22.7262 -52.1896 -28.8776   H         1 RES1   0.0000
    44 H11    -21.7337 -50.9479 -29.6747   H         1 RES1   0.0000
    45 H12    -20.6279 -54.3337 -28.8580   H         1 RES1   0.0000
    46 H13    -21.8085 -53.8593 -27.6155   H         1 RES1   0.0000
    47 H14     -9.8966 -51.7841 -20.7319   H         1 RES1   0.0000
    48 H15    -14.5658 -54.8187 -22.7393   H         1 RES1   0.0000
    49 H16    -17.0717 -54.3288 -23.1498   H         1 RES1   0.0000
    50 H17    -19.2899 -52.7190 -29.9631   H         1 RES1   0.0000
    51 H18    -19.4390 -50.9873 -29.5872   H         1 RES1   0.0000
    52 H19    -20.9127 -51.6169 -27.7680   H         1 RES1   0.0000
    53 H20    -18.8095 -54.0695 -24.9140   H         1 RES1   0.0000
    54 H21    -17.4416 -51.9534 -28.5394   H         1 RES1   0.0000
    55 H22    -18.6111 -51.4012 -27.3188   H         1 RES1   0.0000
    56 H23    -11.7528 -55.4804 -16.4713   H         1 RES1   0.0000
    57 H24    -13.2356 -55.5838 -18.4666   H         1 RES1   0.0000
    58 H25     -7.3988 -50.3372 -17.4588   H         1 RES1   0.0000
    59 H26     -7.5950 -50.1309 -19.2142   H         1 RES1   0.0000
    60 H27    -12.7801 -54.1786 -20.4732   H         1 RES1   0.0000
    61 H28    -11.7222 -50.9293 -25.0743   H         1 RES1   0.0000
@<TRIPOS>BOND
     1     1     2    1
     2     2     3    1
     3     3     4    2
     4     3     5    1
     5     5     6    1
     6     6     7   ar
     7     7     8   ar
     8     8     9   ar
     9     9    10   ar
    10    10    11   ar
    11    11    12    1
    12    12    13    1
    13    13    14   ar
    14    14    15   ar
    15    15    16    1
    16    16    17    1
    17    17    18   ar
    18    18    19   ar
    19    19    20   ar
    20    20    21    1
    21    21    22    1
    22    22    23    1
    23    23    24    1
    24    24    25    1
    25    24    26    1
    26    26    27    1
    27    20    28   ar
    28    28    29   ar
    29    15    30   ar
    30    30    31   ar
    31    31    32   ar
    32    32    33    1
    33    11     6   ar
    34    32    13   ar
    35    29    17   ar
    36    27    21    1
    37    29    34    1
    38    27    35    1
    39    27    36    1
    40    28    37    1
    41     1    38    1
    42     1    39    1
    43     1    40    1
    44     7    41    1
    45    25    42    1
    46    25    43    1
    47    25    44    1
    48    26    45    1
    49    26    46    1
    50    12    47    1
    51    16    48    1
    52    18    49    1
    53    23    50    1
    54    23    51    1
    55    24    52    1
    56    19    53    1
    57    22    54    1
    58    22    55    1
    59     8    56    1
    60     9    57    1
    61     2    58    1
    62     2    59    1
    63    10    60    1
    64    31    61    1
@<TRIPOS>SUBSTRUCTURE
     1 RES1        1 GROUP             0 ****  ****    0  
@<TRIPOS>CRYSIN
    1.0000    1.0000    1.0000   90.0000   90.0000   90.0000     1     1
@<TRIPOS>MOLECULE
ligand_62
    61    64     1     0     0
SMALL
USER_CHARGES
****
Generated from the CSD

@<TRIPOS>ATOM
     1 C1     -10.1173 -48.3892 -17.6120   C.3       1 RES1   0.0000
     2 C2      -9.2186 -49.6058 -17.8277   C.3       1 RES1   0.0000
     3 C3     -10.1105 -50.8374 -18.0005   C.2       1 RES1   0.0000
     4 O4     -11.2955 -50.8001 -17.8941   O.2       1 RES1   0.0000
     5 O5      -9.4238 -52.0403 -18.2962   O.3       1 RES1   0.0000
     6 C6     -10.2361 -53.2096 -18.4600   C.ar      1 RES1   0.0000
     7 C7     -10.3658 -54.1201 -17.4092   C.ar      1 RES1   0.0000
     8 C8     -11.1652 -55.2631 -17.5897   C.ar      1 RES1   0.0000
     9 C9     -11.8099 -55.4676 -18.8216   C.ar      1 RES1   0.0000
    10 C10    -11.6730 -54.5507 -19.8800   C.ar      1 RES1   0.0000
    11 C11    -10.8729 -53.4104 -19.6992   C.ar      1 RES1   0.0000
    12 N12    -10.7002 -52.4015 -20.7891   N.pl3     1 RES1   0.0000
    13 C13    -11.4932 -52.3939 -22.0242   C.ar      1 RES1   0.0000
    14 N14    -12.5573 -53.1952 -22.1482   N.ar      1 RES1   0.0000
    15 C15    -13.2766 -53.1903 -23.2605   C.ar      1 RES1   0.0000
    16 N16    -14.4406 -54.0674 -23.4102   N.pl3     1 RES1   0.0000
    17 C17    -14.7619 -55.1594 -22.4727   C.ar      1 RES1   0.0000
    18 C18    -15.2199 -56.3609 -22.9889   C.ar      1 RES1   0.0000
    19 C19    -15.5266 -57.4241 -22.1283   C.ar      1 RES1   0.0000
    20 C20    -15.3733 -57.2734 -20.7539   C.ar      1 RES1   0.0000
    21 N21    -15.7082 -58.4100 -19.8600   N.3       1 RES1   0.0000
    22 C22    -14.5382 -58.8348 -19.0699   C.3       1 RES1   0.0000
    23 C23    -14.8814 -59.9736 -18.1431   C.3       1 RES1   0.0000
    24 N24    -15.3620 -61.1293 -18.9610   N.4       1 RES1   1.0000
    25 C25    -15.5321 -62.1886 -18.2626   C.3       1 RES1   0.0000
    26 C26    -16.5947 -60.6969 -19.6847   C.3       1 RES1   0.0000
    27 C27    -16.2605 -59.5473 -20.6060   C.3       1 RES1   0.0000
    28 C28    -14.9138 -56.0709 -20.2316   C.ar      1 RES1   0.0000
    29 C29    -14.6034 -55.0122 -21.0951   C.ar      1 RES1   0.0000
    30 N30    -12.9892 -52.4055 -24.2681   N.ar      1 RES1   0.0000
    31 C31    -11.9536 -51.5763 -24.2294   C.ar      1 RES1   0.0000
    32 C32    -11.1696 -51.5573 -23.0747   C.ar      1 RES1   0.0000
    33 Cl33    -9.7784 -50.4568 -22.9975   Cl        1 RES1   0.0000
    34 H1     -14.6511 -61.3305 -19.6570   H         1 RES1   0.0000
    35 H2     -16.2719 -61.9970 -17.4868   H         1 RES1   0.0000
    36 H3     -15.8810 -62.9952 -18.9057   H         1 RES1   0.0000
    37 H4     -14.5881 -62.4747 -17.8012   H         1 RES1   0.0000
    38 H5      -9.9951 -51.6815 -20.6681   H         1 RES1   0.0000
    39 H6     -12.1811 -54.7229 -20.8277   H         1 RES1   0.0000
    40 H7     -14.7954 -55.9517 -19.1556   H         1 RES1   0.0000
    41 H8     -14.2369 -54.0706 -20.6889   H         1 RES1   0.0000
    42 H9     -17.3458 -60.3777 -18.9637   H         1 RES1   0.0000
    43 H10    -16.9833 -61.5295 -20.2693   H         1 RES1   0.0000
    44 H11    -15.5270 -59.8812 -21.3384   H         1 RES1   0.0000
    45 H12    -17.1667 -59.2287 -21.1191   H         1 RES1   0.0000
    46 H13    -15.0585 -53.9154 -24.2010   H         1 RES1   0.0000
    47 H14    -14.1854 -57.9912 -18.4785   H         1 RES1   0.0000
    48 H15    -13.7503 -59.1566 -19.7493   H         1 RES1   0.0000
    49 H16    -15.6646 -59.6617 -17.4537   H         1 RES1   0.0000
    50 H17    -13.9970 -60.2664 -17.5792   H         1 RES1   0.0000
    51 H18    -15.3418 -56.4794 -24.0645   H         1 RES1   0.0000
    52 H19    -15.8850 -58.3683 -22.5358   H         1 RES1   0.0000
    53 H20    -11.2836 -55.9836 -16.7817   H         1 RES1   0.0000
    54 H21    -12.4279 -56.3536 -18.9598   H         1 RES1   0.0000
    55 H22     -9.8550 -53.9475 -16.4630   H         1 RES1   0.0000
    56 H23    -10.7236 -48.5394 -16.7199   H         1 RES1   0.0000
    57 H24     -9.5009 -47.5002 -17.4866   H         1 RES1   0.0000
    58 H25    -10.7680 -48.2608 -18.4757   H         1 RES1   0.0000
    59 H26     -8.5679 -49.7405 -16.9650   H         1 RES1   0.0000
    60 H27     -8.6123 -49.4620 -18.7208   H         1 RES1   0.0000
    61 H28    -11.7222 -50.9293 -25.0743   H         1 RES1   0.0000
@<TRIPOS>BOND
     1     1     2    1
     2     2     3    1
     3     3     4    2
     4     3     5    1
     5     5     6    1
     6     6     7   ar
     7     7     8   ar
     8     8     9   ar
     9     9    10   ar
    10    10    11   ar
    11    11    12    1
    12    12    13    1
    13    13    14   ar
    14    14    15   ar
    15    15    16    1
    16    16    17    1
    17    17    18   ar
    18    18    19   ar
    19    19    20   ar
    20    20    21    1
    21    21    22    1
    22    22    23    1
    23    23    24    1
    24    24    25    1
    25    24    26    1
    26    26    27    1
    27    20    28   ar
    28    28    29   ar
    29    15    30   ar
    30    30    31   ar
    31    31    32   ar
    32    32    33    1
    33    11     6   ar
    34    32    13   ar
    35    29    17   ar
    36    27    21    1
    37    24    34    1
    38    25    35    1
    39    25    36    1
    40    25    37    1
    41    12    38    1
    42    10    39    1
    43    28    40    1
    44    29    41    1
    45    26    42    1
    46    26    43    1
    47    27    44    1
    48    27    45    1
    49    16    46    1
    50    22    47    1
    51    22    48    1
    52    23    49    1
    53    23    50    1
    54    18    51    1
    55    19    52    1
    56     8    53    1
    57     9    54    1
    58     7    55    1
    59     1    56    1
    60     1    57    1
    61     1    58    1
    62     2    59    1
    63     2    60    1
    64    31    61    1
@<TRIPOS>SUBSTRUCTURE
     1 RES1        1 GROUP             0 ****  ****    0  
@<TRIPOS>CRYSIN
    1.0000    1.0000    1.0000   90.0000   90.0000   90.0000     1     1
@<TRIPOS>MOLECULE
ligand_63
    61    64     1     0     0
SMALL
USER_CHARGES
****
Generated from the CSD

@<TRIPOS>ATOM
     1 C1      -8.6280 -48.5909 -18.0109   C.3       1 RES1   0.0000
     2 C2      -8.1370 -50.0209 -18.2309   C.3       1 RES1   0.0000
     3 C3      -9.3500 -50.9539 -18.2099   C.2       1 RES1   0.0000
     4 O4     -10.4546 -50.5765 -17.9768   O.2       1 RES1   0.0000
     5 O5      -9.0672 -52.3138 -18.4869   O.3       1 RES1   0.0000
     6 C6     -10.1859 -53.2094 -18.4705   C.ar      1 RES1   0.0000
     7 C7     -10.8015 -53.5766 -19.6690   C.ar      1 RES1   0.0000
     8 C8     -11.8997 -54.4545 -19.6326   C.ar      1 RES1   0.0000
     9 C9     -12.3571 -54.9376 -18.3947   C.ar      1 RES1   0.0000
    10 C10    -11.7378 -54.5615 -17.1886   C.ar      1 RES1   0.0000
    11 C11    -10.6421 -53.6833 -17.2260   C.ar      1 RES1   0.0000
    12 N12     -9.9437 -53.2583 -15.9741   N.pl3     1 RES1   0.0000
    13 C13     -8.6293 -53.7660 -15.5631   C.ar      1 RES1   0.0000
    14 N14     -7.9840 -54.6603 -16.3204   N.ar      1 RES1   0.0000
    15 C15     -6.7969 -55.1198 -15.9539   C.ar      1 RES1   0.0000
    16 N16     -6.0832 -56.1035 -16.7721   N.pl3     1 RES1   0.0000
    17 C17     -6.5834 -56.6004 -18.0673   C.ar      1 RES1   0.0000
    18 C18     -5.9432 -57.6806 -18.6532   C.ar      1 RES1   0.0000
    19 C19     -6.3967 -58.1856 -19.8797   C.ar      1 RES1   0.0000
    20 C20     -7.4897 -57.6013 -20.5115   C.ar      1 RES1   0.0000
    21 N21     -7.9509 -58.1484 -21.8119   N.pl3     1 RES1   0.0000
    22 C22     -9.3509 -58.2078 -22.2202   C.3       1 RES1   0.0000
    23 C23     -9.4675 -57.9587 -23.7038   C.3       1 RES1   0.0000
    24 N24     -8.6305 -58.9272 -24.4714   N.4       1 RES1   1.0000
    25 C25     -8.7475 -58.6912 -25.7241   C.3       1 RES1   0.0000
    26 C26     -7.2168 -58.8955 -23.9932   C.3       1 RES1   0.0000
    27 C27     -7.1466 -59.1442 -22.5073   C.3       1 RES1   0.0000
    28 C28     -8.1353 -56.5185 -19.9277   C.ar      1 RES1   0.0000
    29 C29     -7.6824 -56.0197 -18.6994   C.ar      1 RES1   0.0000
    30 N30     -6.2066 -54.7175 -14.8569   N.ar      1 RES1   0.0000
    31 C31     -6.7731 -53.8303 -14.0485   C.ar      1 RES1   0.0000
    32 C32     -8.0267 -53.3272 -14.4001   C.ar      1 RES1   0.0000
    33 Cl33    -8.8062 -52.1388 -13.3357   Cl        1 RES1   0.0000
    34 H1      -9.1335 -48.5247 -17.0486   H         1 RES1   0.0000
    35 H2      -7.7785 -47.9096 -18.0223   H         1 RES1   0.0000
    36 H3      -9.3220 -48.3192 -18.8049   H         1 RES1   0.0000
    37 H4      -7.4449 -50.2988 -17.4374   H         1 RES1   0.0000
    38 H5      -7.6333 -50.0933 -19.1937   H         1 RES1   0.0000
    39 H6      -8.9898 -56.0594 -20.4228   H         1 RES1   0.0000
    40 H7      -8.1906 -55.1751 -18.2364   H         1 RES1   0.0000
    41 H8      -9.9160 -57.4485 -21.6817   H         1 RES1   0.0000
    42 H9      -9.7529 -59.1927 -21.9873   H         1 RES1   0.0000
    43 H10     -9.1331 -56.9458 -23.9231   H         1 RES1   0.0000
    44 H11    -10.5084 -58.0703 -24.0038   H         1 RES1   0.0000
    45 H12     -6.2742 -53.5042 -13.1371   H         1 RES1   0.0000
    46 H13    -10.4363 -53.1885 -20.6187   H         1 RES1   0.0000
    47 H14     -8.9955 -59.8580 -24.2965   H         1 RES1   0.0000
    48 H15     -8.4144 -57.6760 -25.9349   H         1 RES1   0.0000
    49 H16     -8.1371 -59.3974 -26.2851   H         1 RES1   0.0000
    50 H17     -9.7905 -58.7994 -26.0180   H         1 RES1   0.0000
    51 H18    -12.3914 -54.7573 -20.5559   H         1 RES1   0.0000
    52 H19    -13.2080 -55.6167 -18.3684   H         1 RES1   0.0000
    53 H20     -5.0866 -58.1379 -18.1602   H         1 RES1   0.0000
    54 H21     -5.8933 -59.0355 -20.3381   H         1 RES1   0.0000
    55 H22    -12.1034 -54.9465 -16.2378   H         1 RES1   0.0000
    56 H23     -6.7880 -57.9187 -24.2120   H         1 RES1   0.0000
    57 H24     -6.6477 -59.6661 -24.5111   H         1 RES1   0.0000
    58 H25     -7.5300 -60.1394 -22.2869   H         1 RES1   0.0000
    59 H26     -6.1120 -59.0720 -22.1753   H         1 RES1   0.0000
    60 H27    -10.4043 -52.5808 -15.3749   H         1 RES1   0.0000
    61 H28     -5.1976 -56.4620 -16.4293   H         1 RES1   0.0000
@<TRIPOS>BOND
     1     1     2    1
     2     2     3    1
     3     3     4    2
     4     3     5    1
     5     5     6    1
     6     6     7   ar
     7     7     8   ar
     8     8     9   ar
     9     9    10   ar
    10    10    11   ar
    11    11    12    1
    12    12    13    1
    13    13    14   ar
    14    14    15   ar
    15    15    16    1
    16    16    17    1
    17    17    18   ar
    18    18    19   ar
    19    19    20   ar
    20    20    21    1
    21    21    22    1
    22    22    23    1
    23    23    24    1
    24    24    25    1
    25    24    26    1
    26    26    27    1
    27    20    28   ar
    28    28    29   ar
    29    15    30   ar
    30    30    31   ar
    31    31    32   ar
    32    32    33    1
    33    11     6   ar
    34    32    13   ar
    35    29    17   ar
    36    27    21    1
    37     1    34    1
    38     1    35    1
    39     1    36    1
    40     2    37    1
    41     2    38    1
    42    28    39    1
    43    29    40    1
    44    22    41    1
    45    22    42    1
    46    23    43    1
    47    23    44    1
    48    31    45    1
    49     7    46    1
    50    24    47    1
    51    25    48    1
    52    25    49    1
    53    25    50    1
    54     8    51    1
    55     9    52    1
    56    18    53    1
    57    19    54    1
    58    10    55    1
    59    26    56    1
    60    26    57    1
    61    27    58    1
    62    27    59    1
    63    12    60    1
    64    16    61    1
@<TRIPOS>SUBSTRUCTURE
     1 RES1        1 GROUP             0 ****  ****    0  
@<TRIPOS>CRYSIN
    1.0000    1.0000    1.0000   90.0000   90.0000   90.0000     1     1
@<TRIPOS>MOLECULE
ligand_64
    61    64     1     0     0
SMALL
USER_CHARGES
****
Generated from the CSD

@<TRIPOS>ATOM
     1 C1      -8.6279 -48.5911 -18.0109   C.3       1 RES1   0.0000
     2 C2      -8.1370 -50.0211 -18.2309   C.3       1 RES1   0.0000
     3 C3      -9.3500 -50.9541 -18.2100   C.2       1 RES1   0.0000
     4 O4     -10.4545 -50.5766 -17.9768   O.2       1 RES1   0.0000
     5 O5      -9.0673 -52.3140 -18.4869   O.3       1 RES1   0.0000
     6 C6     -10.1860 -53.2096 -18.4706   C.ar      1 RES1   0.0000
     7 C7     -10.4283 -54.0005 -17.3455   C.ar      1 RES1   0.0000
     8 C8     -11.5296 -54.8753 -17.3491   C.ar      1 RES1   0.0000
     9 C9     -12.3570 -54.9395 -18.4832   C.ar      1 RES1   0.0000
    10 C10    -12.1070 -54.1448 -19.6171   C.ar      1 RES1   0.0000
    11 C11    -11.0058 -53.2728 -19.6131   C.ar      1 RES1   0.0000
    12 N12    -10.7002 -52.4015 -20.7891   N.pl3     1 RES1   0.0000
    13 C13     -9.5834 -52.6408 -21.7109   C.ar      1 RES1   0.0000
    14 N14     -8.7677 -53.6850 -21.5265   N.ar      1 RES1   0.0000
    15 C15     -7.7596 -53.9055 -22.3570   C.ar      1 RES1   0.0000
    16 N16     -6.8563 -55.0425 -22.1621   N.pl3     1 RES1   0.0000
    17 C17     -7.0286 -56.0442 -21.0937   C.ar      1 RES1   0.0000
    18 C18     -6.0056 -56.9504 -20.8655   C.ar      1 RES1   0.0000
    19 C19     -6.1307 -57.9110 -19.8522   C.ar      1 RES1   0.0000
    20 C20     -7.2838 -57.9569 -19.0753   C.ar      1 RES1   0.0000
    21 N21     -7.3980 -58.9848 -18.0108   N.pl3     1 RES1   0.0000
    22 C22     -8.0661 -58.7626 -16.7322   C.3       1 RES1   0.0000
    23 C23     -8.7677 -60.0233 -16.2899   C.3       1 RES1   0.0000
    24 N24     -7.8097 -61.1655 -16.2174   N.4       1 RES1   1.0000
    25 C25     -8.4320 -62.2195 -15.8423   C.3       1 RES1   0.0000
    26 C26     -7.0915 -61.3333 -17.5152   C.3       1 RES1   0.0000
    27 C27     -6.4094 -60.0509 -17.9213   C.3       1 RES1   0.0000
    28 C28     -8.3120 -57.0500 -19.2999   C.ar      1 RES1   0.0000
    29 C29     -8.1812 -56.0881 -20.3101   C.ar      1 RES1   0.0000
    30 N30     -7.5267 -53.1298 -23.3854   N.ar      1 RES1   0.0000
    31 C31     -8.2875 -52.0738 -23.6455   C.ar      1 RES1   0.0000
    32 C32     -9.3568 -51.8073 -22.7889   C.ar      1 RES1   0.0000
    33 Cl33   -10.3902 -50.4006 -23.1149   Cl        1 RES1   0.0000
    34 H1     -11.2986 -51.5996 -20.9595   H         1 RES1   0.0000
    35 H2      -7.8077 -61.6158 -18.2854   H         1 RES1   0.0000
    36 H3      -6.3433 -62.1175 -17.4101   H         1 RES1   0.0000
    37 H4      -5.6578 -59.7881 -17.1784   H         1 RES1   0.0000
    38 H5      -5.9308 -60.1849 -18.8903   H         1 RES1   0.0000
    39 H6     -12.7592 -54.2050 -20.4871   H         1 RES1   0.0000
    40 H7      -6.0704 -55.1462 -22.7960   H         1 RES1   0.0000
    41 H8      -9.7736 -53.9408 -16.4773   H         1 RES1   0.0000
    42 H9      -9.1334 -48.5249 -17.0486   H         1 RES1   0.0000
    43 H10     -7.7784 -47.9099 -18.0223   H         1 RES1   0.0000
    44 H11     -9.3218 -48.3193 -18.8050   H         1 RES1   0.0000
    45 H12     -7.4449 -50.2990 -17.4374   H         1 RES1   0.0000
    46 H13     -7.6333 -50.0935 -19.1937   H         1 RES1   0.0000
    47 H14     -9.2157 -57.0866 -18.6934   H         1 RES1   0.0000
    48 H15     -8.9829 -55.3719 -20.4840   H         1 RES1   0.0000
    49 H16     -9.5552 -60.2626 -17.0030   H         1 RES1   0.0000
    50 H17     -9.2057 -59.8617 -15.3061   H         1 RES1   0.0000
    51 H18     -7.1185 -60.9451 -15.5075   H         1 RES1   0.0000
    52 H19     -9.2194 -62.4503 -16.5583   H         1 RES1   0.0000
    53 H20     -7.7339 -63.0536 -15.7890   H         1 RES1   0.0000
    54 H21     -8.8720 -62.0512 -14.8605   H         1 RES1   0.0000
    55 H22    -11.7394 -55.4976 -16.4804   H         1 RES1   0.0000
    56 H23    -13.2088 -55.6180 -18.4845   H         1 RES1   0.0000
    57 H24     -8.0833 -51.4337 -24.5026   H         1 RES1   0.0000
    58 H25     -8.7969 -57.9627 -16.8415   H         1 RES1   0.0000
    59 H26     -7.3274 -58.4796 -15.9838   H         1 RES1   0.0000
    60 H27     -5.1032 -56.9164 -21.4741   H         1 RES1   0.0000
    61 H28     -5.3250 -58.6215 -19.6732   H         1 RES1   0.0000
@<TRIPOS>BOND
     1     1     2    1
     2     2     3    1
     3     3     4    2
     4     3     5    1
     5     5     6    1
     6     6     7   ar
     7     7     8   ar
     8     8     9   ar
     9     9    10   ar
    10    10    11   ar
    11    11    12    1
    12    12    13    1
    13    13    14   ar
    14    14    15   ar
    15    15    16    1
    16    16    17    1
    17    17    18   ar
    18    18    19   ar
    19    19    20   ar
    20    20    21    1
    21    21    22    1
    22    22    23    1
    23    23    24    1
    24    24    25    1
    25    24    26    1
    26    26    27    1
    27    20    28   ar
    28    28    29   ar
    29    15    30   ar
    30    30    31   ar
    31    31    32   ar
    32    32    33    1
    33    11     6   ar
    34    32    13   ar
    35    29    17   ar
    36    27    21    1
    37    12    34    1
    38    26    35    1
    39    26    36    1
    40    27    37    1
    41    27    38    1
    42    10    39    1
    43    16    40    1
    44     7    41    1
    45     1    42    1
    46     1    43    1
    47     1    44    1
    48     2    45    1
    49     2    46    1
    50    28    47    1
    51    29    48    1
    52    23    49    1
    53    23    50    1
    54    24    51    1
    55    25    52    1
    56    25    53    1
    57    25    54    1
    58     8    55    1
    59     9    56    1
    60    31    57    1
    61    22    58    1
    62    22    59    1
    63    18    60    1
    64    19    61    1
@<TRIPOS>SUBSTRUCTURE
     1 RES1        1 GROUP             0 ****  ****    0  
@<TRIPOS>CRYSIN
    1.0000    1.0000    1.0000   90.0000   90.0000   90.0000     1     1
@<TRIPOS>MOLECULE
ligand_65
    61    64     1     0     0
SMALL
USER_CHARGES
****
Generated from the CSD

@<TRIPOS>ATOM
     1 C1      -8.3607 -48.7542 -17.8653   C.3       1 RES1   0.0000
     2 C2      -7.9518 -50.2083 -18.0951   C.3       1 RES1   0.0000
     3 C3      -9.2206 -51.0632 -18.1369   C.2       1 RES1   0.0000
     4 O4     -10.3075 -50.6210 -17.9371   O.2       1 RES1   0.0000
     5 O5      -9.0129 -52.4333 -18.4299   O.3       1 RES1   0.0000
     6 C6     -10.1837 -53.2593 -18.4587   C.ar      1 RES1   0.0000
     7 C7     -10.9774 -53.3822 -17.3164   C.ar      1 RES1   0.0000
     8 C8     -12.1210 -54.1996 -17.3631   C.ar      1 RES1   0.0000
     9 C9     -12.4369 -54.8781 -18.5526   C.ar      1 RES1   0.0000
    10 C10    -11.6322 -54.7560 -19.7003   C.ar      1 RES1   0.0000
    11 C11    -10.4892 -53.9408 -19.6519   C.ar      1 RES1   0.0000
    12 N12     -9.6047 -53.7710 -20.8454   N.pl3     1 RES1   0.0000
    13 C13     -9.3523 -54.8311 -21.8287   C.ar      1 RES1   0.0000
    14 N14     -9.9009 -56.0412 -21.6727   N.ar      1 RES1   0.0000
    15 C15     -9.6770 -57.0001 -22.5586   C.ar      1 RES1   0.0000
    16 N16    -10.2676 -58.3310 -22.3955   N.pl3     1 RES1   0.0000
    17 C17    -11.1049 -58.7135 -21.2434   C.ar      1 RES1   0.0000
    18 C18    -12.1278 -59.6265 -21.4433   C.ar      1 RES1   0.0000
    19 C19    -12.9381 -60.0202 -20.3694   C.ar      1 RES1   0.0000
    20 C20    -12.7174 -59.4930 -19.1011   C.ar      1 RES1   0.0000
    21 N21    -13.5898 -59.9197 -17.9787   N.3       1 RES1   0.0000
    22 C22    -12.8082 -60.5565 -16.9029   C.3       1 RES1   0.0000
    23 C23    -13.6887 -60.9693 -15.7505   C.3       1 RES1   0.0000
    24 N24    -14.7094 -61.9405 -16.2509   N.4       1 RES1   1.0000
    25 C25    -15.4026 -62.4554 -15.3058   C.3       1 RES1   0.0000
    26 C26    -15.5399 -61.2435 -17.2779   C.3       1 RES1   0.0000
    27 C27    -14.6615 -60.8158 -18.4300   C.3       1 RES1   0.0000
    28 C28    -11.6925 -58.5778 -18.8955   C.ar      1 RES1   0.0000
    29 C29    -10.8814 -58.1905 -19.9702   C.ar      1 RES1   0.0000
    30 N30     -8.9294 -56.8063 -23.6156   N.ar      1 RES1   0.0000
    31 C31     -8.3490 -55.6360 -23.8508   C.ar      1 RES1   0.0000
    32 C32     -8.5586 -54.6028 -22.9360   C.ar      1 RES1   0.0000
    33 Cl33    -7.7935 -53.0273 -23.2277   Cl        1 RES1   0.0000
    34 H1     -14.2169 -61.6999 -18.8846   H         1 RES1   0.0000
    35 H2     -15.2715 -60.2962 -19.1675   H         1 RES1   0.0000
    36 H3     -11.5204 -58.1633 -17.9033   H         1 RES1   0.0000
    37 H4      -8.8972 -48.6729 -16.9211   H         1 RES1   0.0000
    38 H5      -7.4706 -48.1277 -17.8322   H         1 RES1   0.0000
    39 H6      -9.0058 -48.4256 -18.6788   H         1 RES1   0.0000
    40 H7      -7.3089 -50.5429 -17.2823   H         1 RES1   0.0000
    41 H8      -7.4176 -50.2957 -19.0400   H         1 RES1   0.0000
    42 H9     -10.0911 -59.0265 -23.1134   H         1 RES1   0.0000
    43 H10     -9.1535 -52.8723 -20.9834   H         1 RES1   0.0000
    44 H11    -13.7407 -60.7390 -20.5280   H         1 RES1   0.0000
    45 H12    -10.7145 -52.8524 -16.4020   H         1 RES1   0.0000
    46 H13    -12.7563 -54.3058 -16.4850   H         1 RES1   0.0000
    47 H14    -12.3025 -60.0387 -22.4360   H         1 RES1   0.0000
    48 H15    -10.0732 -57.4782 -19.8106   H         1 RES1   0.0000
    49 H16    -14.1875 -60.0934 -15.3384   H         1 RES1   0.0000
    50 H17    -13.0834 -61.4398 -14.9771   H         1 RES1   0.0000
    51 H18    -14.2144 -62.6949 -16.7157   H         1 RES1   0.0000
    52 H19    -13.3224 -55.5111 -18.5867   H         1 RES1   0.0000
    53 H20    -11.8923 -55.2869 -20.6149   H         1 RES1   0.0000
    54 H21    -12.0615 -59.8505 -16.5425   H         1 RES1   0.0000
    55 H22    -12.3105 -61.4391 -17.3019   H         1 RES1   0.0000
    56 H23    -15.9266 -61.6663 -14.7685   H         1 RES1   0.0000
    57 H24    -16.1271 -63.1520 -15.7250   H         1 RES1   0.0000
    58 H25    -14.7438 -62.9859 -14.6199   H         1 RES1   0.0000
    59 H26    -16.0072 -60.3664 -16.8326   H         1 RES1   0.0000
    60 H27    -16.3114 -61.9207 -17.6415   H         1 RES1   0.0000
    61 H28     -7.7272 -55.4862 -24.7322   H         1 RES1   0.0000
@<TRIPOS>BOND
     1     1     2    1
     2     2     3    1
     3     3     4    2
     4     3     5    1
     5     5     6    1
     6     6     7   ar
     7     7     8   ar
     8     8     9   ar
     9     9    10   ar
    10    10    11   ar
    11    11    12    1
    12    12    13    1
    13    13    14   ar
    14    14    15   ar
    15    15    16    1
    16    16    17    1
    17    17    18   ar
    18    18    19   ar
    19    19    20   ar
    20    20    21    1
    21    21    22    1
    22    22    23    1
    23    23    24    1
    24    24    25    1
    25    24    26    1
    26    26    27    1
    27    20    28   ar
    28    28    29   ar
    29    15    30   ar
    30    30    31   ar
    31    31    32   ar
    32    32    33    1
    33    11     6   ar
    34    32    13   ar
    35    29    17   ar
    36    27    21    1
    37    27    34    1
    38    27    35    1
    39    28    36    1
    40     1    37    1
    41     1    38    1
    42     1    39    1
    43     2    40    1
    44     2    41    1
    45    16    42    1
    46    12    43    1
    47    19    44    1
    48     7    45    1
    49     8    46    1
    50    18    47    1
    51    29    48    1
    52    23    49    1
    53    23    50    1
    54    24    51    1
    55     9    52    1
    56    10    53    1
    57    22    54    1
    58    22    55    1
    59    25    56    1
    60    25    57    1
    61    25    58    1
    62    26    59    1
    63    26    60    1
    64    31    61    1
@<TRIPOS>SUBSTRUCTURE
     1 RES1        1 GROUP             0 ****  ****    0  
@<TRIPOS>CRYSIN
    1.0000    1.0000    1.0000   90.0000   90.0000   90.0000     1     1
@<TRIPOS>MOLECULE
ligand_66
    61    64     1     0     0
SMALL
USER_CHARGES
****
Generated from the CSD

@<TRIPOS>ATOM
     1 C1      -9.0615 -48.4557 -18.1924   C.3       1 RES1   0.0000
     2 C2      -8.4550 -49.8506 -18.3365   C.3       1 RES1   0.0000
     3 C3      -9.5928 -50.8740 -18.3124   C.2       1 RES1   0.0000
     4 O4     -10.7302 -50.5749 -18.1289   O.2       1 RES1   0.0000
     5 O5      -9.1973 -52.2176 -18.5226   O.3       1 RES1   0.0000
     6 C6     -10.2419 -53.1982 -18.4876   C.ar      1 RES1   0.0000
     7 C7     -11.0073 -53.3591 -17.3308   C.ar      1 RES1   0.0000
     8 C8     -12.0263 -54.3284 -17.3146   C.ar      1 RES1   0.0000
     9 C9     -12.2484 -55.1163 -18.4569   C.ar      1 RES1   0.0000
    10 C10    -11.4720 -54.9549 -19.6192   C.ar      1 RES1   0.0000
    11 C11    -10.4533 -53.9878 -19.6336   C.ar      1 RES1   0.0000
    12 N12     -9.6047 -53.7710 -20.8454   N.pl3     1 RES1   0.0000
    13 C13    -10.0905 -53.9401 -22.2200   C.ar      1 RES1   0.0000
    14 N14    -11.3657 -54.2733 -22.4492   N.ar      1 RES1   0.0000
    15 C15    -11.8087 -54.4252 -23.6883   C.ar      1 RES1   0.0000
    16 N16    -13.2016 -54.7955 -23.9516   N.pl3     1 RES1   0.0000
    17 C17    -13.7311 -55.0610 -25.3021   C.ar      1 RES1   0.0000
    18 C18    -12.9123 -55.6987 -26.2200   C.ar      1 RES1   0.0000
    19 C19    -13.3851 -55.9755 -27.5103   C.ar      1 RES1   0.0000
    20 C20    -14.6773 -55.6083 -27.8716   C.ar      1 RES1   0.0000
    21 N21    -15.1568 -55.9065 -29.2442   N.3       1 RES1   0.0000
    22 C22    -16.3421 -56.7829 -29.2207   C.3       1 RES1   0.0000
    23 C23    -16.8461 -57.0680 -30.6130   C.3       1 RES1   0.0000
    24 N24    -15.7587 -57.7405 -31.3882   N.4       1 RES1   1.0000
    25 C25    -16.1544 -58.1521 -32.5339   C.3       1 RES1   0.0000
    26 C26    -14.6030 -56.7981 -31.4679   C.3       1 RES1   0.0000
    27 C27    -14.1010 -56.4981 -30.0751   C.3       1 RES1   0.0000
    28 C28    -15.5024 -54.9692 -26.9545   C.ar      1 RES1   0.0000
    29 C29    -15.0281 -54.6988 -25.6642   C.ar      1 RES1   0.0000
    30 N30    -11.0332 -54.2482 -24.7280   N.ar      1 RES1   0.0000
    31 C31     -9.7560 -53.9132 -24.5930   C.ar      1 RES1   0.0000
    32 C32     -9.2526 -53.7489 -23.3015   C.ar      1 RES1   0.0000
    33 Cl33    -7.5472 -53.3006 -23.0935   Cl        1 RES1   0.0000
    34 H1     -13.8356 -54.8734 -23.1628   H         1 RES1   0.0000
    35 H2     -17.1319 -56.2948 -28.6515   H         1 RES1   0.0000
    36 H3     -16.0771 -57.7238 -28.7407   H         1 RES1   0.0000
    37 H4      -8.6385 -53.4912 -20.7098   H         1 RES1   0.0000
    38 H5     -13.7626 -57.4242 -29.6127   H         1 RES1   0.0000
    39 H6     -13.2680 -55.7997 -30.1409   H         1 RES1   0.0000
    40 H7     -16.5134 -54.6797 -27.2373   H         1 RES1   0.0000
    41 H8      -9.6024 -48.3907 -17.2495   H         1 RES1   0.0000
    42 H9      -8.2670 -47.7111 -18.2072   H         1 RES1   0.0000
    43 H10     -9.7474 -48.2711 -19.0178   H         1 RES1   0.0000
    44 H11     -7.7704 -50.0415 -17.5114   H         1 RES1   0.0000
    45 H12     -7.9155 -49.9219 -19.2798   H         1 RES1   0.0000
    46 H13    -10.8178 -52.7426 -16.4533   H         1 RES1   0.0000
    47 H14    -12.6380 -54.4672 -16.4244   H         1 RES1   0.0000
    48 H15    -16.5098 -57.3063 -33.1206   H         1 RES1   0.0000
    49 H16    -15.3260 -58.6317 -33.0533   H         1 RES1   0.0000
    50 H17    -16.9640 -58.8685 -32.4025   H         1 RES1   0.0000
    51 H18    -14.9213 -55.8730 -31.9462   H         1 RES1   0.0000
    52 H19    -13.8038 -57.2523 -32.0518   H         1 RES1   0.0000
    53 H20    -17.1208 -56.1343 -31.1016   H         1 RES1   0.0000
    54 H21    -17.7165 -57.7204 -30.5612   H         1 RES1   0.0000
    55 H22    -15.4583 -58.5515 -30.8568   H         1 RES1   0.0000
    56 H23    -12.7407 -56.4781 -28.2300   H         1 RES1   0.0000
    57 H24    -15.6748 -54.2038 -24.9413   H         1 RES1   0.0000
    58 H25     -9.1191 -53.7706 -25.4648   H         1 RES1   0.0000
    59 H26    -13.0373 -55.8669 -18.4422   H         1 RES1   0.0000
    60 H27    -11.6585 -55.5721 -20.4968   H         1 RES1   0.0000
    61 H28    -11.9000 -55.9853 -25.9387   H         1 RES1   0.0000
@<TRIPOS>BOND
     1     1     2    1
     2     2     3    1
     3     3     4    2
     4     3     5    1
     5     5     6    1
     6     6     7   ar
     7     7     8   ar
     8     8     9   ar
     9     9    10   ar
    10    10    11   ar
    11    11    12    1
    12    12    13    1
    13    13    14   ar
    14    14    15   ar
    15    15    16    1
    16    16    17    1
    17    17    18   ar
    18    18    19   ar
    19    19    20   ar
    20    20    21    1
    21    21    22    1
    22    22    23    1
    23    23    24    1
    24    24    25    1
    25    24    26    1
    26    26    27    1
    27    20    28   ar
    28    28    29   ar
    29    15    30   ar
    30    30    31   ar
    31    31    32   ar
    32    32    33    1
    33    11     6   ar
    34    32    13   ar
    35    29    17   ar
    36    27    21    1
    37    16    34    1
    38    22    35    1
    39    22    36    1
    40    12    37    1
    41    27    38    1
    42    27    39    1
    43    28    40    1
    44     1    41    1
    45     1    42    1
    46     1    43    1
    47     2    44    1
    48     2    45    1
    49     7    46    1
    50     8    47    1
    51    25    48    1
    52    25    49    1
    53    25    50    1
    54    26    51    1
    55    26    52    1
    56    23    53    1
    57    23    54    1
    58    24    55    1
    59    19    56    1
    60    29    57    1
    61    31    58    1
    62     9    59    1
    63    10    60    1
    64    18    61    1
@<TRIPOS>SUBSTRUCTURE
     1 RES1        1 GROUP             0 ****  ****    0  
@<TRIPOS>CRYSIN
    1.0000    1.0000    1.0000   90.0000   90.0000   90.0000     1     1
@<TRIPOS>MOLECULE
ligand_67
    61    64     1     0     0
SMALL
USER_CHARGES
****
Generated from the CSD

@<TRIPOS>ATOM
     1 C1      -8.4085 -48.7048 -18.3166   C.3       1 RES1   0.0000
     2 C2      -7.9948 -50.1628 -18.5097   C.3       1 RES1   0.0000
     3 C3      -9.2425 -51.0385 -18.3720   C.2       1 RES1   0.0000
     4 O4     -10.3119 -50.6029 -18.0830   O.2       1 RES1   0.0000
     5 O5      -9.0372 -52.4193 -18.6112   O.3       1 RES1   0.0000
     6 C6     -10.1928 -53.2597 -18.5018   C.ar      1 RES1   0.0000
     7 C7     -11.3041 -53.0247 -19.3141   C.ar      1 RES1   0.0000
     8 C8     -12.4300 -53.8585 -19.1904   C.ar      1 RES1   0.0000
     9 C9     -12.4157 -54.9036 -18.2509   C.ar      1 RES1   0.0000
    10 C10    -11.2962 -55.1344 -17.4304   C.ar      1 RES1   0.0000
    11 C11    -10.1730 -54.2999 -17.5535   C.ar      1 RES1   0.0000
    12 N12     -8.9551 -54.5067 -16.7112   N.pl3     1 RES1   0.0000
    13 C13     -8.4951 -55.8237 -16.2551   C.ar      1 RES1   0.0000
    14 N14     -9.1524 -56.9312 -16.6173   N.ar      1 RES1   0.0000
    15 C15     -8.7396 -58.1218 -16.2093   C.ar      1 RES1   0.0000
    16 N16     -9.4546 -59.3412 -16.5947   N.pl3     1 RES1   0.0000
    17 C17     -9.0943 -60.6845 -16.1046   C.ar      1 RES1   0.0000
    18 C18     -8.6492 -60.8148 -14.7989   C.ar      1 RES1   0.0000
    19 C19     -8.3065 -62.0776 -14.2959   C.ar      1 RES1   0.0000
    20 C20     -8.4111 -63.2020 -15.1082   C.ar      1 RES1   0.0000
    21 N21     -8.0387 -64.5291 -14.5576   N.3       1 RES1   0.0000
    22 C22     -9.1774 -65.4648 -14.5945   C.3       1 RES1   0.0000
    23 C23     -8.7954 -66.8213 -14.0580   C.3       1 RES1   0.0000
    24 N24     -8.3388 -66.6659 -12.6428   N.4       1 RES1   1.0000
    25 C25     -8.1384 -67.7905 -12.0649   C.3       1 RES1   0.0000
    26 C26     -7.1350 -65.7821 -12.6444   C.3       1 RES1   0.0000
    27 C27     -7.5078 -64.4248 -13.1928   C.3       1 RES1   0.0000
    28 C28     -8.8575 -63.0767 -16.4178   C.ar      1 RES1   0.0000
    29 C29     -9.2041 -61.8137 -16.9155   C.ar      1 RES1   0.0000
    30 N30     -7.6802 -58.2666 -15.4541   N.ar      1 RES1   0.0000
    31 C31     -6.9666 -57.2227 -15.0509   C.ar      1 RES1   0.0000
    32 C32     -7.3745 -55.9513 -15.4575   C.ar      1 RES1   0.0000
    33 Cl33    -6.4369 -54.5380 -14.9318   Cl        1 RES1   0.0000
    34 H1     -11.3005 -55.9500 -16.7088   H         1 RES1   0.0000
    35 H2      -7.9895 -67.2395 -14.6592   H         1 RES1   0.0000
    36 H3      -9.6575 -67.4857 -14.0940   H         1 RES1   0.0000
    37 H4      -9.0732 -66.1847 -12.1335   H         1 RES1   0.0000
    38 H5      -7.9583 -62.1784 -13.2690   H         1 RES1   0.0000
    39 H6      -7.2638 -50.4416 -17.7522   H         1 RES1   0.0000
    40 H7      -7.5600 -50.2942 -19.4995   H         1 RES1   0.0000
    41 H8      -7.3721 -68.3447 -12.6049   H         1 RES1   0.0000
    42 H9      -7.8088 -67.6190 -11.0412   H         1 RES1   0.0000
    43 H10     -9.0638 -68.3645 -12.0569   H         1 RES1   0.0000
    44 H11     -6.3601 -66.2253 -13.2681   H         1 RES1   0.0000
    45 H12     -6.7635 -65.6729 -11.6266   H         1 RES1   0.0000
    46 H13     -9.5130 -65.5734 -15.6248   H         1 RES1   0.0000
    47 H14     -9.9876 -65.0603 -13.9896   H         1 RES1   0.0000
    48 H15    -10.2394 -59.2569 -17.2328   H         1 RES1   0.0000
    49 H16     -8.5655 -59.9350 -14.1626   H         1 RES1   0.0000
    50 H17    -13.3054 -53.6956 -19.8173   H         1 RES1   0.0000
    51 H18    -13.2886 -55.5477 -18.1560   H         1 RES1   0.0000
    52 H19     -8.8454 -48.5795 -17.3270   H         1 RES1   0.0000
    53 H20     -7.5333 -48.0636 -18.4109   H         1 RES1   0.0000
    54 H21     -9.1416 -48.4321 -19.0743   H         1 RES1   0.0000
    55 H22     -8.4162 -53.6906 -16.4396   H         1 RES1   0.0000
    56 H23    -11.2990 -52.2071 -20.0334   H         1 RES1   0.0000
    57 H24     -9.5606 -61.7134 -17.9396   H         1 RES1   0.0000
    58 H25     -8.2655 -63.9784 -12.5505   H         1 RES1   0.0000
    59 H26     -6.6222 -63.7911 -13.2040   H         1 RES1   0.0000
    60 H27     -8.9377 -63.9563 -17.0548   H         1 RES1   0.0000
    61 H28     -6.0881 -57.3544 -14.4210   H         1 RES1   0.0000
@<TRIPOS>BOND
     1     1     2    1
     2     2     3    1
     3     3     4    2
     4     3     5    1
     5     5     6    1
     6     6     7   ar
     7     7     8   ar
     8     8     9   ar
     9     9    10   ar
    10    10    11   ar
    11    11    12    1
    12    12    13    1
    13    13    14   ar
    14    14    15   ar
    15    15    16    1
    16    16    17    1
    17    17    18   ar
    18    18    19   ar
    19    19    20   ar
    20    20    21    1
    21    21    22    1
    22    22    23    1
    23    23    24    1
    24    24    25    1
    25    24    26    1
    26    26    27    1
    27    20    28   ar
    28    28    29   ar
    29    15    30   ar
    30    30    31   ar
    31    31    32   ar
    32    32    33    1
    33    11     6   ar
    34    32    13   ar
    35    29    17   ar
    36    27    21    1
    37    10    34    1
    38    23    35    1
    39    23    36    1
    40    24    37    1
    41    19    38    1
    42     2    39    1
    43     2    40    1
    44    25    41    1
    45    25    42    1
    46    25    43    1
    47    26    44    1
    48    26    45    1
    49    22    46    1
    50    22    47    1
    51    16    48    1
    52    18    49    1
    53     8    50    1
    54     9    51    1
    55     1    52    1
    56     1    53    1
    57     1    54    1
    58    12    55    1
    59     7    56    1
    60    29    57    1
    61    27    58    1
    62    27    59    1
    63    28    60    1
    64    31    61    1
@<TRIPOS>SUBSTRUCTURE
     1 RES1        1 GROUP             0 ****  ****    0  
@<TRIPOS>CRYSIN
    1.0000    1.0000    1.0000   90.0000   90.0000   90.0000     1     1
@<TRIPOS>MOLECULE
ligand_68
    61    64     1     0     0
SMALL
USER_CHARGES
****
Generated from the CSD

@<TRIPOS>ATOM
     1 C1      -9.0604 -48.4556 -18.1916   C.3       1 RES1   0.0000
     2 C2      -8.4543 -49.8505 -18.3366   C.3       1 RES1   0.0000
     3 C3      -9.5922 -50.8737 -18.3119   C.2       1 RES1   0.0000
     4 O4     -10.7294 -50.5746 -18.1274   O.2       1 RES1   0.0000
     5 O5      -9.1971 -52.2174 -18.5228   O.3       1 RES1   0.0000
     6 C6     -10.2419 -53.1977 -18.4878   C.ar      1 RES1   0.0000
     7 C7     -11.0074 -53.3583 -17.3309   C.ar      1 RES1   0.0000
     8 C8     -12.0265 -54.3275 -17.3146   C.ar      1 RES1   0.0000
     9 C9     -12.2488 -55.1154 -18.4569   C.ar      1 RES1   0.0000
    10 C10    -11.4723 -54.9544 -19.6191   C.ar      1 RES1   0.0000
    11 C11    -10.4534 -53.9874 -19.6336   C.ar      1 RES1   0.0000
    12 N12     -9.6047 -53.7710 -20.8454   N.pl3     1 RES1   0.0000
    13 C13    -10.0905 -53.9401 -22.2200   C.ar      1 RES1   0.0000
    14 N14    -11.3657 -54.2733 -22.4492   N.ar      1 RES1   0.0000
    15 C15    -11.8087 -54.4252 -23.6883   C.ar      1 RES1   0.0000
    16 N16    -13.2016 -54.7955 -23.9516   N.pl3     1 RES1   0.0000
    17 C17    -13.7671 -54.9216 -25.3077   C.ar      1 RES1   0.0000
    18 C18    -14.7322 -55.8896 -25.5344   C.ar      1 RES1   0.0000
    19 C19    -15.2987 -56.0323 -26.8087   C.ar      1 RES1   0.0000
    20 C20    -14.8909 -55.2029 -27.8484   C.ar      1 RES1   0.0000
    21 N21    -15.4999 -55.3737 -29.1911   N.3       1 RES1   0.0000
    22 C22    -15.2483 -56.7239 -29.7273   C.3       1 RES1   0.0000
    23 C23    -15.8865 -56.9084 -31.0810   C.3       1 RES1   0.0000
    24 N24    -15.3155 -55.8967 -32.0222   N.4       1 RES1   1.0000
    25 C25    -15.6938 -56.0817 -33.2311   C.3       1 RES1   0.0000
    26 C26    -15.6576 -54.5403 -31.4992   C.3       1 RES1   0.0000
    27 C27    -15.0317 -54.3534 -30.1371   C.3       1 RES1   0.0000
    28 C28    -13.9240 -54.2304 -27.6259   C.ar      1 RES1   0.0000
    29 C29    -13.3639 -54.0873 -26.3497   C.ar      1 RES1   0.0000
    30 N30    -11.0332 -54.2482 -24.7280   N.ar      1 RES1   0.0000
    31 C31     -9.7560 -53.9132 -24.5930   C.ar      1 RES1   0.0000
    32 C32     -9.2526 -53.7489 -23.3015   C.ar      1 RES1   0.0000
    33 Cl33    -7.5472 -53.3006 -23.0935   Cl        1 RES1   0.0000
    34 H1     -16.9633 -56.7674 -31.0007   H         1 RES1   0.0000
    35 H2     -15.6782 -57.9113 -31.4507   H         1 RES1   0.0000
    36 H3     -14.3051 -55.9899 -31.9983   H         1 RES1   0.0000
    37 H4     -15.6597 -57.4605 -29.0387   H         1 RES1   0.0000
    38 H5     -14.1736 -56.8735 -29.8194   H         1 RES1   0.0000
    39 H6      -7.7691 -50.0418 -17.5121   H         1 RES1   0.0000
    40 H7      -7.9155 -49.9216 -19.2803   H         1 RES1   0.0000
    41 H8     -15.0511 -56.5404 -24.7216   H         1 RES1   0.0000
    42 H9     -16.0582 -56.7926 -26.9848   H         1 RES1   0.0000
    43 H10     -9.6005 -48.3908 -17.2482   H         1 RES1   0.0000
    44 H11     -8.2657 -47.7111 -18.2068   H         1 RES1   0.0000
    45 H12     -9.7470 -48.2706 -19.0164   H         1 RES1   0.0000
    46 H13    -12.6106 -53.3215 -26.1708   H         1 RES1   0.0000
    47 H14     -8.6384 -53.4915 -20.7098   H         1 RES1   0.0000
    48 H15     -9.1191 -53.7706 -25.4648   H         1 RES1   0.0000
    49 H16    -16.7794 -56.0148 -33.2860   H         1 RES1   0.0000
    50 H17    -15.2503 -55.3201 -33.8708   H         1 RES1   0.0000
    51 H18    -15.3735 -57.0676 -33.5648   H         1 RES1   0.0000
    52 H19    -16.7393 -54.4448 -31.4178   H         1 RES1   0.0000
    53 H20    -15.2765 -53.7815 -32.1811   H         1 RES1   0.0000
    54 H21    -13.0380 -55.8657 -18.4422   H         1 RES1   0.0000
    55 H22    -11.6588 -55.5718 -20.4966   H         1 RES1   0.0000
    56 H23    -13.9492 -54.4265 -30.2309   H         1 RES1   0.0000
    57 H24    -15.2973 -53.3682 -29.7567   H         1 RES1   0.0000
    58 H25    -13.6029 -53.5822 -28.4399   H         1 RES1   0.0000
    59 H26    -13.8094 -54.9747 -23.1587   H         1 RES1   0.0000
    60 H27    -10.8179 -52.7417 -16.4535   H         1 RES1   0.0000
    61 H28    -12.6381 -54.4662 -16.4243   H         1 RES1   0.0000
@<TRIPOS>BOND
     1     1     2    1
     2     2     3    1
     3     3     4    2
     4     3     5    1
     5     5     6    1
     6     6     7   ar
     7     7     8   ar
     8     8     9   ar
     9     9    10   ar
    10    10    11   ar
    11    11    12    1
    12    12    13    1
    13    13    14   ar
    14    14    15   ar
    15    15    16    1
    16    16    17    1
    17    17    18   ar
    18    18    19   ar
    19    19    20   ar
    20    20    21    1
    21    21    22    1
    22    22    23    1
    23    23    24    1
    24    24    25    1
    25    24    26    1
    26    26    27    1
    27    20    28   ar
    28    28    29   ar
    29    15    30   ar
    30    30    31   ar
    31    31    32   ar
    32    32    33    1
    33    11     6   ar
    34    32    13   ar
    35    29    17   ar
    36    27    21    1
    37    23    34    1
    38    23    35    1
    39    24    36    1
    40    22    37    1
    41    22    38    1
    42     2    39    1
    43     2    40    1
    44    18    41    1
    45    19    42    1
    46     1    43    1
    47     1    44    1
    48     1    45    1
    49    29    46    1
    50    12    47    1
    51    31    48    1
    52    25    49    1
    53    25    50    1
    54    25    51    1
    55    26    52    1
    56    26    53    1
    57     9    54    1
    58    10    55    1
    59    27    56    1
    60    27    57    1
    61    28    58    1
    62    16    59    1
    63     7    60    1
    64     8    61    1
@<TRIPOS>SUBSTRUCTURE
     1 RES1        1 GROUP             0 ****  ****    0  
@<TRIPOS>CRYSIN
    1.0000    1.0000    1.0000   90.0000   90.0000   90.0000     1     1
@<TRIPOS>MOLECULE
ligand_69
    61    64     1     0     0
SMALL
USER_CHARGES
****
Generated from the CSD

@<TRIPOS>ATOM
     1 C1      -8.3120 -48.7563 -18.0430   C.3       1 RES1   0.0000
     2 C2      -7.9230 -50.2144 -18.2822   C.3       1 RES1   0.0000
     3 C3      -9.1948 -51.0646 -18.2364   C.2       1 RES1   0.0000
     4 O4     -10.2657 -50.6160 -17.9744   O.2       1 RES1   0.0000
     5 O5      -9.0102 -52.4384 -18.5271   O.3       1 RES1   0.0000
     6 C6     -10.1855 -53.2575 -18.4879   C.ar      1 RES1   0.0000
     7 C7     -10.4530 -54.0381 -17.3613   C.ar      1 RES1   0.0000
     8 C8     -11.6100 -54.8376 -17.3425   C.ar      1 RES1   0.0000
     9 C9     -12.4669 -54.8389 -18.4564   C.ar      1 RES1   0.0000
    10 C10    -12.1917 -54.0551 -19.5920   C.ar      1 RES1   0.0000
    11 C11    -11.0349 -53.2584 -19.6104   C.ar      1 RES1   0.0000
    12 N12    -10.7002 -52.4015 -20.7891   N.pl3     1 RES1   0.0000
    13 C13    -11.0078 -52.7694 -22.1763   C.ar      1 RES1   0.0000
    14 N14    -11.5941 -53.9404 -22.4501   N.ar      1 RES1   0.0000
    15 C15    -11.8749 -54.2756 -23.7004   C.ar      1 RES1   0.0000
    16 N16    -12.5117 -55.5575 -24.0131   N.pl3     1 RES1   0.0000
    17 C17    -12.9013 -55.9608 -25.3770   C.ar      1 RES1   0.0000
    18 C18    -12.8051 -57.2988 -25.7240   C.ar      1 RES1   0.0000
    19 C19    -13.1754 -57.7199 -27.0087   C.ar      1 RES1   0.0000
    20 C20    -13.6383 -56.7941 -27.9381   C.ar      1 RES1   0.0000
    21 N21    -14.0206 -57.2603 -29.2944   N.3       1 RES1   0.0000
    22 C22    -14.6349 -56.1758 -30.0819   C.3       1 RES1   0.0000
    23 C23    -15.0025 -56.6399 -31.4687   C.3       1 RES1   0.0000
    24 N24    -15.9753 -57.7695 -31.3542   N.4       1 RES1   1.0000
    25 C25    -16.4533 -58.1232 -32.4878   C.3       1 RES1   0.0000
    26 C26    -15.2987 -58.8845 -30.6267   C.3       1 RES1   0.0000
    27 C27    -14.9163 -58.4222 -29.2403   C.3       1 RES1   0.0000
    28 C28    -13.7371 -55.4516 -27.5947   C.ar      1 RES1   0.0000
    29 C29    -13.3711 -55.0351 -26.3081   C.ar      1 RES1   0.0000
    30 N30    -11.6053 -53.4837 -24.7073   N.ar      1 RES1   0.0000
    31 C31    -11.0276 -52.3024 -24.5268   C.ar      1 RES1   0.0000
    32 C32    -10.7127 -51.9173 -23.2227   C.ar      1 RES1   0.0000
    33 Cl33    -9.9395 -50.3416 -22.9540   Cl        1 RES1   0.0000
    34 H1     -14.1086 -56.9777 -31.9910   H         1 RES1   0.0000
    35 H2     -15.4574 -55.8191 -32.0212   H         1 RES1   0.0000
    36 H3     -16.7493 -57.4520 -30.7794   H         1 RES1   0.0000
    37 H4     -13.1007 -58.7721 -27.2793   H         1 RES1   0.0000
    38 H5      -9.7751 -54.0279 -16.5091   H         1 RES1   0.0000
    39 H6     -11.8399 -55.4504 -16.4722   H         1 RES1   0.0000
    40 H7     -15.8190 -58.1494 -28.6956   H         1 RES1   0.0000
    41 H8     -14.4113 -59.2358 -28.7216   H         1 RES1   0.0000
    42 H9     -14.0975 -54.7261 -28.3225   H         1 RES1   0.0000
    43 H10    -13.4538 -53.9844 -26.0341   H         1 RES1   0.0000
    44 H11    -13.3619 -55.4590 -18.4403   H         1 RES1   0.0000
    45 H12    -12.8672 -54.0660 -20.4461   H         1 RES1   0.0000
    46 H13    -12.4414 -58.0242 -24.9977   H         1 RES1   0.0000
    47 H14    -12.6944 -56.2021 -23.2506   H         1 RES1   0.0000
    48 H15    -10.2341 -51.5157 -20.6205   H         1 RES1   0.0000
    49 H16    -15.6422 -58.4448 -33.1394   H         1 RES1   0.0000
    50 H17    -17.1529 -58.9456 -32.3461   H         1 RES1   0.0000
    51 H18    -16.9715 -57.2801 -32.9423   H         1 RES1   0.0000
    52 H19    -14.4030 -59.1818 -31.1702   H         1 RES1   0.0000
    53 H20    -15.9766 -59.7335 -30.5522   H         1 RES1   0.0000
    54 H21    -10.8057 -51.6524 -25.3719   H         1 RES1   0.0000
    55 H22     -8.7887 -48.6630 -17.0684   H         1 RES1   0.0000
    56 H23     -7.4194 -48.1331 -18.0717   H         1 RES1   0.0000
    57 H24     -9.0051 -48.4336 -18.8185   H         1 RES1   0.0000
    58 H25     -7.2322 -50.5431 -17.5072   H         1 RES1   0.0000
    59 H26     -7.4485 -50.3137 -19.2574   H         1 RES1   0.0000
    60 H27    -13.9279 -55.3513 -30.1605   H         1 RES1   0.0000
    61 H28    -15.5351 -55.8348 -29.5726   H         1 RES1   0.0000
@<TRIPOS>BOND
     1     1     2    1
     2     2     3    1
     3     3     4    2
     4     3     5    1
     5     5     6    1
     6     6     7   ar
     7     7     8   ar
     8     8     9   ar
     9     9    10   ar
    10    10    11   ar
    11    11    12    1
    12    12    13    1
    13    13    14   ar
    14    14    15   ar
    15    15    16    1
    16    16    17    1
    17    17    18   ar
    18    18    19   ar
    19    19    20   ar
    20    20    21    1
    21    21    22    1
    22    22    23    1
    23    23    24    1
    24    24    25    1
    25    24    26    1
    26    26    27    1
    27    20    28   ar
    28    28    29   ar
    29    15    30   ar
    30    30    31   ar
    31    31    32   ar
    32    32    33    1
    33    11     6   ar
    34    32    13   ar
    35    29    17   ar
    36    27    21    1
    37    23    34    1
    38    23    35    1
    39    24    36    1
    40    19    37    1
    41     7    38    1
    42     8    39    1
    43    27    40    1
    44    27    41    1
    45    28    42    1
    46    29    43    1
    47     9    44    1
    48    10    45    1
    49    18    46    1
    50    16    47    1
    51    12    48    1
    52    25    49    1
    53    25    50    1
    54    25    51    1
    55    26    52    1
    56    26    53    1
    57    31    54    1
    58     1    55    1
    59     1    56    1
    60     1    57    1
    61     2    58    1
    62     2    59    1
    63    22    60    1
    64    22    61    1
@<TRIPOS>SUBSTRUCTURE
     1 RES1        1 GROUP             0 ****  ****    0  
@<TRIPOS>CRYSIN
    1.0000    1.0000    1.0000   90.0000   90.0000   90.0000     1     1
@<TRIPOS>MOLECULE
ligand_70
    61    64     1     0     0
SMALL
USER_CHARGES
****
Generated from the CSD

@<TRIPOS>ATOM
     1 C1      -8.5833 -48.6055 -18.0428   C.3       1 RES1   0.0000
     2 C2      -8.1041 -50.0442 -18.2294   C.3       1 RES1   0.0000
     3 C3      -9.3286 -50.9622 -18.2300   C.2       1 RES1   0.0000
     4 O4     -10.4345 -50.5684 -18.0332   O.2       1 RES1   0.0000
     5 O5      -9.0551 -52.3291 -18.4804   O.3       1 RES1   0.0000
     6 C6     -10.1830 -53.2132 -18.4689   C.ar      1 RES1   0.0000
     7 C7     -10.9571 -53.3392 -17.3136   C.ar      1 RES1   0.0000
     8 C8     -12.0585 -54.2139 -17.3206   C.ar      1 RES1   0.0000
     9 C9     -12.3526 -54.9448 -18.4843   C.ar      1 RES1   0.0000
    10 C10    -11.5675 -54.8192 -19.6451   C.ar      1 RES1   0.0000
    11 C11    -10.4666 -53.9468 -19.6364   C.ar      1 RES1   0.0000
    12 N12     -9.6047 -53.7710 -20.8454   N.pl3     1 RES1   0.0000
    13 C13     -9.8118 -54.4958 -22.1048   C.ar      1 RES1   0.0000
    14 N14    -10.8126 -55.3759 -22.2206   N.ar      1 RES1   0.0000
    15 C15    -11.0040 -56.0309 -23.3559   C.ar      1 RES1   0.0000
    16 N16    -12.0931 -57.0013 -23.4928   N.pl3     1 RES1   0.0000
    17 C17    -13.0397 -57.3198 -22.4079   C.ar      1 RES1   0.0000
    18 C18    -14.3919 -57.1117 -22.6275   C.ar      1 RES1   0.0000
    19 C19    -15.3214 -57.4118 -21.6221   C.ar      1 RES1   0.0000
    20 C20    -14.8871 -57.9174 -20.4011   C.ar      1 RES1   0.0000
    21 N21    -15.8874 -58.2241 -19.3483   N.pl3     1 RES1   0.0000
    22 C22    -17.1191 -57.4667 -19.1496   C.3       1 RES1   0.0000
    23 C23    -18.2315 -58.3923 -18.7219   C.3       1 RES1   0.0000
    24 N24    -17.8486 -59.1494 -17.4939   N.4       1 RES1   1.0000
    25 C25    -18.8086 -59.9261 -17.1564   C.3       1 RES1   0.0000
    26 C26    -16.5540 -59.8637 -17.6983   C.3       1 RES1   0.0000
    27 C27    -15.4730 -58.9040 -18.1285   C.3       1 RES1   0.0000
    28 C28    -13.5324 -58.1284 -20.1763   C.ar      1 RES1   0.0000
    29 C29    -12.6067 -57.8322 -21.1853   C.ar      1 RES1   0.0000
    30 N30    -10.2409 -55.8410 -24.4025   N.ar      1 RES1   0.0000
    31 C31     -9.2275 -54.9844 -24.3771   C.ar      1 RES1   0.0000
    32 C32     -8.9924 -54.2793 -23.1956   C.ar      1 RES1   0.0000
    33 Cl33    -7.6428 -53.1269 -23.1356   Cl        1 RES1   0.0000
    34 H1      -8.8332 -53.1136 -20.7923   H         1 RES1   0.0000
    35 H2     -11.5448 -58.0028 -21.0142   H         1 RES1   0.0000
    36 H3     -10.7114 -52.7681 -16.4195   H         1 RES1   0.0000
    37 H4     -12.6781 -54.3238 -16.4318   H         1 RES1   0.0000
    38 H5     -17.3958 -56.9773 -20.0822   H         1 RES1   0.0000
    39 H6     -16.9594 -56.7145 -18.3785   H         1 RES1   0.0000
    40 H7     -13.2054 -55.6221 -18.4877   H         1 RES1   0.0000
    41 H8     -11.8103 -55.3913 -20.5393   H         1 RES1   0.0000
    42 H9     -19.0116 -60.6254 -17.9662   H         1 RES1   0.0000
    43 H10    -18.5303 -60.4790 -16.2605   H         1 RES1   0.0000
    44 H11    -19.7006 -59.3346 -16.9555   H         1 RES1   0.0000
    45 H12    -16.6834 -60.6235 -18.4677   H         1 RES1   0.0000
    46 H13    -16.2578 -60.3394 -16.7646   H         1 RES1   0.0000
    47 H14     -8.5975 -54.8359 -25.2529   H         1 RES1   0.0000
    48 H15    -18.4384 -59.0971 -19.5258   H         1 RES1   0.0000
    49 H16    -19.1250 -57.8050 -18.5151   H         1 RES1   0.0000
    50 H17    -17.7163 -58.4774 -16.7448   H         1 RES1   0.0000
    51 H18     -9.1147 -48.5198 -17.0962   H         1 RES1   0.0000
    52 H19     -7.7254 -47.9347 -18.0395   H         1 RES1   0.0000
    53 H20     -9.2513 -48.3365 -18.8597   H         1 RES1   0.0000
    54 H21     -7.4380 -50.3193 -17.4130   H         1 RES1   0.0000
    55 H22     -7.5746 -50.1360 -19.1765   H         1 RES1   0.0000
    56 H23    -15.3052 -58.1695 -17.3422   H         1 RES1   0.0000
    57 H24    -14.5516 -59.4540 -18.3141   H         1 RES1   0.0000
    58 H25    -13.1916 -58.5223 -19.2199   H         1 RES1   0.0000
    59 H26    -14.7329 -56.7145 -23.5824   H         1 RES1   0.0000
    60 H27    -16.3839 -57.2491 -21.7969   H         1 RES1   0.0000
    61 H28    -12.2018 -57.4796 -24.3814   H         1 RES1   0.0000
@<TRIPOS>BOND
     1     1     2    1
     2     2     3    1
     3     3     4    2
     4     3     5    1
     5     5     6    1
     6     6     7   ar
     7     7     8   ar
     8     8     9   ar
     9     9    10   ar
    10    10    11   ar
    11    11    12    1
    12    12    13    1
    13    13    14   ar
    14    14    15   ar
    15    15    16    1
    16    16    17    1
    17    17    18   ar
    18    18    19   ar
    19    19    20   ar
    20    20    21    1
    21    21    22    1
    22    22    23    1
    23    23    24    1
    24    24    25    1
    25    24    26    1
    26    26    27    1
    27    20    28   ar
    28    28    29   ar
    29    15    30   ar
    30    30    31   ar
    31    31    32   ar
    32    32    33    1
    33    11     6   ar
    34    32    13   ar
    35    29    17   ar
    36    27    21    1
    37    12    34    1
    38    29    35    1
    39     7    36    1
    40     8    37    1
    41    22    38    1
    42    22    39    1
    43     9    40    1
    44    10    41    1
    45    25    42    1
    46    25    43    1
    47    25    44    1
    48    26    45    1
    49    26    46    1
    50    31    47    1
    51    23    48    1
    52    23    49    1
    53    24    50    1
    54     1    51    1
    55     1    52    1
    56     1    53    1
    57     2    54    1
    58     2    55    1
    59    27    56    1
    60    27    57    1
    61    28    58    1
    62    18    59    1
    63    19    60    1
    64    16    61    1
@<TRIPOS>SUBSTRUCTURE
     1 RES1        1 GROUP             0 ****  ****    0  
@<TRIPOS>CRYSIN
    1.0000    1.0000    1.0000   90.0000   90.0000   90.0000     1     1
@<TRIPOS>MOLECULE
ligand_71
    61    64     1     0     0
SMALL
USER_CHARGES
****
Generated from the CSD

@<TRIPOS>ATOM
     1 C1      -8.6059 -48.5975 -18.0488   C.3       1 RES1   0.0000
     2 C2      -8.1195 -50.0339 -18.2351   C.3       1 RES1   0.0000
     3 C3      -9.3393 -50.9582 -18.2329   C.2       1 RES1   0.0000
     4 O4     -10.4469 -50.5699 -18.0347   O.2       1 RES1   0.0000
     5 O5      -9.0591 -52.3239 -18.4827   O.3       1 RES1   0.0000
     6 C6     -10.1824 -53.2138 -18.4687   C.ar      1 RES1   0.0000
     7 C7     -10.9543 -53.3426 -17.3121   C.ar      1 RES1   0.0000
     8 C8     -12.0512 -54.2229 -17.3167   C.ar      1 RES1   0.0000
     9 C9     -12.3432 -54.9566 -18.4792   C.ar      1 RES1   0.0000
    10 C10    -11.5604 -54.8281 -19.6413   C.ar      1 RES1   0.0000
    11 C11    -10.4640 -53.9500 -19.6350   C.ar      1 RES1   0.0000
    12 N12     -9.6047 -53.7710 -20.8454   N.pl3     1 RES1   0.0000
    13 C13     -9.8118 -54.4958 -22.1048   C.ar      1 RES1   0.0000
    14 N14    -10.8126 -55.3759 -22.2206   N.ar      1 RES1   0.0000
    15 C15    -11.0040 -56.0309 -23.3559   C.ar      1 RES1   0.0000
    16 N16    -12.0931 -57.0013 -23.4928   N.pl3     1 RES1   0.0000
    17 C17    -13.0425 -57.3165 -22.4093   C.ar      1 RES1   0.0000
    18 C18    -13.8135 -56.2908 -21.8863   C.ar      1 RES1   0.0000
    19 C19    -14.7330 -56.5551 -20.8618   C.ar      1 RES1   0.0000
    20 C20    -14.8712 -57.8479 -20.3672   C.ar      1 RES1   0.0000
    21 N21    -15.8472 -58.1054 -19.2790   N.pl3     1 RES1   0.0000
    22 C22    -16.6271 -59.3331 -19.1578   C.3       1 RES1   0.0000
    23 C23    -16.8023 -59.6925 -17.7028   C.3       1 RES1   0.0000
    24 N24    -17.4306 -58.5668 -16.9506   N.4       1 RES1   1.0000
    25 C25    -17.5648 -58.8988 -15.7216   C.3       1 RES1   0.0000
    26 C26    -16.6525 -57.3073 -17.1413   C.3       1 RES1   0.0000
    27 C27    -16.4976 -56.9883 -18.6072   C.3       1 RES1   0.0000
    28 C28    -14.1010 -58.8798 -20.8888   C.ar      1 RES1   0.0000
    29 C29    -13.1867 -58.6128 -21.9162   C.ar      1 RES1   0.0000
    30 N30    -10.2409 -55.8410 -24.4025   N.ar      1 RES1   0.0000
    31 C31     -9.2275 -54.9844 -24.3771   C.ar      1 RES1   0.0000
    32 C32     -8.9924 -54.2793 -23.1956   C.ar      1 RES1   0.0000
    33 Cl33    -7.6428 -53.1269 -23.1356   Cl        1 RES1   0.0000
    34 H1     -15.6659 -57.4266 -16.6960   H         1 RES1   0.0000
    35 H2     -17.1753 -56.4873 -16.6511   H         1 RES1   0.0000
    36 H3     -17.4790 -56.8206 -19.0483   H         1 RES1   0.0000
    37 H4     -15.8901 -56.0918 -18.7218   H         1 RES1   0.0000
    38 H5     -18.3586 -58.4183 -17.3341   H         1 RES1   0.0000
    39 H6     -16.5868 -59.1192 -15.2962   H         1 RES1   0.0000
    40 H7     -18.0232 -58.0781 -15.1718   H         1 RES1   0.0000
    41 H8     -18.1986 -59.7816 -15.6512   H         1 RES1   0.0000
    42 H9     -12.1998 -57.4821 -24.3803   H         1 RES1   0.0000
    43 H10    -16.1075 -60.1422 -19.6690   H         1 RES1   0.0000
    44 H11    -17.6053 -59.1852 -19.6129   H         1 RES1   0.0000
    45 H12    -15.8276 -59.9115 -17.2693   H         1 RES1   0.0000
    46 H13    -17.4394 -60.5724 -17.6266   H         1 RES1   0.0000
    47 H14    -14.2075 -59.8917 -20.5008   H         1 RES1   0.0000
    48 H15    -12.5862 -59.4209 -22.3314   H         1 RES1   0.0000
    49 H16    -10.7103 -52.7693 -16.4189   H         1 RES1   0.0000
    50 H17    -12.6690 -54.3350 -16.4270   H         1 RES1   0.0000
    51 H18    -15.3393 -55.7481 -20.4530   H         1 RES1   0.0000
    52 H19     -9.1362 -48.5138 -17.1013   H         1 RES1   0.0000
    53 H20     -7.7515 -47.9222 -18.0475   H         1 RES1   0.0000
    54 H21     -9.2766 -48.3327 -18.8648   H         1 RES1   0.0000
    55 H22     -7.4506 -50.3049 -17.4196   H         1 RES1   0.0000
    56 H23     -7.5911 -50.1237 -19.1831   H         1 RES1   0.0000
    57 H24     -8.5975 -54.8359 -25.2529   H         1 RES1   0.0000
    58 H25     -8.8351 -53.1113 -20.7933   H         1 RES1   0.0000
    59 H26    -13.7050 -55.2781 -22.2717   H         1 RES1   0.0000
    60 H27    -13.1924 -55.6383 -18.4806   H         1 RES1   0.0000
    61 H28    -11.8016 -55.4023 -20.5346   H         1 RES1   0.0000
@<TRIPOS>BOND
     1     1     2    1
     2     2     3    1
     3     3     4    2
     4     3     5    1
     5     5     6    1
     6     6     7   ar
     7     7     8   ar
     8     8     9   ar
     9     9    10   ar
    10    10    11   ar
    11    11    12    1
    12    12    13    1
    13    13    14   ar
    14    14    15   ar
    15    15    16    1
    16    16    17    1
    17    17    18   ar
    18    18    19   ar
    19    19    20   ar
    20    20    21    1
    21    21    22    1
    22    22    23    1
    23    23    24    1
    24    24    25    1
    25    24    26    1
    26    26    27    1
    27    20    28   ar
    28    28    29   ar
    29    15    30   ar
    30    30    31   ar
    31    31    32   ar
    32    32    33    1
    33    11     6   ar
    34    32    13   ar
    35    29    17   ar
    36    27    21    1
    37    26    34    1
    38    26    35    1
    39    27    36    1
    40    27    37    1
    41    24    38    1
    42    25    39    1
    43    25    40    1
    44    25    41    1
    45    16    42    1
    46    22    43    1
    47    22    44    1
    48    23    45    1
    49    23    46    1
    50    28    47    1
    51    29    48    1
    52     7    49    1
    53     8    50    1
    54    19    51    1
    55     1    52    1
    56     1    53    1
    57     1    54    1
    58     2    55    1
    59     2    56    1
    60    31    57    1
    61    12    58    1
    62    18    59    1
    63     9    60    1
    64    10    61    1
@<TRIPOS>SUBSTRUCTURE
     1 RES1        1 GROUP             0 ****  ****    0  
@<TRIPOS>CRYSIN
    1.0000    1.0000    1.0000   90.0000   90.0000   90.0000     1     1
@<TRIPOS>MOLECULE
ligand_72
    61    64     1     0     0
SMALL
USER_CHARGES
****
Generated from the CSD

@<TRIPOS>ATOM
     1 C1      -8.8787 -48.5469 -17.7134   C.3       1 RES1   0.0000
     2 C2      -8.3131 -49.9338 -18.0150   C.3       1 RES1   0.0000
     3 C3      -9.4751 -50.9292 -18.0509   C.2       1 RES1   0.0000
     4 O4     -10.5978 -50.6248 -17.7985   O.2       1 RES1   0.0000
     5 O5      -9.1211 -52.2539 -18.4057   O.3       1 RES1   0.0000
     6 C6     -10.1936 -53.2030 -18.4603   C.ar      1 RES1   0.0000
     7 C7     -11.2691 -52.9893 -19.3250   C.ar      1 RES1   0.0000
     8 C8     -12.3135 -53.9305 -19.3627   C.ar      1 RES1   0.0000
     9 C9     -12.2562 -55.0596 -18.5279   C.ar      1 RES1   0.0000
    10 C10    -11.1735 -55.2693 -17.6542   C.ar      1 RES1   0.0000
    11 C11    -10.1318 -54.3276 -17.6161   C.ar      1 RES1   0.0000
    12 N12     -8.9551 -54.5067 -16.7112   N.pl3     1 RES1   0.0000
    13 C13     -8.8233 -55.6141 -15.7570   C.ar      1 RES1   0.0000
    14 N14     -9.8038 -56.5153 -15.6289   N.ar      1 RES1   0.0000
    15 C15     -9.6882 -57.5172 -14.7702   C.ar      1 RES1   0.0000
    16 N16    -10.7576 -58.5069 -14.6171   N.pl3     1 RES1   0.0000
    17 C17    -12.1331 -58.3003 -15.1068   C.ar      1 RES1   0.0000
    18 C18    -12.8687 -59.4069 -15.4993   C.ar      1 RES1   0.0000
    19 C19    -14.1827 -59.2495 -15.9615   C.ar      1 RES1   0.0000
    20 C20    -14.7495 -57.9808 -16.0286   C.ar      1 RES1   0.0000
    21 N21    -16.1406 -57.8356 -16.5254   N.pl3     1 RES1   0.0000
    22 C22    -16.7308 -58.6854 -17.5549   C.3       1 RES1   0.0000
    23 C23    -18.1904 -58.9228 -17.2546   C.3       1 RES1   0.0000
    24 N24    -18.9224 -57.6284 -17.1254   N.4       1 RES1   1.0000
    25 C25    -20.1550 -57.8605 -16.8694   C.3       1 RES1   0.0000
    26 C26    -18.2637 -56.7500 -16.1141   C.3       1 RES1   0.0000
    27 C27    -16.8078 -56.5429 -16.4494   C.3       1 RES1   0.0000
    28 C28    -14.0162 -56.8682 -15.6356   C.ar      1 RES1   0.0000
    29 C29    -12.7050 -57.0300 -15.1693   C.ar      1 RES1   0.0000
    30 N30     -8.6213 -57.6740 -14.0280   N.ar      1 RES1   0.0000
    31 C31     -7.5996 -56.8293 -14.0928   C.ar      1 RES1   0.0000
    32 C32     -7.6880 -55.7582 -14.9834   C.ar      1 RES1   0.0000
    33 Cl33    -6.3345 -54.6137 -15.0895   Cl        1 RES1   0.0000
    34 H1      -7.6066 -50.2204 -17.2374   H         1 RES1   0.0000
    35 H2      -7.8072 -49.9234 -18.9793   H         1 RES1   0.0000
    36 H3     -16.2075 -59.6402 -17.5779   H         1 RES1   0.0000
    37 H4     -16.6369 -58.1965 -18.5235   H         1 RES1   0.0000
    38 H5     -16.7246 -56.0341 -17.4086   H         1 RES1   0.0000
    39 H6     -16.3392 -55.9371 -15.6753   H         1 RES1   0.0000
    40 H7     -14.4587 -55.8746 -15.6898   H         1 RES1   0.0000
    41 H8     -11.1434 -56.1507 -17.0154   H         1 RES1   0.0000
    42 H9      -9.3861 -48.5635 -16.7500   H         1 RES1   0.0000
    43 H10     -8.0664 -47.8222 -17.6834   H         1 RES1   0.0000
    44 H11     -9.5867 -48.2665 -18.4918   H         1 RES1   0.0000
    45 H12    -18.2773 -59.4768 -16.3211   H         1 RES1   0.0000
    46 H13    -18.6315 -59.5032 -18.0636   H         1 RES1   0.0000
    47 H14    -18.8763 -57.1559 -18.0226   H         1 RES1   0.0000
    48 H15     -6.7177 -56.9679 -13.4691   H         1 RES1   0.0000
    49 H16    -14.7599 -60.1205 -16.2681   H         1 RES1   0.0000
    50 H17    -20.2335 -58.4172 -15.9368   H         1 RES1   0.0000
    51 H18    -20.6901 -56.9167 -16.7749   H         1 RES1   0.0000
    52 H19    -20.5900 -58.4450 -17.6787   H         1 RES1   0.0000
    53 H20    -18.3410 -57.2157 -15.1327   H         1 RES1   0.0000
    54 H21    -18.7670 -55.7844 -16.0984   H         1 RES1   0.0000
    55 H22    -12.1302 -56.1603 -14.8544   H         1 RES1   0.0000
    56 H23    -10.5402 -59.3810 -14.1492   H         1 RES1   0.0000
    57 H24    -13.1594 -53.7856 -20.0331   H         1 RES1   0.0000
    58 H25    -13.0662 -55.7869 -18.5579   H         1 RES1   0.0000
    59 H26    -11.2987 -52.1061 -19.9614   H         1 RES1   0.0000
    60 H27    -12.4254 -60.4003 -15.4487   H         1 RES1   0.0000
    61 H28     -8.2054 -53.8242 -16.7595   H         1 RES1   0.0000
@<TRIPOS>BOND
     1     1     2    1
     2     2     3    1
     3     3     4    2
     4     3     5    1
     5     5     6    1
     6     6     7   ar
     7     7     8   ar
     8     8     9   ar
     9     9    10   ar
    10    10    11   ar
    11    11    12    1
    12    12    13    1
    13    13    14   ar
    14    14    15   ar
    15    15    16    1
    16    16    17    1
    17    17    18   ar
    18    18    19   ar
    19    19    20   ar
    20    20    21    1
    21    21    22    1
    22    22    23    1
    23    23    24    1
    24    24    25    1
    25    24    26    1
    26    26    27    1
    27    20    28   ar
    28    28    29   ar
    29    15    30   ar
    30    30    31   ar
    31    31    32   ar
    32    32    33    1
    33    11     6   ar
    34    32    13   ar
    35    29    17   ar
    36    27    21    1
    37     2    34    1
    38     2    35    1
    39    22    36    1
    40    22    37    1
    41    27    38    1
    42    27    39    1
    43    28    40    1
    44    10    41    1
    45     1    42    1
    46     1    43    1
    47     1    44    1
    48    23    45    1
    49    23    46    1
    50    24    47    1
    51    31    48    1
    52    19    49    1
    53    25    50    1
    54    25    51    1
    55    25    52    1
    56    26    53    1
    57    26    54    1
    58    29    55    1
    59    16    56    1
    60     8    57    1
    61     9    58    1
    62     7    59    1
    63    18    60    1
    64    12    61    1
@<TRIPOS>SUBSTRUCTURE
     1 RES1        1 GROUP             0 ****  ****    0  
@<TRIPOS>CRYSIN
    1.0000    1.0000    1.0000   90.0000   90.0000   90.0000     1     1
@<TRIPOS>MOLECULE
ligand_73
    61    64     1     0     0
SMALL
USER_CHARGES
****
Generated from the CSD

@<TRIPOS>ATOM
     1 C1      -9.0778 -48.5166 -17.5041   C.3       1 RES1   0.0000
     2 C2      -8.4711 -49.8731 -17.8593   C.3       1 RES1   0.0000
     3 C3      -9.6011 -50.9036 -17.9201   C.2       1 RES1   0.0000
     4 O4     -10.7304 -50.6446 -17.6474   O.2       1 RES1   0.0000
     5 O5      -9.2085 -52.2030 -18.3245   O.3       1 RES1   0.0000
     6 C6     -10.2507 -53.1836 -18.4035   C.ar      1 RES1   0.0000
     7 C7     -11.3404 -52.9747 -19.2514   C.ar      1 RES1   0.0000
     8 C8     -12.3547 -53.9472 -19.3134   C.ar      1 RES1   0.0000
     9 C9     -12.2537 -55.1021 -18.5191   C.ar      1 RES1   0.0000
    10 C10    -11.1568 -55.3070 -17.6621   C.ar      1 RES1   0.0000
    11 C11    -10.1453 -54.3343 -17.5996   C.ar      1 RES1   0.0000
    12 N12     -8.9551 -54.5067 -16.7112   N.pl3     1 RES1   0.0000
    13 C13     -9.0125 -55.1375 -15.3871   C.ar      1 RES1   0.0000
    14 N14    -10.1791 -55.5694 -14.8950   N.ar      1 RES1   0.0000
    15 C15    -10.2350 -56.1408 -13.7013   C.ar      1 RES1   0.0000
    16 N16    -11.5076 -56.6127 -13.1495   N.pl3     1 RES1   0.0000
    17 C17    -12.7770 -56.5916 -13.8997   C.ar      1 RES1   0.0000
    18 C18    -13.9271 -56.1856 -13.2423   C.ar      1 RES1   0.0000
    19 C19    -15.1501 -56.1444 -13.9261   C.ar      1 RES1   0.0000
    20 C20    -15.2109 -56.5132 -15.2661   C.ar      1 RES1   0.0000
    21 N21    -16.5166 -56.4669 -15.9703   N.3       1 RES1   0.0000
    22 C22    -16.4735 -55.5474 -17.1220   C.3       1 RES1   0.0000
    23 C23    -17.7915 -55.5166 -17.8539   C.3       1 RES1   0.0000
    24 N24    -18.8552 -55.0612 -16.9071   N.4       1 RES1   1.0000
    25 C25    -19.9785 -54.8634 -17.4883   C.3       1 RES1   0.0000
    26 C26    -18.9345 -56.0549 -15.7951   C.3       1 RES1   0.0000
    27 C27    -17.6127 -56.1001 -15.0652   C.3       1 RES1   0.0000
    28 C28    -14.0603 -56.9203 -15.9298   C.ar      1 RES1   0.0000
    29 C29    -12.8389 -56.9553 -15.2445   C.ar      1 RES1   0.0000
    30 N30     -9.1662 -56.3153 -12.9659   N.ar      1 RES1   0.0000
    31 C31     -7.9677 -55.9204 -13.3774   C.ar      1 RES1   0.0000
    32 C32     -7.8708 -55.3098 -14.6288   C.ar      1 RES1   0.0000
    33 Cl33    -6.2787 -54.7724 -15.2028   Cl        1 RES1   0.0000
    34 H1     -14.1076 -57.2109 -16.9782   H         1 RES1   0.0000
    35 H2     -11.9343 -57.2678 -15.7640   H         1 RES1   0.0000
    36 H3     -19.1576 -57.0395 -16.2033   H         1 RES1   0.0000
    37 H4     -19.7220 -55.7622 -15.1022   H         1 RES1   0.0000
    38 H5     -17.4084 -55.1186 -14.6400   H         1 RES1   0.0000
    39 H6     -17.6740 -56.8366 -14.2654   H         1 RES1   0.0000
    40 H7     -15.6950 -55.8765 -17.8087   H         1 RES1   0.0000
    41 H8     -16.2430 -54.5445 -16.7657   H         1 RES1   0.0000
    42 H9     -18.0301 -56.5137 -18.2210   H         1 RES1   0.0000
    43 H10    -17.7283 -54.8261 -18.6936   H         1 RES1   0.0000
    44 H11    -13.8809 -55.8981 -12.1930   H         1 RES1   0.0000
    45 H12    -16.0528 -55.8236 -13.4083   H         1 RES1   0.0000
    46 H13     -9.5750 -48.5832 -16.5375   H         1 RES1   0.0000
    47 H14     -8.2888 -47.7676 -17.4557   H         1 RES1   0.0000
    48 H15     -9.8021 -48.2322 -18.2660   H         1 RES1   0.0000
    49 H16     -7.7482 -50.1638 -17.0985   H         1 RES1   0.0000
    50 H17     -7.9753 -49.8127 -18.8270   H         1 RES1   0.0000
    51 H18    -18.5549 -54.1772 -16.5090   H         1 RES1   0.0000
    52 H19    -20.3161 -55.7898 -17.9505   H         1 RES1   0.0000
    53 H20    -20.7136 -54.5346 -16.7552   H         1 RES1   0.0000
    54 H21    -19.8614 -54.0975 -18.2536   H         1 RES1   0.0000
    55 H22    -13.2110 -53.8064 -19.9713   H         1 RES1   0.0000
    56 H23    -13.0403 -55.8536 -18.5679   H         1 RES1   0.0000
    57 H24    -11.5159 -56.9732 -12.2007   H         1 RES1   0.0000
    58 H25     -8.0572 -54.1686 -17.0423   H         1 RES1   0.0000
    59 H26    -11.4040 -52.0714 -19.8563   H         1 RES1   0.0000
    60 H27     -7.0854 -56.0685 -12.7565   H         1 RES1   0.0000
    61 H28    -11.0928 -56.2086 -17.0547   H         1 RES1   0.0000
@<TRIPOS>BOND
     1     1     2    1
     2     2     3    1
     3     3     4    2
     4     3     5    1
     5     5     6    1
     6     6     7   ar
     7     7     8   ar
     8     8     9   ar
     9     9    10   ar
    10    10    11   ar
    11    11    12    1
    12    12    13    1
    13    13    14   ar
    14    14    15   ar
    15    15    16    1
    16    16    17    1
    17    17    18   ar
    18    18    19   ar
    19    19    20   ar
    20    20    21    1
    21    21    22    1
    22    22    23    1
    23    23    24    1
    24    24    25    1
    25    24    26    1
    26    26    27    1
    27    20    28   ar
    28    28    29   ar
    29    15    30   ar
    30    30    31   ar
    31    31    32   ar
    32    32    33    1
    33    11     6   ar
    34    32    13   ar
    35    29    17   ar
    36    27    21    1
    37    28    34    1
    38    29    35    1
    39    26    36    1
    40    26    37    1
    41    27    38    1
    42    27    39    1
    43    22    40    1
    44    22    41    1
    45    23    42    1
    46    23    43    1
    47    18    44    1
    48    19    45    1
    49     1    46    1
    50     1    47    1
    51     1    48    1
    52     2    49    1
    53     2    50    1
    54    24    51    1
    55    25    52    1
    56    25    53    1
    57    25    54    1
    58     8    55    1
    59     9    56    1
    60    16    57    1
    61    12    58    1
    62     7    59    1
    63    31    60    1
    64    10    61    1
@<TRIPOS>SUBSTRUCTURE
     1 RES1        1 GROUP             0 ****  ****    0  
@<TRIPOS>CRYSIN
    1.0000    1.0000    1.0000   90.0000   90.0000   90.0000     1     1
@<TRIPOS>MOLECULE
ligand_74
    61    64     1     0     0
SMALL
USER_CHARGES
****
Generated from the CSD

@<TRIPOS>ATOM
     1 C1      -9.2466 -48.3821 -18.3134   C.3       1 RES1   0.0000
     2 C2      -8.5953 -49.7600 -18.4211   C.3       1 RES1   0.0000
     3 C3      -9.7003 -50.8182 -18.3803   C.2       1 RES1   0.0000
     4 O4     -10.8479 -50.5513 -18.2110   O.2       1 RES1   0.0000
     5 O5      -9.2611 -52.1531 -18.5566   O.3       1 RES1   0.0000
     6 C6     -10.2743 -53.1653 -18.5049   C.ar      1 RES1   0.0000
     7 C7     -11.0414 -53.3242 -17.3489   C.ar      1 RES1   0.0000
     8 C8     -12.0292 -54.3248 -17.3160   C.ar      1 RES1   0.0000
     9 C9     -12.2192 -55.1450 -18.4413   C.ar      1 RES1   0.0000
    10 C10    -11.4412 -54.9855 -19.6026   C.ar      1 RES1   0.0000
    11 C11    -10.4535 -53.9871 -19.6337   C.ar      1 RES1   0.0000
    12 N12     -9.6047 -53.7710 -20.8454   N.pl3     1 RES1   0.0000
    13 C13    -10.0905 -53.9401 -22.2200   C.ar      1 RES1   0.0000
    14 N14    -11.3657 -54.2733 -22.4492   N.ar      1 RES1   0.0000
    15 C15    -11.8087 -54.4252 -23.6883   C.ar      1 RES1   0.0000
    16 N16    -13.2016 -54.7955 -23.9516   N.pl3     1 RES1   0.0000
    17 C17    -14.1687 -55.1303 -22.8899   C.ar      1 RES1   0.0000
    18 C18    -13.7490 -55.9347 -21.8426   C.ar      1 RES1   0.0000
    19 C19    -14.6384 -56.2662 -20.8110   C.ar      1 RES1   0.0000
    20 C20    -15.9449 -55.7892 -20.8385   C.ar      1 RES1   0.0000
    21 N21    -16.8718 -56.1559 -19.7388   N.3       1 RES1   0.0000
    22 C22    -17.0560 -57.6163 -19.6559   C.3       1 RES1   0.0000
    23 C23    -17.9783 -57.9934 -18.5241   C.3       1 RES1   0.0000
    24 N24    -19.3072 -57.3474 -18.7530   N.4       1 RES1   1.0000
    25 C25    -20.1939 -57.7378 -17.9163   C.3       1 RES1   0.0000
    26 C26    -19.1039 -55.8679 -18.7482   C.3       1 RES1   0.0000
    27 C27    -18.1704 -55.4844 -19.8723   C.3       1 RES1   0.0000
    28 C28    -16.3702 -54.9818 -21.8860   C.ar      1 RES1   0.0000
    29 C29    -15.4770 -54.6484 -22.9126   C.ar      1 RES1   0.0000
    30 N30    -11.0332 -54.2482 -24.7280   N.ar      1 RES1   0.0000
    31 C31     -9.7560 -53.9132 -24.5930   C.ar      1 RES1   0.0000
    32 C32     -9.2526 -53.7489 -23.3015   C.ar      1 RES1   0.0000
    33 Cl33    -7.5472 -53.3006 -23.0935   Cl        1 RES1   0.0000
    34 H1     -19.6221 -57.6118 -19.6810   H         1 RES1   0.0000
    35 H2     -19.8721 -57.4923 -16.9053   H         1 RES1   0.0000
    36 H3     -21.1379 -57.2380 -18.1282   H         1 RES1   0.0000
    37 H4     -20.3260 -58.8152 -18.0036   H         1 RES1   0.0000
    38 H5     -12.7269 -56.3099 -21.8209   H         1 RES1   0.0000
    39 H6     -14.3065 -56.8973 -19.9879   H         1 RES1   0.0000
    40 H7      -9.7959 -48.3125 -17.3757   H         1 RES1   0.0000
    41 H8      -8.4759 -47.6132 -18.3406   H         1 RES1   0.0000
    42 H9      -9.9322 -48.2385 -19.1472   H         1 RES1   0.0000
    43 H10     -7.9108 -49.9100 -17.5875   H         1 RES1   0.0000
    44 H11     -8.0472 -49.8359 -19.3590   H         1 RES1   0.0000
    45 H12    -12.6416 -54.4628 -16.4262   H         1 RES1   0.0000
    46 H13    -12.9841 -55.9197 -18.4138   H         1 RES1   0.0000
    47 H14     -9.1191 -53.7706 -25.4648   H         1 RES1   0.0000
    48 H15    -10.8770 -52.6822 -16.4848   H         1 RES1   0.0000
    49 H16    -11.6027 -55.6281 -20.4668   H         1 RES1   0.0000
    50 H17    -17.3934 -54.6097 -21.9090   H         1 RES1   0.0000
    51 H18    -15.8058 -54.0103 -23.7316   H         1 RES1   0.0000
    52 H19    -16.0871 -58.0866 -19.4946   H         1 RES1   0.0000
    53 H20    -17.4812 -57.9731 -20.5928   H         1 RES1   0.0000
    54 H21    -17.5603 -57.6472 -17.5800   H         1 RES1   0.0000
    55 H22    -18.0973 -59.0754 -18.4934   H         1 RES1   0.0000
    56 H23     -8.6384 -53.4917 -20.7098   H         1 RES1   0.0000
    57 H24    -13.5176 -54.8230 -24.9158   H         1 RES1   0.0000
    58 H25    -18.6702 -55.5641 -17.7966   H         1 RES1   0.0000
    59 H26    -20.0622 -55.3693 -18.8861   H         1 RES1   0.0000
    60 H27    -18.6217 -55.7699 -20.8214   H         1 RES1   0.0000
    61 H28    -18.0162 -54.4065 -19.8534   H         1 RES1   0.0000
@<TRIPOS>BOND
     1     1     2    1
     2     2     3    1
     3     3     4    2
     4     3     5    1
     5     5     6    1
     6     6     7   ar
     7     7     8   ar
     8     8     9   ar
     9     9    10   ar
    10    10    11   ar
    11    11    12    1
    12    12    13    1
    13    13    14   ar
    14    14    15   ar
    15    15    16    1
    16    16    17    1
    17    17    18   ar
    18    18    19   ar
    19    19    20   ar
    20    20    21    1
    21    21    22    1
    22    22    23    1
    23    23    24    1
    24    24    25    1
    25    24    26    1
    26    26    27    1
    27    20    28   ar
    28    28    29   ar
    29    15    30   ar
    30    30    31   ar
    31    31    32   ar
    32    32    33    1
    33    11     6   ar
    34    32    13   ar
    35    29    17   ar
    36    27    21    1
    37    24    34    1
    38    25    35    1
    39    25    36    1
    40    25    37    1
    41    18    38    1
    42    19    39    1
    43     1    40    1
    44     1    41    1
    45     1    42    1
    46     2    43    1
    47     2    44    1
    48     8    45    1
    49     9    46    1
    50    31    47    1
    51     7    48    1
    52    10    49    1
    53    28    50    1
    54    29    51    1
    55    22    52    1
    56    22    53    1
    57    23    54    1
    58    23    55    1
    59    12    56    1
    60    16    57    1
    61    26    58    1
    62    26    59    1
    63    27    60    1
    64    27    61    1
@<TRIPOS>SUBSTRUCTURE
     1 RES1        1 GROUP             0 ****  ****    0  
@<TRIPOS>CRYSIN
    1.0000    1.0000    1.0000   90.0000   90.0000   90.0000     1     1
@<TRIPOS>MOLECULE
ligand_75
    61    64     1     0     0
SMALL
USER_CHARGES
****
Generated from the CSD

@<TRIPOS>ATOM
     1 C1      -8.9316 -48.5432 -17.7002   C.3       1 RES1   0.0000
     2 C2      -8.3611 -49.9260 -18.0116   C.3       1 RES1   0.0000
     3 C3      -9.5173 -50.9285 -18.0349   C.2       1 RES1   0.0000
     4 O4     -10.6386 -50.6316 -17.7680   O.2       1 RES1   0.0000
     5 O5      -9.1595 -52.2503 -18.3967   O.3       1 RES1   0.0000
     6 C6     -10.2265 -53.2062 -18.4390   C.ar      1 RES1   0.0000
     7 C7     -11.3154 -52.9970 -19.2878   C.ar      1 RES1   0.0000
     8 C8     -12.3542 -53.9449 -19.3135   C.ar      1 RES1   0.0000
     9 C9     -12.2779 -55.0759 -18.4828   C.ar      1 RES1   0.0000
    10 C10    -11.1816 -55.2810 -17.6250   C.ar      1 RES1   0.0000
    11 C11    -10.1456 -54.3327 -17.5989   C.ar      1 RES1   0.0000
    12 N12     -8.9551 -54.5067 -16.7112   N.pl3     1 RES1   0.0000
    13 C13     -9.0125 -55.1375 -15.3871   C.ar      1 RES1   0.0000
    14 N14    -10.1791 -55.5694 -14.8950   N.ar      1 RES1   0.0000
    15 C15    -10.2350 -56.1408 -13.7013   C.ar      1 RES1   0.0000
    16 N16    -11.5076 -56.6127 -13.1495   N.pl3     1 RES1   0.0000
    17 C17    -11.6249 -57.3046 -11.8525   C.ar      1 RES1   0.0000
    18 C18    -10.6557 -58.2330 -11.5081   C.ar      1 RES1   0.0000
    19 C19    -10.7300 -58.9035 -10.2793   C.ar      1 RES1   0.0000
    20 C20    -11.7786 -58.6388  -9.4044   C.ar      1 RES1   0.0000
    21 N21    -11.8410 -59.3631  -8.1104   N.3       1 RES1   0.0000
    22 C22    -11.7994 -58.4298  -6.9698   C.3       1 RES1   0.0000
    23 C23    -11.8870 -59.1612  -5.6541   C.3       1 RES1   0.0000
    24 N24    -10.7324 -60.1057  -5.5526   N.4       1 RES1   1.0000
    25 C25    -10.6485 -60.6573  -4.4005   C.3       1 RES1   0.0000
    26 C26    -10.8465 -61.0901  -6.6699   C.3       1 RES1   0.0000
    27 C27    -10.7721 -60.3623  -7.9915   C.3       1 RES1   0.0000
    28 C28    -12.7524 -57.7083  -9.7449   C.ar      1 RES1   0.0000
    29 C29    -12.6721 -57.0364 -10.9716   C.ar      1 RES1   0.0000
    30 N30     -9.1662 -56.3153 -12.9659   N.ar      1 RES1   0.0000
    31 C31     -7.9677 -55.9204 -13.3774   C.ar      1 RES1   0.0000
    32 C32     -7.8708 -55.3098 -14.6288   C.ar      1 RES1   0.0000
    33 Cl33    -6.2787 -54.7724 -15.2028   Cl        1 RES1   0.0000
    34 H1     -11.5594 -61.2195  -4.2000   H         1 RES1   0.0000
    35 H2      -9.7940 -61.3322  -4.3825   H         1 RES1   0.0000
    36 H3     -10.5207 -59.8895  -3.6389   H         1 RES1   0.0000
    37 H4     -11.7987 -61.6135  -6.5968   H         1 RES1   0.0000
    38 H5     -10.0311 -61.8091  -6.6050   H         1 RES1   0.0000
    39 H6     -11.1368 -56.1640 -16.9892   H         1 RES1   0.0000
    40 H7      -8.0569 -54.1697 -17.0428   H         1 RES1   0.0000
    41 H8     -13.2103 -53.8036 -19.9715   H         1 RES1   0.0000
    42 H9     -13.0835 -55.8083 -18.5034   H         1 RES1   0.0000
    43 H10     -9.9666 -59.6318 -10.0095   H         1 RES1   0.0000
    44 H11    -13.4305 -56.3018 -11.2383   H         1 RES1   0.0000
    45 H12     -9.4268 -48.5648 -16.7306   H         1 RES1   0.0000
    46 H13     -8.1235 -47.8135 -17.6789   H         1 RES1   0.0000
    47 H14     -9.6511 -48.2658 -18.4692   H         1 RES1   0.0000
    48 H15     -7.6431 -50.2097 -17.2435   H         1 RES1   0.0000
    49 H16     -7.8674 -49.9107 -18.9821   H         1 RES1   0.0000
    50 H17    -12.8215 -59.7183  -5.6061   H         1 RES1   0.0000
    51 H18    -11.8484 -58.4458  -4.8339   H         1 RES1   0.0000
    52 H19     -9.8829 -59.5701  -5.6999   H         1 RES1   0.0000
    53 H20    -12.3531 -56.4551 -13.6884   H         1 RES1   0.0000
    54 H21     -9.8081 -59.8614  -8.0670   H         1 RES1   0.0000
    55 H22    -10.8701 -61.0847  -8.8005   H         1 RES1   0.0000
    56 H23    -13.5746 -57.5021  -9.0612   H         1 RES1   0.0000
    57 H24     -9.8352 -58.4421 -12.1929   H         1 RES1   0.0000
    58 H25    -12.6376 -57.7389  -7.0471   H         1 RES1   0.0000
    59 H26    -10.8648 -57.8718  -7.0030   H         1 RES1   0.0000
    60 H27     -7.0854 -56.0685 -12.7565   H         1 RES1   0.0000
    61 H28    -11.3597 -52.1122 -19.9211   H         1 RES1   0.0000
@<TRIPOS>BOND
     1     1     2    1
     2     2     3    1
     3     3     4    2
     4     3     5    1
     5     5     6    1
     6     6     7   ar
     7     7     8   ar
     8     8     9   ar
     9     9    10   ar
    10    10    11   ar
    11    11    12    1
    12    12    13    1
    13    13    14   ar
    14    14    15   ar
    15    15    16    1
    16    16    17    1
    17    17    18   ar
    18    18    19   ar
    19    19    20   ar
    20    20    21    1
    21    21    22    1
    22    22    23    1
    23    23    24    1
    24    24    25    1
    25    24    26    1
    26    26    27    1
    27    20    28   ar
    28    28    29   ar
    29    15    30   ar
    30    30    31   ar
    31    31    32   ar
    32    32    33    1
    33    11     6   ar
    34    32    13   ar
    35    29    17   ar
    36    27    21    1
    37    25    34    1
    38    25    35    1
    39    25    36    1
    40    26    37    1
    41    26    38    1
    42    10    39    1
    43    12    40    1
    44     8    41    1
    45     9    42    1
    46    19    43    1
    47    29    44    1
    48     1    45    1
    49     1    46    1
    50     1    47    1
    51     2    48    1
    52     2    49    1
    53    23    50    1
    54    23    51    1
    55    24    52    1
    56    16    53    1
    57    27    54    1
    58    27    55    1
    59    28    56    1
    60    18    57    1
    61    22    58    1
    62    22    59    1
    63    31    60    1
    64     7    61    1
@<TRIPOS>SUBSTRUCTURE
     1 RES1        1 GROUP             0 ****  ****    0  
@<TRIPOS>CRYSIN
    1.0000    1.0000    1.0000   90.0000   90.0000   90.0000     1     1
@<TRIPOS>MOLECULE
ligand_76
    61    64     1     0     0
SMALL
USER_CHARGES
****
Generated from the CSD

@<TRIPOS>ATOM
     1 C1      -8.6375 -48.5861 -18.0060   C.3       1 RES1   0.0000
     2 C2      -8.1443 -50.0150 -18.2283   C.3       1 RES1   0.0000
     3 C3      -9.3558 -50.9501 -18.2075   C.2       1 RES1   0.0000
     4 O4     -10.4607 -50.5748 -17.9728   O.2       1 RES1   0.0000
     5 O5      -9.0710 -52.3091 -18.4865   O.3       1 RES1   0.0000
     6 C6     -10.1882 -53.2066 -18.4703   C.ar      1 RES1   0.0000
     7 C7     -10.8042 -53.5733 -19.6687   C.ar      1 RES1   0.0000
     8 C8     -11.9010 -54.4530 -19.6324   C.ar      1 RES1   0.0000
     9 C9     -12.3565 -54.9384 -18.3947   C.ar      1 RES1   0.0000
    10 C10    -11.7367 -54.5629 -17.1887   C.ar      1 RES1   0.0000
    11 C11    -10.6425 -53.6828 -17.2259   C.ar      1 RES1   0.0000
    12 N12     -9.9437 -53.2583 -15.9741   N.pl3     1 RES1   0.0000
    13 C13    -10.3420 -53.6964 -14.6311   C.ar      1 RES1   0.0000
    14 N14    -11.3823 -54.5222 -14.4712   N.ar      1 RES1   0.0000
    15 C15    -11.7441 -54.9213 -13.2611   C.ar      1 RES1   0.0000
    16 N16    -12.8851 -55.8210 -13.0730   N.pl3     1 RES1   0.0000
    17 C17    -13.6997 -56.3447 -14.1851   C.ar      1 RES1   0.0000
    18 C18    -13.0730 -57.0920 -15.1693   C.ar      1 RES1   0.0000
    19 C19    -13.8172 -57.6136 -16.2366   C.ar      1 RES1   0.0000
    20 C20    -15.1865 -57.3797 -16.3101   C.ar      1 RES1   0.0000
    21 N21    -15.9551 -57.9370 -17.4510   N.pl3     1 RES1   0.0000
    22 C22    -17.2305 -57.3993 -17.9142   C.3       1 RES1   0.0000
    23 C23    -17.3232 -57.5104 -19.4162   C.3       1 RES1   0.0000
    24 N24    -17.1313 -58.9238 -19.8560   N.4       1 RES1   1.0000
    25 C25    -17.2130 -58.9871 -21.1320   C.3       1 RES1   0.0000
    26 C26    -15.8523 -59.4735 -19.3175   C.3       1 RES1   0.0000
    27 C27    -15.7995 -59.3386 -17.8162   C.3       1 RES1   0.0000
    28 C28    -15.8196 -56.6316 -15.3254   C.ar      1 RES1   0.0000
    29 C29    -15.0734 -56.1163 -14.2574   C.ar      1 RES1   0.0000
    30 N30    -11.1030 -54.5402 -12.1853   N.ar      1 RES1   0.0000
    31 C31    -10.0578 -53.7249 -12.2517   C.ar      1 RES1   0.0000
    32 C32     -9.6504 -53.2798 -13.5103   C.ar      1 RES1   0.0000
    33 Cl33    -8.2546 -52.1884 -13.6265   Cl        1 RES1   0.0000
    34 H1     -13.3233 -58.2021 -17.0084   H         1 RES1   0.0000
    35 H2     -12.0008 -57.2744 -15.1136   H         1 RES1   0.0000
    36 H3     -13.1277 -56.0985 -12.1273   H         1 RES1   0.0000
    37 H4      -9.1493 -52.6320 -16.0577   H         1 RES1   0.0000
    38 H5     -10.4404 -53.1835 -20.6182   H         1 RES1   0.0000
    39 H6     -12.3931 -54.7554 -20.5556   H         1 RES1   0.0000
    40 H7     -16.5525 -56.8880 -19.8685   H         1 RES1   0.0000
    41 H8     -18.3043 -57.1659 -19.7398   H         1 RES1   0.0000
    42 H9     -17.8916 -59.4741 -19.4696   H         1 RES1   0.0000
    43 H10    -16.4416 -58.3601 -21.5767   H         1 RES1   0.0000
    44 H11    -17.0731 -60.0180 -21.4540   H         1 RES1   0.0000
    45 H12    -18.1937 -58.6371 -21.4508   H         1 RES1   0.0000
    46 H13    -15.0174 -58.9275 -19.7543   H         1 RES1   0.0000
    47 H14    -15.7765 -60.5267 -19.5839   H         1 RES1   0.0000
    48 H15     -9.1423 -48.5220 -17.0432   H         1 RES1   0.0000
    49 H16     -7.7892 -47.9034 -18.0173   H         1 RES1   0.0000
    50 H17     -9.3326 -48.3145 -18.7991   H         1 RES1   0.0000
    51 H18     -7.4510 -50.2928 -17.4357   H         1 RES1   0.0000
    52 H19     -7.6413 -50.0853 -19.1916   H         1 RES1   0.0000
    53 H20    -13.2063 -55.6189 -18.3685   H         1 RES1   0.0000
    54 H21    -12.1008 -54.9498 -16.2381   H         1 RES1   0.0000
    55 H22     -9.5331 -53.4122 -11.3501   H         1 RES1   0.0000
    56 H23    -16.6039 -59.9218 -17.3704   H         1 RES1   0.0000
    57 H24    -14.8408 -59.7048 -17.4519   H         1 RES1   0.0000
    58 H25    -16.8912 -56.4465 -15.3834   H         1 RES1   0.0000
    59 H26    -17.3067 -56.3522 -17.6248   H         1 RES1   0.0000
    60 H27    -18.0451 -57.9617 -17.4602   H         1 RES1   0.0000
    61 H28    -15.5682 -55.5351 -13.4807   H         1 RES1   0.0000
@<TRIPOS>BOND
     1     1     2    1
     2     2     3    1
     3     3     4    2
     4     3     5    1
     5     5     6    1
     6     6     7   ar
     7     7     8   ar
     8     8     9   ar
     9     9    10   ar
    10    10    11   ar
    11    11    12    1
    12    12    13    1
    13    13    14   ar
    14    14    15   ar
    15    15    16    1
    16    16    17    1
    17    17    18   ar
    18    18    19   ar
    19    19    20   ar
    20    20    21    1
    21    21    22    1
    22    22    23    1
    23    23    24    1
    24    24    25    1
    25    24    26    1
    26    26    27    1
    27    20    28   ar
    28    28    29   ar
    29    15    30   ar
    30    30    31   ar
    31    31    32   ar
    32    32    33    1
    33    11     6   ar
    34    32    13   ar
    35    29    17   ar
    36    27    21    1
    37    19    34    1
    38    18    35    1
    39    16    36    1
    40    12    37    1
    41     7    38    1
    42     8    39    1
    43    23    40    1
    44    23    41    1
    45    24    42    1
    46    25    43    1
    47    25    44    1
    48    25    45    1
    49    26    46    1
    50    26    47    1
    51     1    48    1
    52     1    49    1
    53     1    50    1
    54     2    51    1
    55     2    52    1
    56     9    53    1
    57    10    54    1
    58    31    55    1
    59    27    56    1
    60    27    57    1
    61    28    58    1
    62    22    59    1
    63    22    60    1
    64    29    61    1
@<TRIPOS>SUBSTRUCTURE
     1 RES1        1 GROUP             0 ****  ****    0  
@<TRIPOS>CRYSIN
    1.0000    1.0000    1.0000   90.0000   90.0000   90.0000     1     1
@<TRIPOS>MOLECULE
ligand_77
    61    64     1     0     0
SMALL
USER_CHARGES
****
Generated from the CSD

@<TRIPOS>ATOM
     1 C1      -8.1057 -48.8725 -18.2214   C.3       1 RES1   0.0000
     2 C2      -7.7729 -50.3570 -18.3632   C.3       1 RES1   0.0000
     3 C3      -9.0812 -51.1495 -18.3130   C.2       1 RES1   0.0000
     4 O4     -10.1396 -50.6422 -18.1144   O.2       1 RES1   0.0000
     5 O5      -8.9473 -52.5445 -18.5181   O.3       1 RES1   0.0000
     6 C6     -10.1578 -53.3104 -18.4730   C.ar      1 RES1   0.0000
     7 C7     -10.7996 -53.6686 -19.6604   C.ar      1 RES1   0.0000
     8 C8     -11.9880 -54.4181 -19.5959   C.ar      1 RES1   0.0000
     9 C9     -12.5063 -54.7846 -18.3420   C.ar      1 RES1   0.0000
    10 C10    -11.8597 -54.4177 -17.1475   C.ar      1 RES1   0.0000
    11 C11    -10.6738 -53.6675 -17.2130   C.ar      1 RES1   0.0000
    12 N12     -9.9437 -53.2583 -15.9741   N.pl3     1 RES1   0.0000
    13 C13     -9.8634 -54.0872 -14.7655   C.ar      1 RES1   0.0000
    14 N14    -10.4327 -55.2975 -14.7379   N.ar      1 RES1   0.0000
    15 C15    -10.3611 -56.0494 -13.6497   C.ar      1 RES1   0.0000
    16 N16    -10.9855 -57.3742 -13.6056   N.pl3     1 RES1   0.0000
    17 C17    -11.8163 -57.9183 -14.6956   C.ar      1 RES1   0.0000
    18 C18    -12.7351 -57.0813 -15.3080   C.ar      1 RES1   0.0000
    19 C19    -13.5355 -57.5616 -16.3538   C.ar      1 RES1   0.0000
    20 C20    -13.4097 -58.8808 -16.7770   C.ar      1 RES1   0.0000
    21 N21    -14.2701 -59.3707 -17.8827   N.3       1 RES1   0.0000
    22 C22    -13.8866 -60.7320 -18.2991   C.3       1 RES1   0.0000
    23 C23    -14.7745 -61.2419 -19.4061   C.3       1 RES1   0.0000
    24 N24    -14.6547 -60.3223 -20.5789   N.4       1 RES1   1.0000
    25 C25    -15.2613 -60.7659 -21.6152   C.3       1 RES1   0.0000
    26 C26    -15.1286 -58.9719 -20.1522   C.3       1 RES1   0.0000
    27 C27    -14.2508 -58.4603 -19.0343   C.3       1 RES1   0.0000
    28 C28    -12.4894 -59.7238 -16.1665   C.ar      1 RES1   0.0000
    29 C29    -11.6875 -59.2387 -15.1251   C.ar      1 RES1   0.0000
    30 N30     -9.7307 -55.6524 -12.5733   N.ar      1 RES1   0.0000
    31 C31     -9.1346 -54.4680 -12.5144   C.ar      1 RES1   0.0000
    32 C32     -9.1932 -53.6460 -13.6410   C.ar      1 RES1   0.0000
    33 Cl33    -8.4037 -52.0565 -13.5882   Cl        1 RES1   0.0000
    34 H1     -10.8384 -57.9477 -12.7812   H         1 RES1   0.0000
    35 H2     -12.8356 -56.0489 -14.9764   H         1 RES1   0.0000
    36 H3     -13.9689 -61.4003 -17.4432   H         1 RES1   0.0000
    37 H4     -12.8559 -60.7174 -18.6504   H         1 RES1   0.0000
    38 H5      -8.6147 -54.1468 -11.6130   H         1 RES1   0.0000
    39 H6     -14.2560 -56.9019 -16.8351   H         1 RES1   0.0000
    40 H7     -10.9607 -59.8954 -14.6492   H         1 RES1   0.0000
    41 H8     -13.4270 -55.3643 -18.2940   H         1 RES1   0.0000
    42 H9     -12.2735 -54.7117 -16.1840   H         1 RES1   0.0000
    43 H10    -15.8082 -61.2673 -19.0644   H         1 RES1   0.0000
    44 H11    -14.4625 -62.2449 -19.6935   H         1 RES1   0.0000
    45 H12    -13.6693 -60.2440 -20.8091   H         1 RES1   0.0000
    46 H13     -9.4774 -52.3567 -15.9685   H         1 RES1   0.0000
    47 H14    -10.3857 -53.3717 -20.6229   H         1 RES1   0.0000
    48 H15    -12.5022 -54.7119 -20.5098   H         1 RES1   0.0000
    49 H16    -13.2285 -58.3705 -19.3986   H         1 RES1   0.0000
    50 H17    -14.6112 -57.4821 -18.7194   H         1 RES1   0.0000
    51 H18    -12.3918 -60.7571 -16.4960   H         1 RES1   0.0000
    52 H19    -16.3202 -60.8872 -21.3918   H         1 RES1   0.0000
    53 H20    -15.1419 -60.0599 -22.4357   H         1 RES1   0.0000
    54 H21    -14.8378 -61.7280 -21.8997   H         1 RES1   0.0000
    55 H22    -16.1576 -59.0420 -19.8027   H         1 RES1   0.0000
    56 H23    -15.0779 -58.2859 -20.9965   H         1 RES1   0.0000
    57 H24     -8.6091 -48.7025 -17.2708   H         1 RES1   0.0000
    58 H25     -7.1864 -48.2896 -18.2547   H         1 RES1   0.0000
    59 H26     -8.7588 -48.5673 -19.0377   H         1 RES1   0.0000
    60 H27     -7.1223 -50.6681 -17.5472   H         1 RES1   0.0000
    61 H28     -7.2720 -50.5329 -19.3140   H         1 RES1   0.0000
@<TRIPOS>BOND
     1     1     2    1
     2     2     3    1
     3     3     4    2
     4     3     5    1
     5     5     6    1
     6     6     7   ar
     7     7     8   ar
     8     8     9   ar
     9     9    10   ar
    10    10    11   ar
    11    11    12    1
    12    12    13    1
    13    13    14   ar
    14    14    15   ar
    15    15    16    1
    16    16    17    1
    17    17    18   ar
    18    18    19   ar
    19    19    20   ar
    20    20    21    1
    21    21    22    1
    22    22    23    1
    23    23    24    1
    24    24    25    1
    25    24    26    1
    26    26    27    1
    27    20    28   ar
    28    28    29   ar
    29    15    30   ar
    30    30    31   ar
    31    31    32   ar
    32    32    33    1
    33    11     6   ar
    34    32    13   ar
    35    29    17   ar
    36    27    21    1
    37    16    34    1
    38    18    35    1
    39    22    36    1
    40    22    37    1
    41    31    38    1
    42    19    39    1
    43    29    40    1
    44     9    41    1
    45    10    42    1
    46    23    43    1
    47    23    44    1
    48    24    45    1
    49    12    46    1
    50     7    47    1
    51     8    48    1
    52    27    49    1
    53    27    50    1
    54    28    51    1
    55    25    52    1
    56    25    53    1
    57    25    54    1
    58    26    55    1
    59    26    56    1
    60     1    57    1
    61     1    58    1
    62     1    59    1
    63     2    60    1
    64     2    61    1
@<TRIPOS>SUBSTRUCTURE
     1 RES1        1 GROUP             0 ****  ****    0  
@<TRIPOS>CRYSIN
    1.0000    1.0000    1.0000   90.0000   90.0000   90.0000     1     1
@<TRIPOS>MOLECULE
ligand_78
    61    64     1     0     0
SMALL
USER_CHARGES
****
Generated from the CSD

@<TRIPOS>ATOM
     1 C1      -8.6280 -48.5909 -18.0109   C.3       1 RES1   0.0000
     2 C2      -8.1370 -50.0209 -18.2309   C.3       1 RES1   0.0000
     3 C3      -9.3500 -50.9539 -18.2099   C.2       1 RES1   0.0000
     4 O4     -10.4546 -50.5765 -17.9768   O.2       1 RES1   0.0000
     5 O5      -9.0672 -52.3138 -18.4869   O.3       1 RES1   0.0000
     6 C6     -10.1859 -53.2094 -18.4705   C.ar      1 RES1   0.0000
     7 C7     -10.8015 -53.5766 -19.6690   C.ar      1 RES1   0.0000
     8 C8     -11.8997 -54.4545 -19.6326   C.ar      1 RES1   0.0000
     9 C9     -12.3571 -54.9376 -18.3947   C.ar      1 RES1   0.0000
    10 C10    -11.7378 -54.5615 -17.1886   C.ar      1 RES1   0.0000
    11 C11    -10.6421 -53.6833 -17.2260   C.ar      1 RES1   0.0000
    12 N12     -9.9437 -53.2583 -15.9741   N.pl3     1 RES1   0.0000
    13 C13     -8.6293 -53.7660 -15.5631   C.ar      1 RES1   0.0000
    14 N14     -7.9840 -54.6603 -16.3204   N.ar      1 RES1   0.0000
    15 C15     -6.7969 -55.1198 -15.9539   C.ar      1 RES1   0.0000
    16 N16     -6.0832 -56.1035 -16.7721   N.pl3     1 RES1   0.0000
    17 C17     -4.7356 -56.6070 -16.4476   C.ar      1 RES1   0.0000
    18 C18     -4.4298 -57.9233 -16.7538   C.ar      1 RES1   0.0000
    19 C19     -3.1559 -58.4335 -16.4679   C.ar      1 RES1   0.0000
    20 C20     -2.1971 -57.6190 -15.8743   C.ar      1 RES1   0.0000
    21 N21     -0.8559 -58.1804 -15.5757   N.pl3     1 RES1   0.0000
    22 C22      0.3855 -57.4185 -15.6698   C.3       1 RES1   0.0000
    23 C23      1.3401 -57.8499 -14.5838   C.3       1 RES1   0.0000
    24 N24      1.5917 -59.3196 -14.6522   N.4       1 RES1   1.0000
    25 C25      2.4018 -59.6563 -13.7199   C.3       1 RES1   0.0000
    26 C26      0.3052 -60.0758 -14.6195   C.3       1 RES1   0.0000
    27 C27     -0.6193 -59.6108 -15.7167   C.3       1 RES1   0.0000
    28 C28     -2.4987 -56.2984 -15.5660   C.ar      1 RES1   0.0000
    29 C29     -3.7713 -55.7904 -15.8578   C.ar      1 RES1   0.0000
    30 N30     -6.2066 -54.7175 -14.8569   N.ar      1 RES1   0.0000
    31 C31     -6.7731 -53.8303 -14.0485   C.ar      1 RES1   0.0000
    32 C32     -8.0267 -53.3272 -14.4001   C.ar      1 RES1   0.0000
    33 Cl33    -8.8062 -52.1388 -13.3357   Cl        1 RES1   0.0000
    34 H1      -5.1801 -58.5623 -17.2172   H         1 RES1   0.0000
    35 H2      -2.9167 -59.4678 -16.7106   H         1 RES1   0.0000
    36 H3      -6.2742 -53.5042 -13.1371   H         1 RES1   0.0000
    37 H4     -10.4043 -52.5808 -15.3749   H         1 RES1   0.0000
    38 H5      -6.5404 -56.4572 -17.6064   H         1 RES1   0.0000
    39 H6      -9.1335 -48.5247 -17.0486   H         1 RES1   0.0000
    40 H7      -7.7785 -47.9096 -18.0223   H         1 RES1   0.0000
    41 H8      -9.3220 -48.3192 -18.8049   H         1 RES1   0.0000
    42 H9     -12.3914 -54.7573 -20.5559   H         1 RES1   0.0000
    43 H10    -13.2080 -55.6167 -18.3684   H         1 RES1   0.0000
    44 H11    -12.1034 -54.9465 -16.2378   H         1 RES1   0.0000
    45 H12     -0.1770 -59.9179 -13.6559   H         1 RES1   0.0000
    46 H13      0.5116 -61.1367 -14.7526   H         1 RES1   0.0000
    47 H14     -0.1629 -59.8099 -16.6852   H         1 RES1   0.0000
    48 H15     -1.5658 -60.1445 -15.6449   H         1 RES1   0.0000
    49 H16     -1.7491 -55.6608 -15.0995   H         1 RES1   0.0000
    50 H17     -4.0084 -54.7538 -15.6231   H         1 RES1   0.0000
    51 H18      0.1668 -56.3577 -15.5571   H         1 RES1   0.0000
    52 H19      0.8431 -57.5935 -16.6424   H         1 RES1   0.0000
    53 H20      0.9105 -57.6060 -13.6133   H         1 RES1   0.0000
    54 H21      2.2836 -57.3201 -14.7066   H         1 RES1   0.0000
    55 H22    -10.4363 -53.1885 -20.6187   H         1 RES1   0.0000
    56 H23     -7.4449 -50.2988 -17.4374   H         1 RES1   0.0000
    57 H24     -7.6333 -50.0933 -19.1937   H         1 RES1   0.0000
    58 H25      2.0431 -59.5152 -15.5400   H         1 RES1   0.0000
    59 H26      1.9668 -59.4065 -12.7533   H         1 RES1   0.0000
    60 H27      2.5861 -60.7285 -13.7688   H         1 RES1   0.0000
    61 H28      3.3416 -59.1204 -13.8445   H         1 RES1   0.0000
@<TRIPOS>BOND
     1     1     2    1
     2     2     3    1
     3     3     4    2
     4     3     5    1
     5     5     6    1
     6     6     7   ar
     7     7     8   ar
     8     8     9   ar
     9     9    10   ar
    10    10    11   ar
    11    11    12    1
    12    12    13    1
    13    13    14   ar
    14    14    15   ar
    15    15    16    1
    16    16    17    1
    17    17    18   ar
    18    18    19   ar
    19    19    20   ar
    20    20    21    1
    21    21    22    1
    22    22    23    1
    23    23    24    1
    24    24    25    1
    25    24    26    1
    26    26    27    1
    27    20    28   ar
    28    28    29   ar
    29    15    30   ar
    30    30    31   ar
    31    31    32   ar
    32    32    33    1
    33    11     6   ar
    34    32    13   ar
    35    29    17   ar
    36    27    21    1
    37    18    34    1
    38    19    35    1
    39    31    36    1
    40    12    37    1
    41    16    38    1
    42     1    39    1
    43     1    40    1
    44     1    41    1
    45     8    42    1
    46     9    43    1
    47    10    44    1
    48    26    45    1
    49    26    46    1
    50    27    47    1
    51    27    48    1
    52    28    49    1
    53    29    50    1
    54    22    51    1
    55    22    52    1
    56    23    53    1
    57    23    54    1
    58     7    55    1
    59     2    56    1
    60     2    57    1
    61    24    58    1
    62    25    59    1
    63    25    60    1
    64    25    61    1
@<TRIPOS>SUBSTRUCTURE
     1 RES1        1 GROUP             0 ****  ****    0  
@<TRIPOS>CRYSIN
    1.0000    1.0000    1.0000   90.0000   90.0000   90.0000     1     1
@<TRIPOS>MOLECULE
ligand_79
    61    64     1     0     0
SMALL
USER_CHARGES
****
Generated from the CSD

@<TRIPOS>ATOM
     1 C1      -8.6279 -48.5911 -18.0109   C.3       1 RES1   0.0000
     2 C2      -8.1370 -50.0211 -18.2309   C.3       1 RES1   0.0000
     3 C3      -9.3500 -50.9541 -18.2100   C.2       1 RES1   0.0000
     4 O4     -10.4545 -50.5766 -17.9768   O.2       1 RES1   0.0000
     5 O5      -9.0673 -52.3140 -18.4869   O.3       1 RES1   0.0000
     6 C6     -10.1860 -53.2095 -18.4705   C.ar      1 RES1   0.0000
     7 C7     -10.4283 -54.0005 -17.3455   C.ar      1 RES1   0.0000
     8 C8     -11.5296 -54.8753 -17.3491   C.ar      1 RES1   0.0000
     9 C9     -12.3570 -54.9395 -18.4832   C.ar      1 RES1   0.0000
    10 C10    -12.1070 -54.1448 -19.6171   C.ar      1 RES1   0.0000
    11 C11    -11.0058 -53.2728 -19.6131   C.ar      1 RES1   0.0000
    12 N12    -10.7002 -52.4015 -20.7891   N.pl3     1 RES1   0.0000
    13 C13     -9.5834 -52.6408 -21.7109   C.ar      1 RES1   0.0000
    14 N14     -8.7677 -53.6850 -21.5265   N.ar      1 RES1   0.0000
    15 C15     -7.7596 -53.9055 -22.3570   C.ar      1 RES1   0.0000
    16 N16     -6.8563 -55.0425 -22.1621   N.pl3     1 RES1   0.0000
    17 C17     -5.7546 -55.3733 -23.0848   C.ar      1 RES1   0.0000
    18 C18     -4.5899 -55.9091 -22.5591   C.ar      1 RES1   0.0000
    19 C19     -3.5252 -56.2441 -23.4072   C.ar      1 RES1   0.0000
    20 C20     -3.6359 -56.0371 -24.7783   C.ar      1 RES1   0.0000
    21 N21     -2.4951 -56.3943 -25.6580   N.pl3     1 RES1   0.0000
    22 C22     -2.6437 -56.9314 -27.0070   C.3       1 RES1   0.0000
    23 C23     -1.5460 -56.4030 -27.8974   C.3       1 RES1   0.0000
    24 N24     -0.2031 -56.7170 -27.3265   N.4       1 RES1   1.0000
    25 C25      0.7065 -56.2560 -28.1004   C.3       1 RES1   0.0000
    26 C26     -0.0967 -56.2153 -25.9247   C.3       1 RES1   0.0000
    27 C27     -1.2136 -56.7633 -25.0719   C.3       1 RES1   0.0000
    28 C28     -4.8019 -55.5008 -25.3103   C.ar      1 RES1   0.0000
    29 C29     -5.8659 -55.1720 -24.4602   C.ar      1 RES1   0.0000
    30 N30     -7.5267 -53.1298 -23.3854   N.ar      1 RES1   0.0000
    31 C31     -8.2875 -52.0738 -23.6455   C.ar      1 RES1   0.0000
    32 C32     -9.3568 -51.8073 -22.7889   C.ar      1 RES1   0.0000
    33 Cl33   -10.3902 -50.4006 -23.1149   Cl        1 RES1   0.0000
    34 H1      -9.7736 -53.9408 -16.4774   H         1 RES1   0.0000
    35 H2     -11.7394 -55.4976 -16.4804   H         1 RES1   0.0000
    36 H3      -4.8884 -55.3367 -26.3834   H         1 RES1   0.0000
    37 H4      -6.7835 -54.7576 -24.8752   H         1 RES1   0.0000
    38 H5      -4.5015 -56.0702 -21.4857   H         1 RES1   0.0000
    39 H6      -2.6111 -56.6665 -22.9925   H         1 RES1   0.0000
    40 H7      -3.6101 -56.6320 -27.4098   H         1 RES1   0.0000
    41 H8      -2.5866 -58.0183 -26.9706   H         1 RES1   0.0000
    42 H9      -1.6507 -55.3231 -27.9906   H         1 RES1   0.0000
    43 H10     -1.6320 -56.8623 -28.8811   H         1 RES1   0.0000
    44 H11     -8.0833 -51.4337 -24.5026   H         1 RES1   0.0000
    45 H12     -0.1524 -55.1277 -25.9298   H         1 RES1   0.0000
    46 H13      0.8585 -56.5278 -25.5055   H         1 RES1   0.0000
    47 H14     -1.1351 -57.8484 -25.0236   H         1 RES1   0.0000
    48 H15     -1.1406 -56.3490 -24.0674   H         1 RES1   0.0000
    49 H16     -0.1058 -57.7270 -27.3019   H         1 RES1   0.0000
    50 H17      0.5933 -55.1767 -28.1910   H         1 RES1   0.0000
    51 H18      1.6868 -56.4845 -27.6848   H         1 RES1   0.0000
    52 H19      0.6132 -56.7146 -29.0837   H         1 RES1   0.0000
    53 H20    -11.2986 -51.5996 -20.9595   H         1 RES1   0.0000
    54 H21    -13.2088 -55.6180 -18.4845   H         1 RES1   0.0000
    55 H22     -6.9962 -55.6337 -21.3490   H         1 RES1   0.0000
    56 H23     -9.1334 -48.5249 -17.0486   H         1 RES1   0.0000
    57 H24     -7.7784 -47.9099 -18.0223   H         1 RES1   0.0000
    58 H25     -9.3218 -48.3193 -18.8050   H         1 RES1   0.0000
    59 H26     -7.4449 -50.2990 -17.4374   H         1 RES1   0.0000
    60 H27     -7.6333 -50.0935 -19.1937   H         1 RES1   0.0000
    61 H28    -12.7592 -54.2050 -20.4871   H         1 RES1   0.0000
@<TRIPOS>BOND
     1     1     2    1
     2     2     3    1
     3     3     4    2
     4     3     5    1
     5     5     6    1
     6     6     7   ar
     7     7     8   ar
     8     8     9   ar
     9     9    10   ar
    10    10    11   ar
    11    11    12    1
    12    12    13    1
    13    13    14   ar
    14    14    15   ar
    15    15    16    1
    16    16    17    1
    17    17    18   ar
    18    18    19   ar
    19    19    20   ar
    20    20    21    1
    21    21    22    1
    22    22    23    1
    23    23    24    1
    24    24    25    1
    25    24    26    1
    26    26    27    1
    27    20    28   ar
    28    28    29   ar
    29    15    30   ar
    30    30    31   ar
    31    31    32   ar
    32    32    33    1
    33    11     6   ar
    34    32    13   ar
    35    29    17   ar
    36    27    21    1
    37     7    34    1
    38     8    35    1
    39    28    36    1
    40    29    37    1
    41    18    38    1
    42    19    39    1
    43    22    40    1
    44    22    41    1
    45    23    42    1
    46    23    43    1
    47    31    44    1
    48    26    45    1
    49    26    46    1
    50    27    47    1
    51    27    48    1
    52    24    49    1
    53    25    50    1
    54    25    51    1
    55    25    52    1
    56    12    53    1
    57     9    54    1
    58    16    55    1
    59     1    56    1
    60     1    57    1
    61     1    58    1
    62     2    59    1
    63     2    60    1
    64    10    61    1
@<TRIPOS>SUBSTRUCTURE
     1 RES1        1 GROUP             0 ****  ****    0  
@<TRIPOS>CRYSIN
    1.0000    1.0000    1.0000   90.0000   90.0000   90.0000     1     1
@<TRIPOS>MOLECULE
ligand_80
    61    64     1     0     0
SMALL
USER_CHARGES
****
Generated from the CSD

@<TRIPOS>ATOM
     1 C1      -8.6280 -48.5909 -18.0109   C.3       1 RES1   0.0000
     2 C2      -8.1370 -50.0209 -18.2309   C.3       1 RES1   0.0000
     3 C3      -9.3500 -50.9539 -18.2099   C.2       1 RES1   0.0000
     4 O4     -10.4546 -50.5765 -17.9768   O.2       1 RES1   0.0000
     5 O5      -9.0672 -52.3138 -18.4869   O.3       1 RES1   0.0000
     6 C6     -10.1859 -53.2094 -18.4705   C.ar      1 RES1   0.0000
     7 C7     -10.8015 -53.5766 -19.6690   C.ar      1 RES1   0.0000
     8 C8     -11.8997 -54.4545 -19.6326   C.ar      1 RES1   0.0000
     9 C9     -12.3571 -54.9376 -18.3946   C.ar      1 RES1   0.0000
    10 C10    -11.7378 -54.5615 -17.1886   C.ar      1 RES1   0.0000
    11 C11    -10.6421 -53.6833 -17.2260   C.ar      1 RES1   0.0000
    12 N12     -9.9437 -53.2583 -15.9741   N.pl3     1 RES1   0.0000
    13 C13     -8.6293 -53.7660 -15.5631   C.ar      1 RES1   0.0000
    14 N14     -7.9840 -54.6603 -16.3204   N.ar      1 RES1   0.0000
    15 C15     -6.7969 -55.1198 -15.9539   C.ar      1 RES1   0.0000
    16 N16     -6.0832 -56.1035 -16.7721   N.pl3     1 RES1   0.0000
    17 C17     -4.8009 -56.7143 -16.3755   C.ar      1 RES1   0.0000
    18 C18     -4.5915 -57.0019 -15.0363   C.ar      1 RES1   0.0000
    19 C19     -3.3882 -57.5909 -14.6238   C.ar      1 RES1   0.0000
    20 C20     -2.4014 -57.8859 -15.5589   C.ar      1 RES1   0.0000
    21 N21     -1.1328 -58.5052 -15.1005   N.pl3     1 RES1   0.0000
    22 C22     -0.3808 -59.4891 -15.8731   C.3       1 RES1   0.0000
    23 C23      1.1001 -59.2853 -15.6673   C.3       1 RES1   0.0000
    24 N24      1.4470 -59.3451 -14.2168   N.4       1 RES1   1.0000
    25 C25      2.7065 -59.1675 -14.0729   C.3       1 RES1   0.0000
    26 C26      0.6205 -58.3766 -13.4377   C.3       1 RES1   0.0000
    27 C27     -0.8502 -58.6125 -13.6755   C.3       1 RES1   0.0000
    28 C28     -2.6069 -57.6001 -16.9028   C.ar      1 RES1   0.0000
    29 C29     -3.8128 -57.0161 -17.3120   C.ar      1 RES1   0.0000
    30 N30     -6.2066 -54.7175 -14.8569   N.ar      1 RES1   0.0000
    31 C31     -6.7731 -53.8303 -14.0485   C.ar      1 RES1   0.0000
    32 C32     -8.0267 -53.3272 -14.4001   C.ar      1 RES1   0.0000
    33 Cl33    -8.8062 -52.1388 -13.3357   Cl        1 RES1   0.0000
    34 H1     -10.4043 -52.5808 -15.3749   H         1 RES1   0.0000
    35 H2       2.9838 -58.1934 -14.4731   H         1 RES1   0.0000
    36 H3       2.9607 -59.2109 -13.0149   H         1 RES1   0.0000
    37 H4       3.2465 -59.9470 -14.6083   H         1 RES1   0.0000
    38 H5       0.8736 -57.3631 -13.7455   H         1 RES1   0.0000
    39 H6       0.8343 -58.4978 -12.3768   H         1 RES1   0.0000
    40 H7      -1.1199 -59.6078 -13.3255   H         1 RES1   0.0000
    41 H8      -1.4302 -57.8674 -13.1329   H         1 RES1   0.0000
    42 H9      -1.8340 -57.8290 -17.6350   H         1 RES1   0.0000
    43 H10     -0.6170 -59.3746 -16.9300   H         1 RES1   0.0000
    44 H11     -0.6557 -60.4908 -15.5461   H         1 RES1   0.0000
    45 H12     -3.9792 -56.7970 -18.3657   H         1 RES1   0.0000
    46 H13     -5.3628 -56.7700 -14.3033   H         1 RES1   0.0000
    47 H14     -9.1335 -48.5247 -17.0486   H         1 RES1   0.0000
    48 H15     -7.7785 -47.9096 -18.0223   H         1 RES1   0.0000
    49 H16     -9.3220 -48.3192 -18.8049   H         1 RES1   0.0000
    50 H17     -7.4449 -50.2988 -17.4374   H         1 RES1   0.0000
    51 H18     -7.6333 -50.0933 -19.1937   H         1 RES1   0.0000
    52 H19    -13.2080 -55.6167 -18.3683   H         1 RES1   0.0000
    53 H20    -12.1034 -54.9465 -16.2378   H         1 RES1   0.0000
    54 H21      1.3847 -58.3113 -16.0626   H         1 RES1   0.0000
    55 H22      1.6448 -60.0654 -16.1971   H         1 RES1   0.0000
    56 H23      1.2261 -60.2782 -13.8840   H         1 RES1   0.0000
    57 H24     -6.2742 -53.5042 -13.1371   H         1 RES1   0.0000
    58 H25     -6.4930 -56.3792 -17.6588   H         1 RES1   0.0000
    59 H26    -10.4363 -53.1885 -20.6187   H         1 RES1   0.0000
    60 H27    -12.3914 -54.7574 -20.5558   H         1 RES1   0.0000
    61 H28     -3.2259 -57.8176 -13.5711   H         1 RES1   0.0000
@<TRIPOS>BOND
     1     1     2    1
     2     2     3    1
     3     3     4    2
     4     3     5    1
     5     5     6    1
     6     6     7   ar
     7     7     8   ar
     8     8     9   ar
     9     9    10   ar
    10    10    11   ar
    11    11    12    1
    12    12    13    1
    13    13    14   ar
    14    14    15   ar
    15    15    16    1
    16    16    17    1
    17    17    18   ar
    18    18    19   ar
    19    19    20   ar
    20    20    21    1
    21    21    22    1
    22    22    23    1
    23    23    24    1
    24    24    25    1
    25    24    26    1
    26    26    27    1
    27    20    28   ar
    28    28    29   ar
    29    15    30   ar
    30    30    31   ar
    31    31    32   ar
    32    32    33    1
    33    11     6   ar
    34    32    13   ar
    35    29    17   ar
    36    27    21    1
    37    12    34    1
    38    25    35    1
    39    25    36    1
    40    25    37    1
    41    26    38    1
    42    26    39    1
    43    27    40    1
    44    27    41    1
    45    28    42    1
    46    22    43    1
    47    22    44    1
    48    29    45    1
    49    18    46    1
    50     1    47    1
    51     1    48    1
    52     1    49    1
    53     2    50    1
    54     2    51    1
    55     9    52    1
    56    10    53    1
    57    23    54    1
    58    23    55    1
    59    24    56    1
    60    31    57    1
    61    16    58    1
    62     7    59    1
    63     8    60    1
    64    19    61    1
@<TRIPOS>SUBSTRUCTURE
     1 RES1        1 GROUP             0 ****  ****    0  
@<TRIPOS>CRYSIN
    1.0000    1.0000    1.0000   90.0000   90.0000   90.0000     1     1
@<TRIPOS>MOLECULE
ligand_81
    61    64     1     0     0
SMALL
USER_CHARGES
****
Generated from the CSD

@<TRIPOS>ATOM
     1 C1      -8.6279 -48.5911 -18.0109   C.3       1 RES1   0.0000
     2 C2      -8.1370 -50.0211 -18.2309   C.3       1 RES1   0.0000
     3 C3      -9.3500 -50.9541 -18.2100   C.2       1 RES1   0.0000
     4 O4     -10.4545 -50.5766 -17.9768   O.2       1 RES1   0.0000
     5 O5      -9.0673 -52.3140 -18.4869   O.3       1 RES1   0.0000
     6 C6     -10.1860 -53.2095 -18.4705   C.ar      1 RES1   0.0000
     7 C7     -10.4283 -54.0005 -17.3455   C.ar      1 RES1   0.0000
     8 C8     -11.5296 -54.8753 -17.3491   C.ar      1 RES1   0.0000
     9 C9     -12.3570 -54.9395 -18.4832   C.ar      1 RES1   0.0000
    10 C10    -12.1070 -54.1448 -19.6171   C.ar      1 RES1   0.0000
    11 C11    -11.0058 -53.2728 -19.6131   C.ar      1 RES1   0.0000
    12 N12    -10.7002 -52.4015 -20.7891   N.pl3     1 RES1   0.0000
    13 C13     -9.5834 -52.6408 -21.7109   C.ar      1 RES1   0.0000
    14 N14     -8.7677 -53.6850 -21.5265   N.ar      1 RES1   0.0000
    15 C15     -7.7596 -53.9055 -22.3570   C.ar      1 RES1   0.0000
    16 N16     -6.8563 -55.0425 -22.1621   N.pl3     1 RES1   0.0000
    17 C17     -5.6694 -55.2913 -23.0012   C.ar      1 RES1   0.0000
    18 C18     -4.9380 -54.2040 -23.4515   C.ar      1 RES1   0.0000
    19 C19     -3.7987 -54.4029 -24.2436   C.ar      1 RES1   0.0000
    20 C20     -3.4018 -55.6929 -24.5804   C.ar      1 RES1   0.0000
    21 N21     -2.1952 -55.8812 -25.4239   N.pl3     1 RES1   0.0000
    22 C22     -1.2620 -56.9934 -25.2741   C.3       1 RES1   0.0000
    23 C23     -0.7426 -57.4178 -26.6259   C.3       1 RES1   0.0000
    24 N24     -0.1142 -56.2662 -27.3378   N.4       1 RES1   1.0000
    25 C25      0.3146 -56.6548 -28.4796   C.3       1 RES1   0.0000
    26 C26     -1.0642 -55.1180 -27.4224   C.3       1 RES1   0.0000
    27 C27     -1.5612 -54.7299 -26.0522   C.3       1 RES1   0.0000
    28 C28     -4.1314 -56.7863 -24.1307   C.ar      1 RES1   0.0000
    29 C29     -5.2666 -56.5839 -23.3350   C.ar      1 RES1   0.0000
    30 N30     -7.5267 -53.1298 -23.3854   N.ar      1 RES1   0.0000
    31 C31     -8.2875 -52.0738 -23.6455   C.ar      1 RES1   0.0000
    32 C32     -9.3568 -51.8073 -22.7889   C.ar      1 RES1   0.0000
    33 Cl33   -10.3902 -50.4006 -23.1149   Cl        1 RES1   0.0000
    34 H1      -0.7224 -54.3988 -25.4417   H         1 RES1   0.0000
    35 H2      -2.2850 -53.9214 -26.1437   H         1 RES1   0.0000
    36 H3      -3.8222 -57.7963 -24.3956   H         1 RES1   0.0000
    37 H4      -9.7736 -53.9408 -16.4774   H         1 RES1   0.0000
    38 H5     -11.7394 -55.4976 -16.4804   H         1 RES1   0.0000
    39 H6      -1.5701 -57.7981 -27.2230   H         1 RES1   0.0000
    40 H7      -0.0001 -58.2032 -26.4926   H         1 RES1   0.0000
    41 H8       0.6872 -55.9652 -26.7924   H         1 RES1   0.0000
    42 H9     -11.2986 -51.5996 -20.9595   H         1 RES1   0.0000
    43 H10     -0.5176 -57.0364 -29.0692   H         1 RES1   0.0000
    44 H11      0.7733 -55.8153 -29.0000   H         1 RES1   0.0000
    45 H12      1.0529 -57.4432 -28.3410   H         1 RES1   0.0000
    46 H13     -1.9131 -55.4023 -28.0425   H         1 RES1   0.0000
    47 H14     -0.5555 -54.2664 -27.8718   H         1 RES1   0.0000
    48 H15     -9.1334 -48.5249 -17.0486   H         1 RES1   0.0000
    49 H16     -7.7784 -47.9099 -18.0223   H         1 RES1   0.0000
    50 H17     -9.3218 -48.3193 -18.8050   H         1 RES1   0.0000
    51 H18     -7.4449 -50.2990 -17.4374   H         1 RES1   0.0000
    52 H19     -7.6333 -50.0935 -19.1937   H         1 RES1   0.0000
    53 H20     -5.8367 -57.4394 -22.9758   H         1 RES1   0.0000
    54 H21     -8.0833 -51.4337 -24.5026   H         1 RES1   0.0000
    55 H22     -3.2242 -53.5473 -24.5954   H         1 RES1   0.0000
    56 H23     -5.2487 -53.1936 -23.1897   H         1 RES1   0.0000
    57 H24     -1.7735 -57.8325 -24.8047   H         1 RES1   0.0000
    58 H25     -0.4268 -56.6815 -24.6487   H         1 RES1   0.0000
    59 H26    -13.2088 -55.6180 -18.4845   H         1 RES1   0.0000
    60 H27    -12.7592 -54.2050 -20.4871   H         1 RES1   0.0000
    61 H28     -7.0581 -55.6933 -21.4098   H         1 RES1   0.0000
@<TRIPOS>BOND
     1     1     2    1
     2     2     3    1
     3     3     4    2
     4     3     5    1
     5     5     6    1
     6     6     7   ar
     7     7     8   ar
     8     8     9   ar
     9     9    10   ar
    10    10    11   ar
    11    11    12    1
    12    12    13    1
    13    13    14   ar
    14    14    15   ar
    15    15    16    1
    16    16    17    1
    17    17    18   ar
    18    18    19   ar
    19    19    20   ar
    20    20    21    1
    21    21    22    1
    22    22    23    1
    23    23    24    1
    24    24    25    1
    25    24    26    1
    26    26    27    1
    27    20    28   ar
    28    28    29   ar
    29    15    30   ar
    30    30    31   ar
    31    31    32   ar
    32    32    33    1
    33    11     6   ar
    34    32    13   ar
    35    29    17   ar
    36    27    21    1
    37    27    34    1
    38    27    35    1
    39    28    36    1
    40     7    37    1
    41     8    38    1
    42    23    39    1
    43    23    40    1
    44    24    41    1
    45    12    42    1
    46    25    43    1
    47    25    44    1
    48    25    45    1
    49    26    46    1
    50    26    47    1
    51     1    48    1
    52     1    49    1
    53     1    50    1
    54     2    51    1
    55     2    52    1
    56    29    53    1
    57    31    54    1
    58    19    55    1
    59    18    56    1
    60    22    57    1
    61    22    58    1
    62     9    59    1
    63    10    60    1
    64    16    61    1
@<TRIPOS>SUBSTRUCTURE
     1 RES1        1 GROUP             0 ****  ****    0  
@<TRIPOS>CRYSIN
    1.0000    1.0000    1.0000   90.0000   90.0000   90.0000     1     1
@<TRIPOS>MOLECULE
ligand_82
    61    64     1     0     0
SMALL
USER_CHARGES
****
Generated from the CSD

@<TRIPOS>ATOM
     1 C1      -9.1540 -48.4526 -18.1824   C.3       1 RES1   0.0000
     2 C2      -8.5228 -49.8362 -18.3292   C.3       1 RES1   0.0000
     3 C3      -9.6421 -50.8797 -18.3068   C.2       1 RES1   0.0000
     4 O4     -10.7846 -50.6014 -18.1225   O.2       1 RES1   0.0000
     5 O5      -9.2228 -52.2157 -18.5196   O.3       1 RES1   0.0000
     6 C6     -10.2496 -53.2149 -18.4858   C.ar      1 RES1   0.0000
     7 C7     -11.0108 -53.3920 -17.3285   C.ar      1 RES1   0.0000
     8 C8     -12.0123 -54.3795 -17.3134   C.ar      1 RES1   0.0000
     9 C9     -12.2215 -55.1686 -18.4574   C.ar      1 RES1   0.0000
    10 C10    -11.4493 -54.9908 -19.6200   C.ar      1 RES1   0.0000
    11 C11    -10.4481 -54.0056 -19.6333   C.ar      1 RES1   0.0000
    12 N12     -9.6047 -53.7710 -20.8454   N.pl3     1 RES1   0.0000
    13 C13    -10.0905 -53.9401 -22.2200   C.ar      1 RES1   0.0000
    14 N14    -11.3657 -54.2733 -22.4492   N.ar      1 RES1   0.0000
    15 C15    -11.8087 -54.4252 -23.6883   C.ar      1 RES1   0.0000
    16 N16    -13.2016 -54.7955 -23.9516   N.pl3     1 RES1   0.0000
    17 C17    -14.2242 -54.9171 -22.8961   C.ar      1 RES1   0.0000
    18 C18    -15.4313 -55.5201 -23.2110   C.ar      1 RES1   0.0000
    19 C19    -16.4233 -55.6611 -22.2306   C.ar      1 RES1   0.0000
    20 C20    -16.1975 -55.1938 -20.9399   C.ar      1 RES1   0.0000
    21 N21    -17.2628 -55.3489 -19.9181   N.3       1 RES1   0.0000
    22 C22    -18.4980 -55.8959 -20.5085   C.3       1 RES1   0.0000
    23 C23    -19.5743 -56.0772 -19.4681   C.3       1 RES1   0.0000
    24 N24    -19.8759 -54.7480 -18.8534   N.4       1 RES1   1.0000
    25 C25    -20.8843 -54.7882 -18.0659   C.3       1 RES1   0.0000
    26 C26    -18.6308 -54.2569 -18.1910   C.3       1 RES1   0.0000
    27 C27    -17.5440 -54.0850 -19.2261   C.3       1 RES1   0.0000
    28 C28    -14.9886 -54.5892 -20.6191   C.ar      1 RES1   0.0000
    29 C29    -13.9976 -54.4546 -21.6002   C.ar      1 RES1   0.0000
    30 N30    -11.0332 -54.2482 -24.7280   N.ar      1 RES1   0.0000
    31 C31     -9.7560 -53.9132 -24.5930   C.ar      1 RES1   0.0000
    32 C32     -9.2526 -53.7489 -23.3015   C.ar      1 RES1   0.0000
    33 Cl33    -7.5472 -53.3006 -23.0935   Cl        1 RES1   0.0000
    34 H1     -13.0465 -53.9869 -21.3498   H         1 RES1   0.0000
    35 H2      -9.6958 -48.3990 -17.2392   H         1 RES1   0.0000
    36 H3      -8.3729 -47.6940 -18.1960   H         1 RES1   0.0000
    37 H4      -9.8433 -48.2787 -19.0074   H         1 RES1   0.0000
    38 H5      -8.6423 -53.4784 -20.7100   H         1 RES1   0.0000
    39 H6     -17.3709 -56.1366 -22.4794   H         1 RES1   0.0000
    40 H7     -17.8640 -53.3438 -19.9570   H         1 RES1   0.0000
    41 H8     -16.6360 -53.7405 -18.7334   H         1 RES1   0.0000
    42 H9     -14.8120 -54.2215 -19.6094   H         1 RES1   0.0000
    43 H10    -11.6256 -55.6094 -20.4988   H         1 RES1   0.0000
    44 H11    -10.8315 -52.7741 -16.4499   H         1 RES1   0.0000
    45 H12     -7.8347 -50.0164 -17.5046   H         1 RES1   0.0000
    46 H13     -7.9823 -49.8962 -19.2727   H         1 RES1   0.0000
    47 H14    -13.4773 -54.9780 -24.9112   H         1 RES1   0.0000
    48 H15    -18.2766 -56.8615 -20.9607   H         1 RES1   0.0000
    49 H16    -18.8579 -55.2104 -21.2743   H         1 RES1   0.0000
    50 H17    -15.6096 -55.8850 -24.2214   H         1 RES1   0.0000
    51 H18    -12.6204 -54.5313 -16.4229   H         1 RES1   0.0000
    52 H19    -12.9969 -55.9331 -18.4437   H         1 RES1   0.0000
    53 H20    -20.6872 -55.4929 -17.2594   H         1 RES1   0.0000
    54 H21    -21.0583 -53.7977 -17.6481   H         1 RES1   0.0000
    55 H22    -21.7653 -55.1082 -18.6203   H         1 RES1   0.0000
    56 H23    -18.3085 -54.9795 -17.4428   H         1 RES1   0.0000
    57 H24    -18.8287 -53.3001 -17.7101   H         1 RES1   0.0000
    58 H25    -19.2283 -56.7664 -18.6992   H         1 RES1   0.0000
    59 H26    -20.4727 -56.4768 -19.9361   H         1 RES1   0.0000
    60 H27    -20.0986 -54.1043 -19.6059   H         1 RES1   0.0000
    61 H28     -9.1191 -53.7706 -25.4648   H         1 RES1   0.0000
@<TRIPOS>BOND
     1     1     2    1
     2     2     3    1
     3     3     4    2
     4     3     5    1
     5     5     6    1
     6     6     7   ar
     7     7     8   ar
     8     8     9   ar
     9     9    10   ar
    10    10    11   ar
    11    11    12    1
    12    12    13    1
    13    13    14   ar
    14    14    15   ar
    15    15    16    1
    16    16    17    1
    17    17    18   ar
    18    18    19   ar
    19    19    20   ar
    20    20    21    1
    21    21    22    1
    22    22    23    1
    23    23    24    1
    24    24    25    1
    25    24    26    1
    26    26    27    1
    27    20    28   ar
    28    28    29   ar
    29    15    30   ar
    30    30    31   ar
    31    31    32   ar
    32    32    33    1
    33    11     6   ar
    34    32    13   ar
    35    29    17   ar
    36    27    21    1
    37    29    34    1
    38     1    35    1
    39     1    36    1
    40     1    37    1
    41    12    38    1
    42    19    39    1
    43    27    40    1
    44    27    41    1
    45    28    42    1
    46    10    43    1
    47     7    44    1
    48     2    45    1
    49     2    46    1
    50    16    47    1
    51    22    48    1
    52    22    49    1
    53    18    50    1
    54     8    51    1
    55     9    52    1
    56    25    53    1
    57    25    54    1
    58    25    55    1
    59    26    56    1
    60    26    57    1
    61    23    58    1
    62    23    59    1
    63    24    60    1
    64    31    61    1
@<TRIPOS>SUBSTRUCTURE
     1 RES1        1 GROUP             0 ****  ****    0  
@<TRIPOS>CRYSIN
    1.0000    1.0000    1.0000   90.0000   90.0000   90.0000     1     1
@<TRIPOS>MOLECULE
ligand_83
    61    64     1     0     0
SMALL
USER_CHARGES
****
Generated from the CSD

@<TRIPOS>ATOM
     1 C1      -8.1921 -49.3066 -17.8075   C.3       1 RES1   0.0000
     2 C2      -7.9842 -50.7945 -18.0858   C.3       1 RES1   0.0000
     3 C3      -9.3566 -51.4697 -18.1386   C.2       1 RES1   0.0000
     4 O4      -9.4995 -52.6512 -18.1158   O.2       1 RES1   0.0000
     5 O5     -10.4593 -50.5846 -18.2206   O.3       1 RES1   0.0000
     6 C6     -11.7563 -51.1918 -18.2745   C.ar      1 RES1   0.0000
     7 C7     -12.5241 -51.2981 -17.1129   C.ar      1 RES1   0.0000
     8 C8     -13.7934 -51.8996 -17.1850   C.ar      1 RES1   0.0000
     9 C9     -14.2587 -52.3848 -18.4191   C.ar      1 RES1   0.0000
    10 C10    -13.4804 -52.2806 -19.5866   C.ar      1 RES1   0.0000
    11 C11    -12.2120 -51.6814 -19.5131   C.ar      1 RES1   0.0000
    12 N12    -11.3482 -51.5392 -20.7252   N.pl3     1 RES1   0.0000
    13 C13    -11.6619 -52.1468 -22.0239   C.ar      1 RES1   0.0000
    14 N14    -12.7042 -52.9764 -22.1470   N.ar      1 RES1   0.0000
    15 C15    -12.9918 -53.5256 -23.3176   C.ar      1 RES1   0.0000
    16 N16    -14.1273 -54.4399 -23.4635   N.pl3     1 RES1   0.0000
    17 C17    -14.9716 -54.8745 -22.3353   C.ar      1 RES1   0.0000
    18 C18    -16.3161 -55.1144 -22.5694   C.ar      1 RES1   0.0000
    19 C19    -17.1471 -55.5375 -21.5228   C.ar      1 RES1   0.0000
    20 C20    -16.6230 -55.7152 -20.2464   C.ar      1 RES1   0.0000
    21 N21    -17.5211 -56.1592 -19.1513   N.pl3     1 RES1   0.0000
    22 C22    -18.7734 -56.8776 -19.3655   C.3       1 RES1   0.0000
    23 C23    -18.9866 -57.8847 -18.2622   C.3       1 RES1   0.0000
    24 N24    -18.9563 -57.2211 -16.9256   N.4       1 RES1   1.0000
    25 C25    -19.1375 -58.0983 -16.0110   C.3       1 RES1   0.0000
    26 C26    -17.6959 -56.4400 -16.7542   C.3       1 RES1   0.0000
    27 C27    -17.5203 -55.4502 -17.8787   C.3       1 RES1   0.0000
    28 C28    -15.2755 -55.4765 -20.0069   C.ar      1 RES1   0.0000
    29 C29    -14.4470 -55.0588 -21.0565   C.ar      1 RES1   0.0000
    30 N30    -12.2864 -53.2764 -24.3918   N.ar      1 RES1   0.0000
    31 C31    -11.2380 -52.4631 -24.3613   C.ar      1 RES1   0.0000
    32 C32    -10.9019 -51.8695 -23.1436   C.ar      1 RES1   0.0000
    33 Cl33    -9.5038 -50.7771 -23.0759   Cl        1 RES1   0.0000
    34 H1     -16.8497 -57.1254 -16.7468   H         1 RES1   0.0000
    35 H2     -17.7355 -55.9019 -15.8082   H         1 RES1   0.0000
    36 H3     -18.3390 -54.7323 -17.8621   H         1 RES1   0.0000
    37 H4     -16.5743 -54.9248 -17.7560   H         1 RES1   0.0000
    38 H5     -16.7277 -54.9741 -23.5678   H         1 RES1   0.0000
    39 H6     -18.2032 -55.7271 -21.7089   H         1 RES1   0.0000
    40 H7     -10.4972 -50.9918 -20.6455   H         1 RES1   0.0000
    41 H8      -7.3861 -51.2377 -17.2910   H         1 RES1   0.0000
    42 H9      -7.4736 -50.9230 -19.0391   H         1 RES1   0.0000
    43 H10    -14.4104 -51.9886 -16.2921   H         1 RES1   0.0000
    44 H11    -15.2415 -52.8508 -18.4729   H         1 RES1   0.0000
    45 H12    -14.8651 -55.6135 -19.0076   H         1 RES1   0.0000
    46 H13    -13.3890 -54.8773 -20.8730   H         1 RES1   0.0000
    47 H14    -18.7331 -57.3949 -20.3230   H         1 RES1   0.0000
    48 H15    -19.5996 -56.1682 -19.3707   H         1 RES1   0.0000
    49 H16    -18.1984 -58.6348 -18.3063   H         1 RES1   0.0000
    50 H17    -19.9538 -58.3659 -18.4000   H         1 RES1   0.0000
    51 H18    -13.8567 -52.6598 -20.5356   H         1 RES1   0.0000
    52 H19    -12.1453 -50.9205 -16.1643   H         1 RES1   0.0000
    53 H20    -14.3443 -54.7928 -24.3901   H         1 RES1   0.0000
    54 H21     -8.7057 -49.1837 -16.8551   H         1 RES1   0.0000
    55 H22     -7.2256 -48.8066 -17.7659   H         1 RES1   0.0000
    56 H23     -8.7932 -48.8690 -18.6032   H         1 RES1   0.0000
    57 H24    -19.7326 -56.5684 -16.8865   H         1 RES1   0.0000
    58 H25    -18.3476 -58.8461 -16.0636   H         1 RES1   0.0000
    59 H26    -19.1156 -57.6152 -15.0353   H         1 RES1   0.0000
    60 H27    -20.1034 -58.5798 -16.1561   H         1 RES1   0.0000
    61 H28    -10.6567 -52.2646 -25.2605   H         1 RES1   0.0000
@<TRIPOS>BOND
     1     1     2    1
     2     2     3    1
     3     3     4    2
     4     3     5    1
     5     5     6    1
     6     6     7   ar
     7     7     8   ar
     8     8     9   ar
     9     9    10   ar
    10    10    11   ar
    11    11    12    1
    12    12    13    1
    13    13    14   ar
    14    14    15   ar
    15    15    16    1
    16    16    17    1
    17    17    18   ar
    18    18    19   ar
    19    19    20   ar
    20    20    21    1
    21    21    22    1
    22    22    23    1
    23    23    24    1
    24    24    25    1
    25    24    26    1
    26    26    27    1
    27    20    28   ar
    28    28    29   ar
    29    15    30   ar
    30    30    31   ar
    31    31    32   ar
    32    32    33    1
    33    11     6   ar
    34    32    13   ar
    35    29    17   ar
    36    27    21    1
    37    26    34    1
    38    26    35    1
    39    27    36    1
    40    27    37    1
    41    18    38    1
    42    19    39    1
    43    12    40    1
    44     2    41    1
    45     2    42    1
    46     8    43    1
    47     9    44    1
    48    28    45    1
    49    29    46    1
    50    22    47    1
    51    22    48    1
    52    23    49    1
    53    23    50    1
    54    10    51    1
    55     7    52    1
    56    16    53    1
    57     1    54    1
    58     1    55    1
    59     1    56    1
    60    24    57    1
    61    25    58    1
    62    25    59    1
    63    25    60    1
    64    31    61    1
@<TRIPOS>SUBSTRUCTURE
     1 RES1        1 GROUP             0 ****  ****    0  
@<TRIPOS>CRYSIN
    1.0000    1.0000    1.0000   90.0000   90.0000   90.0000     1     1
@<TRIPOS>MOLECULE
ligand_84
    61    64     1     0     0
SMALL
USER_CHARGES
****
Generated from the CSD

@<TRIPOS>ATOM
     1 C1      -9.2400 -48.0062 -17.9382   C.3       1 RES1   0.0000
     2 C2      -8.4718 -49.3009 -18.1989   C.3       1 RES1   0.0000
     3 C3      -9.4711 -50.4600 -18.2029   C.2       1 RES1   0.0000
     4 O4      -9.1395 -51.6023 -18.1577   O.2       1 RES1   0.0000
     5 O5     -10.8336 -50.0788 -18.2679   O.3       1 RES1   0.0000
     6 C6     -11.7902 -51.1459 -18.2760   C.ar      1 RES1   0.0000
     7 C7     -12.3594 -51.5615 -19.4815   C.ar      1 RES1   0.0000
     8 C8     -13.2984 -52.6086 -19.4691   C.ar      1 RES1   0.0000
     9 C9     -13.6475 -53.2089 -18.2473   C.ar      1 RES1   0.0000
    10 C10    -13.0757 -52.7843 -17.0338   C.ar      1 RES1   0.0000
    11 C11    -12.1394 -51.7372 -17.0472   C.ar      1 RES1   0.0000
    12 N12    -11.4969 -51.2531 -15.7869   N.pl3     1 RES1   0.0000
    13 C13    -11.8997 -51.6948 -14.4464   C.ar      1 RES1   0.0000
    14 N14    -12.9699 -52.4819 -14.2881   N.ar      1 RES1   0.0000
    15 C15    -13.3359 -52.8841 -13.0802   C.ar      1 RES1   0.0000
    16 N16    -14.5092 -53.7414 -12.8938   N.pl3     1 RES1   0.0000
    17 C17    -15.4007 -54.1506 -13.9949   C.ar      1 RES1   0.0000
    18 C18    -15.9947 -55.4010 -13.9352   C.ar      1 RES1   0.0000
    19 C19    -16.8550 -55.8199 -14.9596   C.ar      1 RES1   0.0000
    20 C20    -17.1122 -54.9810 -16.0391   C.ar      1 RES1   0.0000
    21 N21    -18.0225 -55.4458 -17.1153   N.pl3     1 RES1   0.0000
    22 C22    -19.0364 -56.4800 -16.9346   C.3       1 RES1   0.0000
    23 C23    -20.2589 -56.1544 -17.7572   C.3       1 RES1   0.0000
    24 N24    -19.8996 -55.9836 -19.1958   N.4       1 RES1   1.0000
    25 C25    -20.9537 -55.7069 -19.8675   C.3       1 RES1   0.0000
    26 C26    -18.8163 -54.9684 -19.3508   C.3       1 RES1   0.0000
    27 C27    -17.6175 -55.3296 -18.5098   C.3       1 RES1   0.0000
    28 C28    -16.5195 -53.7261 -16.1031   C.ar      1 RES1   0.0000
    29 C29    -15.6643 -53.3088 -15.0750   C.ar      1 RES1   0.0000
    30 N30    -12.6707 -52.5436 -12.0054   N.ar      1 RES1   0.0000
    31 C31    -11.5952 -51.7686 -12.0704   C.ar      1 RES1   0.0000
    32 C32    -11.1823 -51.3214 -13.3265   C.ar      1 RES1   0.0000
    33 Cl33    -9.7462 -50.2835 -13.4409   Cl        1 RES1   0.0000
    34 H1     -12.0801 -51.0815 -20.4183   H         1 RES1   0.0000
    35 H2     -14.7196 -54.0712 -11.9572   H         1 RES1   0.0000
    36 H3     -15.7929 -56.0592 -13.0914   H         1 RES1   0.0000
    37 H4     -17.3222 -56.8024 -14.9104   H         1 RES1   0.0000
    38 H5      -9.7420 -48.0698 -16.9739   H         1 RES1   0.0000
    39 H6      -8.5457 -47.1673 -17.9314   H         1 RES1   0.0000
    40 H7      -9.9799 -47.8587 -18.7235   H         1 RES1   0.0000
    41 H8     -21.3927 -54.7844 -19.4904   H         1 RES1   0.0000
    42 H9     -20.6928 -55.5820 -20.9174   H         1 RES1   0.0000
    43 H10    -21.6723 -56.5189 -19.7661   H         1 RES1   0.0000
    44 H11    -19.1918 -53.9954 -19.0375   H         1 RES1   0.0000
    45 H12    -18.5174 -54.9225 -20.3970   H         1 RES1   0.0000
    46 H13    -13.7511 -52.9513 -20.3984   H         1 RES1   0.0000
    47 H14    -14.3752 -54.0190 -18.2396   H         1 RES1   0.0000
    48 H15    -17.2081 -56.2798 -18.8497   H         1 RES1   0.0000
    49 H16    -16.8598 -54.5532 -18.6047   H         1 RES1   0.0000
    50 H17    -16.7189 -53.0697 -16.9488   H         1 RES1   0.0000
    51 H18    -15.2035 -52.3231 -15.1194   H         1 RES1   0.0000
    52 H19    -10.7398 -50.5814 -15.8626   H         1 RES1   0.0000
    53 H20    -11.0505 -51.4896 -11.1696   H         1 RES1   0.0000
    54 H21    -19.3134 -56.5335 -15.8828   H         1 RES1   0.0000
    55 H22    -18.6328 -57.4401 -17.2530   H         1 RES1   0.0000
    56 H23    -13.3556 -53.2615 -16.0958   H         1 RES1   0.0000
    57 H24     -7.7325 -49.4548 -17.4143   H         1 RES1   0.0000
    58 H25     -7.9704 -49.2436 -19.1639   H         1 RES1   0.0000
    59 H26    -20.7022 -55.2308 -17.3878   H         1 RES1   0.0000
    60 H27    -20.9791 -56.9658 -17.6630   H         1 RES1   0.0000
    61 H28    -19.5420 -56.8717 -19.5330   H         1 RES1   0.0000
@<TRIPOS>BOND
     1     1     2    1
     2     2     3    1
     3     3     4    2
     4     3     5    1
     5     5     6    1
     6     6     7   ar
     7     7     8   ar
     8     8     9   ar
     9     9    10   ar
    10    10    11   ar
    11    11    12    1
    12    12    13    1
    13    13    14   ar
    14    14    15   ar
    15    15    16    1
    16    16    17    1
    17    17    18   ar
    18    18    19   ar
    19    19    20   ar
    20    20    21    1
    21    21    22    1
    22    22    23    1
    23    23    24    1
    24    24    25    1
    25    24    26    1
    26    26    27    1
    27    20    28   ar
    28    28    29   ar
    29    15    30   ar
    30    30    31   ar
    31    31    32   ar
    32    32    33    1
    33    11     6   ar
    34    32    13   ar
    35    29    17   ar
    36    27    21    1
    37     7    34    1
    38    16    35    1
    39    18    36    1
    40    19    37    1
    41     1    38    1
    42     1    39    1
    43     1    40    1
    44    25    41    1
    45    25    42    1
    46    25    43    1
    47    26    44    1
    48    26    45    1
    49     8    46    1
    50     9    47    1
    51    27    48    1
    52    27    49    1
    53    28    50    1
    54    29    51    1
    55    12    52    1
    56    31    53    1
    57    22    54    1
    58    22    55    1
    59    10    56    1
    60     2    57    1
    61     2    58    1
    62    23    59    1
    63    23    60    1
    64    24    61    1
@<TRIPOS>SUBSTRUCTURE
     1 RES1        1 GROUP             0 ****  ****    0  
@<TRIPOS>CRYSIN
    1.0000    1.0000    1.0000   90.0000   90.0000   90.0000     1     1
@<TRIPOS>MOLECULE
ligand_85
    61    64     1     0     0
SMALL
USER_CHARGES
****
Generated from the CSD

@<TRIPOS>ATOM
     1 C1      -8.5635 -48.6749 -17.9867   C.3       1 RES1   0.0000
     2 C2      -8.1060 -50.1145 -18.2159   C.3       1 RES1   0.0000
     3 C3      -9.3408 -51.0187 -18.2031   C.2       1 RES1   0.0000
     4 O4      -9.2750 -52.2051 -18.1325   O.2       1 RES1   0.0000
     5 O5     -10.5823 -50.3420 -18.2850   O.3       1 RES1   0.0000
     6 C6     -11.7546 -51.1664 -18.2779   C.ar      1 RES1   0.0000
     7 C7     -12.4654 -51.3557 -17.0910   C.ar      1 RES1   0.0000
     8 C8     -13.6119 -52.1704 -17.1032   C.ar      1 RES1   0.0000
     9 C9     -14.0136 -52.7796 -18.3043   C.ar      1 RES1   0.0000
    10 C10    -13.2921 -52.5907 -19.4973   C.ar      1 RES1   0.0000
    11 C11    -12.1462 -51.7784 -19.4836   C.ar      1 RES1   0.0000
    12 N12    -11.3482 -51.5392 -20.7252   N.pl3     1 RES1   0.0000
    13 C13    -11.6619 -52.1468 -22.0239   C.ar      1 RES1   0.0000
    14 N14    -12.7042 -52.9764 -22.1470   N.ar      1 RES1   0.0000
    15 C15    -12.9918 -53.5256 -23.3176   C.ar      1 RES1   0.0000
    16 N16    -14.1273 -54.4399 -23.4635   N.pl3     1 RES1   0.0000
    17 C17    -14.5323 -55.0347 -24.7507   C.ar      1 RES1   0.0000
    18 C18    -15.0505 -56.3197 -24.7516   C.ar      1 RES1   0.0000
    19 C19    -15.4544 -56.9137 -25.9553   C.ar      1 RES1   0.0000
    20 C20    -15.3336 -56.2140 -27.1516   C.ar      1 RES1   0.0000
    21 N21    -15.7628 -56.8630 -28.4155   N.pl3     1 RES1   0.0000
    22 C22    -16.7252 -57.9582 -28.4829   C.3       1 RES1   0.0000
    23 C23    -17.5727 -57.8257 -29.7244   C.3       1 RES1   0.0000
    24 N24    -16.7176 -57.7704 -30.9465   N.4       1 RES1   1.0000
    25 C25    -17.4620 -57.6563 -31.9817   C.3       1 RES1   0.0000
    26 C26    -15.6994 -56.6854 -30.8279   C.3       1 RES1   0.0000
    27 C27    -14.8790 -56.8534 -29.5735   C.3       1 RES1   0.0000
    28 C28    -14.8152 -54.9250 -27.1557   C.ar      1 RES1   0.0000
    29 C29    -14.4174 -54.3327 -25.9501   C.ar      1 RES1   0.0000
    30 N30    -12.2864 -53.2764 -24.3918   N.ar      1 RES1   0.0000
    31 C31    -11.2380 -52.4631 -24.3613   C.ar      1 RES1   0.0000
    32 C32    -10.9019 -51.8695 -23.1436   C.ar      1 RES1   0.0000
    33 Cl33    -9.5038 -50.7771 -23.0759   Cl        1 RES1   0.0000
    34 H1     -18.1614 -56.9119 -29.6589   H         1 RES1   0.0000
    35 H2     -18.2402 -58.6833 -29.7942   H         1 RES1   0.0000
    36 H3     -16.2220 -58.6533 -31.0176   H         1 RES1   0.0000
    37 H4     -10.6567 -52.2646 -25.2605   H         1 RES1   0.0000
    38 H5     -18.0495 -56.7424 -31.9074   H         1 RES1   0.0000
    39 H6     -16.8391 -57.6159 -32.8741   H         1 RES1   0.0000
    40 H7     -18.1306 -58.5136 -32.0443   H         1 RES1   0.0000
    41 H8     -16.2065 -55.7222 -30.7962   H         1 RES1   0.0000
    42 H9     -15.0391 -56.7197 -31.6932   H         1 RES1   0.0000
    43 H10    -14.9012 -53.4105 -18.3117   H         1 RES1   0.0000
    44 H11    -13.6180 -53.0684 -20.4201   H         1 RES1   0.0000
    45 H12    -14.6635 -54.6764 -22.6348   H         1 RES1   0.0000
    46 H13     -9.0688 -48.6034 -17.0247   H         1 RES1   0.0000
    47 H14     -7.6982 -48.0138 -17.9922   H         1 RES1   0.0000
    48 H15     -9.2496 -48.3814 -18.7798   H         1 RES1   0.0000
    49 H16     -7.4219 -50.4141 -17.4233   H         1 RES1   0.0000
    50 H17     -7.6027 -50.1921 -19.1785   H         1 RES1   0.0000
    51 H18    -10.5445 -50.9221 -20.6667   H         1 RES1   0.0000
    52 H19    -15.1441 -56.8689 -23.8159   H         1 RES1   0.0000
    53 H20    -14.0169 -53.3200 -25.9496   H         1 RES1   0.0000
    54 H21    -15.8629 -57.9232 -25.9540   H         1 RES1   0.0000
    55 H22    -17.3669 -57.9289 -27.6035   H         1 RES1   0.0000
    56 H23    -16.1907 -58.9066 -28.5108   H         1 RES1   0.0000
    57 H24    -12.1366 -50.8791 -16.1687   H         1 RES1   0.0000
    58 H25    -14.1835 -52.3278 -16.1897   H         1 RES1   0.0000
    59 H26    -14.3315 -57.7936 -29.6206   H         1 RES1   0.0000
    60 H27    -14.1749 -56.0272 -29.4864   H         1 RES1   0.0000
    61 H28    -14.7185 -54.3774 -28.0921   H         1 RES1   0.0000
@<TRIPOS>BOND
     1     1     2    1
     2     2     3    1
     3     3     4    2
     4     3     5    1
     5     5     6    1
     6     6     7   ar
     7     7     8   ar
     8     8     9   ar
     9     9    10   ar
    10    10    11   ar
    11    11    12    1
    12    12    13    1
    13    13    14   ar
    14    14    15   ar
    15    15    16    1
    16    16    17    1
    17    17    18   ar
    18    18    19   ar
    19    19    20   ar
    20    20    21    1
    21    21    22    1
    22    22    23    1
    23    23    24    1
    24    24    25    1
    25    24    26    1
    26    26    27    1
    27    20    28   ar
    28    28    29   ar
    29    15    30   ar
    30    30    31   ar
    31    31    32   ar
    32    32    33    1
    33    11     6   ar
    34    32    13   ar
    35    29    17   ar
    36    27    21    1
    37    23    34    1
    38    23    35    1
    39    24    36    1
    40    31    37    1
    41    25    38    1
    42    25    39    1
    43    25    40    1
    44    26    41    1
    45    26    42    1
    46     9    43    1
    47    10    44    1
    48    16    45    1
    49     1    46    1
    50     1    47    1
    51     1    48    1
    52     2    49    1
    53     2    50    1
    54    12    51    1
    55    18    52    1
    56    29    53    1
    57    19    54    1
    58    22    55    1
    59    22    56    1
    60     7    57    1
    61     8    58    1
    62    27    59    1
    63    27    60    1
    64    28    61    1
@<TRIPOS>SUBSTRUCTURE
     1 RES1        1 GROUP             0 ****  ****    0  
@<TRIPOS>CRYSIN
    1.0000    1.0000    1.0000   90.0000   90.0000   90.0000     1     1
@<TRIPOS>MOLECULE
ligand_86
    61    64     1     0     0
SMALL
USER_CHARGES
****
Generated from the CSD

@<TRIPOS>ATOM
     1 C1      -8.6957 -48.5109 -17.9999   C.3       1 RES1   0.0000
     2 C2      -8.1709 -49.9274 -18.2283   C.3       1 RES1   0.0000
     3 C3      -9.3611 -50.8894 -18.2110   C.2       1 RES1   0.0000
     4 O4      -9.2388 -52.0712 -18.1388   O.2       1 RES1   0.0000
     5 O5     -10.6336 -50.2727 -18.2904   O.3       1 RES1   0.0000
     6 C6     -11.7654 -51.1518 -18.2790   C.ar      1 RES1   0.0000
     7 C7     -12.3992 -51.4864 -19.4775   C.ar      1 RES1   0.0000
     8 C8     -13.5100 -52.3485 -19.4460   C.ar      1 RES1   0.0000
     9 C9     -13.9611 -52.8490 -18.2127   C.ar      1 RES1   0.0000
    10 C10    -13.3232 -52.5058 -17.0065   C.ar      1 RES1   0.0000
    11 C11    -12.2150 -51.6432 -17.0389   C.ar      1 RES1   0.0000
    12 N12    -11.4969 -51.2531 -15.7869   N.pl3     1 RES1   0.0000
    13 C13    -11.8997 -51.6948 -14.4464   C.ar      1 RES1   0.0000
    14 N14    -12.9699 -52.4819 -14.2881   N.ar      1 RES1   0.0000
    15 C15    -13.3359 -52.8841 -13.0802   C.ar      1 RES1   0.0000
    16 N16    -14.5092 -53.7414 -12.8938   N.pl3     1 RES1   0.0000
    17 C17    -14.9308 -54.2692 -11.5829   C.ar      1 RES1   0.0000
    18 C18    -16.2858 -54.4176 -11.3343   C.ar      1 RES1   0.0000
    19 C19    -16.7229 -54.9248 -10.1028   C.ar      1 RES1   0.0000
    20 C20    -15.7963 -55.2781  -9.1273   C.ar      1 RES1   0.0000
    21 N21    -16.2804 -55.8088  -7.8285   N.pl3     1 RES1   0.0000
    22 C22    -17.5838 -56.4383  -7.6405   C.3       1 RES1   0.0000
    23 C23    -17.4760 -57.5598  -6.6367   C.3       1 RES1   0.0000
    24 N24    -16.9150 -57.0635  -5.3456   N.4       1 RES1   1.0000
    25 C25    -16.8336 -58.0348  -4.5158   C.3       1 RES1   0.0000
    26 C26    -15.6140 -56.3670  -5.5702   C.3       1 RES1   0.0000
    27 C27    -15.7657 -55.2585  -6.5817   C.3       1 RES1   0.0000
    28 C28    -14.4366 -55.1318  -9.3720   C.ar      1 RES1   0.0000
    29 C29    -14.0032 -54.6294 -10.6060   C.ar      1 RES1   0.0000
    30 N30    -12.6707 -52.5436 -12.0054   N.ar      1 RES1   0.0000
    31 C31    -11.5952 -51.7686 -12.0704   C.ar      1 RES1   0.0000
    32 C32    -11.1823 -51.3214 -13.3265   C.ar      1 RES1   0.0000
    33 Cl33    -9.7462 -50.2835 -13.4409   Cl        1 RES1   0.0000
    34 H1     -17.9316 -56.8382  -8.5918   H         1 RES1   0.0000
    35 H2     -18.2935 -55.6964  -7.2773   H         1 RES1   0.0000
    36 H3     -16.8227 -58.3344  -7.0356   H         1 RES1   0.0000
    37 H4     -18.4664 -57.9763  -6.4590   H         1 RES1   0.0000
    38 H5      -9.2014 -48.4621 -17.0367   H         1 RES1   0.0000
    39 H6      -7.8628 -47.8094 -18.0086   H         1 RES1   0.0000
    40 H7      -9.3970 -48.2516 -18.7916   H         1 RES1   0.0000
    41 H8      -7.4713 -50.1929 -17.4371   H         1 RES1   0.0000
    42 H9      -7.6669 -49.9824 -19.1921   H         1 RES1   0.0000
    43 H10    -13.7108 -55.4064  -8.6080   H         1 RES1   0.0000
    44 H11    -12.9378 -54.5198 -10.8030   H         1 RES1   0.0000
    45 H12    -10.6854 -50.6490 -15.8685   H         1 RES1   0.0000
    46 H13    -15.0611 -53.9850 -13.7101   H         1 RES1   0.0000
    47 H14    -11.0505 -51.4896 -11.1696   H         1 RES1   0.0000
    48 H15    -17.0121 -54.1398 -12.0967   H         1 RES1   0.0000
    49 H16    -17.7882 -55.0423  -9.9097   H         1 RES1   0.0000
    50 H17    -14.8217 -53.5159 -18.1902   H         1 RES1   0.0000
    51 H18    -13.6842 -52.9040 -16.0594   H         1 RES1   0.0000
    52 H19    -12.0384 -51.0853 -20.4235   H         1 RES1   0.0000
    53 H20    -14.0162 -52.6258 -20.3694   H         1 RES1   0.0000
    54 H21    -14.8828 -57.0863  -5.9362   H         1 RES1   0.0000
    55 H22    -15.2679 -55.9451  -4.6278   H         1 RES1   0.0000
    56 H23    -16.4599 -54.5111  -6.2004   H         1 RES1   0.0000
    57 H24    -14.7966 -54.7955  -6.7615   H         1 RES1   0.0000
    58 H25    -17.5674 -56.3854  -4.9651   H         1 RES1   0.0000
    59 H26    -16.1816 -58.8063  -4.9228   H         1 RES1   0.0000
    60 H27    -16.4244 -57.6738  -3.5734   H         1 RES1   0.0000
    61 H28    -17.8255 -58.4506  -4.3453   H         1 RES1   0.0000
@<TRIPOS>BOND
     1     1     2    1
     2     2     3    1
     3     3     4    2
     4     3     5    1
     5     5     6    1
     6     6     7   ar
     7     7     8   ar
     8     8     9   ar
     9     9    10   ar
    10    10    11   ar
    11    11    12    1
    12    12    13    1
    13    13    14   ar
    14    14    15   ar
    15    15    16    1
    16    16    17    1
    17    17    18   ar
    18    18    19   ar
    19    19    20   ar
    20    20    21    1
    21    21    22    1
    22    22    23    1
    23    23    24    1
    24    24    25    1
    25    24    26    1
    26    26    27    1
    27    20    28   ar
    28    28    29   ar
    29    15    30   ar
    30    30    31   ar
    31    31    32   ar
    32    32    33    1
    33    11     6   ar
    34    32    13   ar
    35    29    17   ar
    36    27    21    1
    37    22    34    1
    38    22    35    1
    39    23    36    1
    40    23    37    1
    41     1    38    1
    42     1    39    1
    43     1    40    1
    44     2    41    1
    45     2    42    1
    46    28    43    1
    47    29    44    1
    48    12    45    1
    49    16    46    1
    50    31    47    1
    51    18    48    1
    52    19    49    1
    53     9    50    1
    54    10    51    1
    55     7    52    1
    56     8    53    1
    57    26    54    1
    58    26    55    1
    59    27    56    1
    60    27    57    1
    61    24    58    1
    62    25    59    1
    63    25    60    1
    64    25    61    1
@<TRIPOS>SUBSTRUCTURE
     1 RES1        1 GROUP             0 ****  ****    0  
@<TRIPOS>CRYSIN
    1.0000    1.0000    1.0000   90.0000   90.0000   90.0000     1     1
@<TRIPOS>MOLECULE
ligand_87
    61    64     1     0     0
SMALL
USER_CHARGES
****
Generated from the CSD

@<TRIPOS>ATOM
     1 C1      -8.5612 -48.6148 -18.0351   C.3       1 RES1   0.0000
     2 C2      -8.0885 -50.0556 -18.2226   C.3       1 RES1   0.0000
     3 C3      -9.3175 -50.9677 -18.2262   C.2       1 RES1   0.0000
     4 O4     -10.4218 -50.5688 -18.0308   O.2       1 RES1   0.0000
     5 O5      -9.0500 -52.3357 -18.4776   O.3       1 RES1   0.0000
     6 C6     -10.1820 -53.2145 -18.4684   C.ar      1 RES1   0.0000
     7 C7     -10.9575 -53.3388 -17.3138   C.ar      1 RES1   0.0000
     8 C8     -12.0630 -54.2083 -17.3230   C.ar      1 RES1   0.0000
     9 C9     -12.3598 -54.9359 -18.4882   C.ar      1 RES1   0.0000
    10 C10    -11.5733 -54.8120 -19.6482   C.ar      1 RES1   0.0000
    11 C11    -10.4683 -53.9448 -19.6373   C.ar      1 RES1   0.0000
    12 N12     -9.6047 -53.7710 -20.8454   N.pl3     1 RES1   0.0000
    13 C13     -9.8118 -54.4958 -22.1048   C.ar      1 RES1   0.0000
    14 N14    -10.8126 -55.3759 -22.2206   N.ar      1 RES1   0.0000
    15 C15    -11.0040 -56.0309 -23.3559   C.ar      1 RES1   0.0000
    16 N16    -12.0931 -57.0013 -23.4928   N.pl3     1 RES1   0.0000
    17 C17    -12.1447 -58.0210 -24.5568   C.ar      1 RES1   0.0000
    18 C18    -10.9527 -58.5526 -25.0219   C.ar      1 RES1   0.0000
    19 C19    -10.9637 -59.5305 -26.0262   C.ar      1 RES1   0.0000
    20 C20    -12.1723 -59.9674 -26.5589   C.ar      1 RES1   0.0000
    21 N21    -12.1615 -61.0002 -27.6248   N.3       1 RES1   0.0000
    22 C22    -12.9017 -62.2064 -27.2116   C.3       1 RES1   0.0000
    23 C23    -12.9130 -63.2481 -28.3017   C.3       1 RES1   0.0000
    24 N24    -11.5016 -63.6274 -28.6173   N.4       1 RES1   1.0000
    25 C25    -11.4278 -64.6157 -29.4274   C.3       1 RES1   0.0000
    26 C26    -10.7992 -62.4061 -29.1127   C.3       1 RES1   0.0000
    27 C27    -10.7952 -61.3533 -28.0294   C.3       1 RES1   0.0000
    28 C28    -13.3702 -59.4379 -26.0954   C.ar      1 RES1   0.0000
    29 C29    -13.3555 -58.4645 -25.0879   C.ar      1 RES1   0.0000
    30 N30    -10.2409 -55.8410 -24.4025   N.ar      1 RES1   0.0000
    31 C31     -9.2275 -54.9844 -24.3771   C.ar      1 RES1   0.0000
    32 C32     -8.9924 -54.2793 -23.1956   C.ar      1 RES1   0.0000
    33 Cl33    -7.6428 -53.1269 -23.1356   Cl        1 RES1   0.0000
    34 H1     -10.0060 -58.2102 -24.6067   H         1 RES1   0.0000
    35 H2     -10.0259 -59.9483 -26.3895   H         1 RES1   0.0000
    36 H3     -11.3157 -62.0214 -29.9909   H         1 RES1   0.0000
    37 H4      -9.7735 -62.6592 -29.3767   H         1 RES1   0.0000
    38 H5     -10.2567 -61.7366 -27.1640   H         1 RES1   0.0000
    39 H6     -10.2941 -60.4616 -28.4030   H         1 RES1   0.0000
    40 H7     -11.0567 -63.9074 -27.7490   H         1 RES1   0.0000
    41 H8     -11.9217 -64.3561 -30.3626   H         1 RES1   0.0000
    42 H9     -10.3819 -64.8485 -29.6217   H         1 RES1   0.0000
    43 H10    -11.9170 -65.4833 -28.9871   H         1 RES1   0.0000
    44 H11     -9.0938 -48.5277 -17.0892   H         1 RES1   0.0000
    45 H12     -7.7002 -47.9481 -18.0297   H         1 RES1   0.0000
    46 H13     -9.2266 -48.3417 -18.8528   H         1 RES1   0.0000
    47 H14    -12.8522 -56.9701 -22.8197   H         1 RES1   0.0000
    48 H15     -8.8320 -53.1151 -20.7916   H         1 RES1   0.0000
    49 H16    -11.8182 -55.3814 -20.5436   H         1 RES1   0.0000
    50 H17    -12.6837 -54.3168 -16.4348   H         1 RES1   0.0000
    51 H18    -13.2158 -55.6091 -18.4933   H         1 RES1   0.0000
    52 H19     -7.4251 -50.3348 -17.4054   H         1 RES1   0.0000
    53 H20     -7.5579 -50.1489 -19.1690   H         1 RES1   0.0000
    54 H21    -14.3165 -59.7780 -26.5134   H         1 RES1   0.0000
    55 H22    -14.2933 -58.0526 -24.7180   H         1 RES1   0.0000
    56 H23     -8.5975 -54.8359 -25.2529   H         1 RES1   0.0000
    57 H24    -13.9282 -61.9286 -26.9769   H         1 RES1   0.0000
    58 H25    -12.4277 -62.6264 -26.3257   H         1 RES1   0.0000
    59 H26    -13.3910 -62.8418 -29.1918   H         1 RES1   0.0000
    60 H27    -13.4615 -64.1261 -27.9638   H         1 RES1   0.0000
    61 H28    -10.7097 -52.7703 -16.4186   H         1 RES1   0.0000
@<TRIPOS>BOND
     1     1     2    1
     2     2     3    1
     3     3     4    2
     4     3     5    1
     5     5     6    1
     6     6     7   ar
     7     7     8   ar
     8     8     9   ar
     9     9    10   ar
    10    10    11   ar
    11    11    12    1
    12    12    13    1
    13    13    14   ar
    14    14    15   ar
    15    15    16    1
    16    16    17    1
    17    17    18   ar
    18    18    19   ar
    19    19    20   ar
    20    20    21    1
    21    21    22    1
    22    22    23    1
    23    23    24    1
    24    24    25    1
    25    24    26    1
    26    26    27    1
    27    20    28   ar
    28    28    29   ar
    29    15    30   ar
    30    30    31   ar
    31    31    32   ar
    32    32    33    1
    33    11     6   ar
    34    32    13   ar
    35    29    17   ar
    36    27    21    1
    37    18    34    1
    38    19    35    1
    39    26    36    1
    40    26    37    1
    41    27    38    1
    42    27    39    1
    43    24    40    1
    44    25    41    1
    45    25    42    1
    46    25    43    1
    47     1    44    1
    48     1    45    1
    49     1    46    1
    50    16    47    1
    51    12    48    1
    52    10    49    1
    53     8    50    1
    54     9    51    1
    55     2    52    1
    56     2    53    1
    57    28    54    1
    58    29    55    1
    59    31    56    1
    60    22    57    1
    61    22    58    1
    62    23    59    1
    63    23    60    1
    64     7    61    1
@<TRIPOS>SUBSTRUCTURE
     1 RES1        1 GROUP             0 ****  ****    0  
@<TRIPOS>CRYSIN
    1.0000    1.0000    1.0000   90.0000   90.0000   90.0000     1     1
@<TRIPOS>MOLECULE
ligand_88
    61    64     1     0     0
SMALL
USER_CHARGES
****
Generated from the CSD

@<TRIPOS>ATOM
     1 C1      -8.6280 -48.5909 -18.0109   C.3       1 RES1   0.0000
     2 C2      -8.1370 -50.0209 -18.2309   C.3       1 RES1   0.0000
     3 C3      -9.3500 -50.9539 -18.2099   C.2       1 RES1   0.0000
     4 O4     -10.4546 -50.5765 -17.9768   O.2       1 RES1   0.0000
     5 O5      -9.0672 -52.3138 -18.4869   O.3       1 RES1   0.0000
     6 C6     -10.1859 -53.2094 -18.4705   C.ar      1 RES1   0.0000
     7 C7     -10.8015 -53.5766 -19.6690   C.ar      1 RES1   0.0000
     8 C8     -11.8997 -54.4545 -19.6326   C.ar      1 RES1   0.0000
     9 C9     -12.3571 -54.9376 -18.3946   C.ar      1 RES1   0.0000
    10 C10    -11.7378 -54.5615 -17.1886   C.ar      1 RES1   0.0000
    11 C11    -10.6421 -53.6833 -17.2260   C.ar      1 RES1   0.0000
    12 N12     -9.9437 -53.2583 -15.9741   N.pl3     1 RES1   0.0000
    13 C13     -8.6293 -53.7660 -15.5631   C.ar      1 RES1   0.0000
    14 N14     -7.9840 -54.6603 -16.3204   N.ar      1 RES1   0.0000
    15 C15     -6.7969 -55.1198 -15.9539   C.ar      1 RES1   0.0000
    16 N16     -6.0832 -56.1035 -16.7721   N.pl3     1 RES1   0.0000
    17 C17     -6.6286 -56.6747 -18.0175   C.ar      1 RES1   0.0000
    18 C18     -7.9815 -56.9683 -18.0735   C.ar      1 RES1   0.0000
    19 C19     -8.5366 -57.5038 -19.2440   C.ar      1 RES1   0.0000
    20 C20     -7.7288 -57.7430 -20.3510   C.ar      1 RES1   0.0000
    21 N21     -8.3356 -58.3148 -21.5790   N.pl3     1 RES1   0.0000
    22 C22     -7.9158 -57.9671 -22.9329   C.3       1 RES1   0.0000
    23 C23     -8.0055 -59.1781 -23.8287   C.3       1 RES1   0.0000
    24 N24     -9.3843 -59.7494 -23.8113   N.4       1 RES1   1.0000
    25 C25     -9.4298 -60.7743 -24.5770   C.3       1 RES1   0.0000
    26 C26     -9.8172 -60.0370 -22.4120   C.3       1 RES1   0.0000
    27 C27     -9.7077 -58.8032 -21.5515   C.3       1 RES1   0.0000
    28 C28     -6.3718 -57.4496 -20.3000   C.ar      1 RES1   0.0000
    29 C29     -5.8216 -56.9098 -19.1302   C.ar      1 RES1   0.0000
    30 N30     -6.2066 -54.7175 -14.8569   N.ar      1 RES1   0.0000
    31 C31     -6.7731 -53.8303 -14.0485   C.ar      1 RES1   0.0000
    32 C32     -8.0267 -53.3272 -14.4001   C.ar      1 RES1   0.0000
    33 Cl33    -8.8062 -52.1388 -13.3357   Cl        1 RES1   0.0000
    34 H1     -10.4363 -53.1885 -20.6187   H         1 RES1   0.0000
    35 H2     -12.3914 -54.7574 -20.5558   H         1 RES1   0.0000
    36 H3     -10.4043 -52.5808 -15.3749   H         1 RES1   0.0000
    37 H4      -7.3019 -59.9328 -23.4803   H         1 RES1   0.0000
    38 H5      -7.7520 -58.8882 -24.8473   H         1 RES1   0.0000
    39 H6     -10.0137 -59.0503 -24.1924   H         1 RES1   0.0000
    40 H7      -6.8871 -57.6103 -22.9110   H         1 RES1   0.0000
    41 H8      -8.5639 -57.1827 -23.3211   H         1 RES1   0.0000
    42 H9      -5.1648 -56.4080 -16.4655   H         1 RES1   0.0000
    43 H10     -8.6145 -56.7828 -17.2070   H         1 RES1   0.0000
    44 H11    -13.2080 -55.6167 -18.3683   H         1 RES1   0.0000
    45 H12    -12.1034 -54.9465 -16.2378   H         1 RES1   0.0000
    46 H13    -10.3754 -58.0328 -21.9343   H         1 RES1   0.0000
    47 H14     -9.9857 -59.0485 -20.5275   H         1 RES1   0.0000
    48 H15     -5.7386 -57.6384 -21.1656   H         1 RES1   0.0000
    49 H16     -4.7595 -56.6728 -19.0896   H         1 RES1   0.0000
    50 H17     -6.2742 -53.5042 -13.1371   H         1 RES1   0.0000
    51 H18     -9.6004 -57.7326 -19.2868   H         1 RES1   0.0000
    52 H19     -9.1335 -48.5247 -17.0486   H         1 RES1   0.0000
    53 H20     -7.7785 -47.9096 -18.0223   H         1 RES1   0.0000
    54 H21     -9.3220 -48.3192 -18.8049   H         1 RES1   0.0000
    55 H22     -7.4449 -50.2988 -17.4374   H         1 RES1   0.0000
    56 H23     -7.6333 -50.0933 -19.1937   H         1 RES1   0.0000
    57 H24     -8.7217 -61.5227 -24.2242   H         1 RES1   0.0000
    58 H25    -10.4354 -61.1920 -24.5651   H         1 RES1   0.0000
    59 H26     -9.1710 -60.4801 -25.5931   H         1 RES1   0.0000
    60 H27     -9.1838 -60.8192 -21.9963   H         1 RES1   0.0000
    61 H28    -10.8524 -60.3748 -22.4212   H         1 RES1   0.0000
@<TRIPOS>BOND
     1     1     2    1
     2     2     3    1
     3     3     4    2
     4     3     5    1
     5     5     6    1
     6     6     7   ar
     7     7     8   ar
     8     8     9   ar
     9     9    10   ar
    10    10    11   ar
    11    11    12    1
    12    12    13    1
    13    13    14   ar
    14    14    15   ar
    15    15    16    1
    16    16    17    1
    17    17    18   ar
    18    18    19   ar
    19    19    20   ar
    20    20    21    1
    21    21    22    1
    22    22    23    1
    23    23    24    1
    24    24    25    1
    25    24    26    1
    26    26    27    1
    27    20    28   ar
    28    28    29   ar
    29    15    30   ar
    30    30    31   ar
    31    31    32   ar
    32    32    33    1
    33    11     6   ar
    34    32    13   ar
    35    29    17   ar
    36    27    21    1
    37     7    34    1
    38     8    35    1
    39    12    36    1
    40    23    37    1
    41    23    38    1
    42    24    39    1
    43    22    40    1
    44    22    41    1
    45    16    42    1
    46    18    43    1
    47     9    44    1
    48    10    45    1
    49    27    46    1
    50    27    47    1
    51    28    48    1
    52    29    49    1
    53    31    50    1
    54    19    51    1
    55     1    52    1
    56     1    53    1
    57     1    54    1
    58     2    55    1
    59     2    56    1
    60    25    57    1
    61    25    58    1
    62    25    59    1
    63    26    60    1
    64    26    61    1
@<TRIPOS>SUBSTRUCTURE
     1 RES1        1 GROUP             0 ****  ****    0  
@<TRIPOS>CRYSIN
    1.0000    1.0000    1.0000   90.0000   90.0000   90.0000     1     1
@<TRIPOS>MOLECULE
ligand_89
    61    64     1     0     0
SMALL
USER_CHARGES
****
Generated from the CSD

@<TRIPOS>ATOM
     1 C1      -8.6279 -48.5911 -18.0109   C.3       1 RES1   0.0000
     2 C2      -8.1370 -50.0211 -18.2309   C.3       1 RES1   0.0000
     3 C3      -9.3500 -50.9541 -18.2100   C.2       1 RES1   0.0000
     4 O4     -10.4545 -50.5766 -17.9768   O.2       1 RES1   0.0000
     5 O5      -9.0673 -52.3140 -18.4869   O.3       1 RES1   0.0000
     6 C6     -10.1860 -53.2095 -18.4705   C.ar      1 RES1   0.0000
     7 C7     -10.4283 -54.0005 -17.3455   C.ar      1 RES1   0.0000
     8 C8     -11.5296 -54.8753 -17.3491   C.ar      1 RES1   0.0000
     9 C9     -12.3570 -54.9395 -18.4832   C.ar      1 RES1   0.0000
    10 C10    -12.1070 -54.1448 -19.6171   C.ar      1 RES1   0.0000
    11 C11    -11.0058 -53.2728 -19.6131   C.ar      1 RES1   0.0000
    12 N12    -10.7002 -52.4015 -20.7891   N.pl3     1 RES1   0.0000
    13 C13     -9.5834 -52.6408 -21.7109   C.ar      1 RES1   0.0000
    14 N14     -8.7677 -53.6850 -21.5265   N.ar      1 RES1   0.0000
    15 C15     -7.7596 -53.9055 -22.3570   C.ar      1 RES1   0.0000
    16 N16     -6.8563 -55.0425 -22.1621   N.pl3     1 RES1   0.0000
    17 C17     -6.9698 -55.9875 -21.0358   C.ar      1 RES1   0.0000
    18 C18     -7.3133 -55.4916 -19.7884   C.ar      1 RES1   0.0000
    19 C19     -7.4392 -56.3617 -18.6966   C.ar      1 RES1   0.0000
    20 C20     -7.2173 -57.7248 -18.8637   C.ar      1 RES1   0.0000
    21 N21     -7.3512 -58.6281 -17.6937   N.pl3     1 RES1   0.0000
    22 C22     -7.8696 -59.9903 -17.7713   C.3       1 RES1   0.0000
    23 C23     -7.1382 -60.8779 -16.7945   C.3       1 RES1   0.0000
    24 N24     -7.2339 -60.3325 -15.4084   N.4       1 RES1   1.0000
    25 C25     -6.6041 -61.1035 -14.6035   C.3       1 RES1   0.0000
    26 C26     -6.7591 -58.9180 -15.3655   C.3       1 RES1   0.0000
    27 C27     -7.5119 -58.0683 -16.3584   C.3       1 RES1   0.0000
    28 C28     -6.8732 -58.2269 -20.1126   C.ar      1 RES1   0.0000
    29 C29     -6.7534 -57.3549 -21.2026   C.ar      1 RES1   0.0000
    30 N30     -7.5267 -53.1298 -23.3854   N.ar      1 RES1   0.0000
    31 C31     -8.2875 -52.0738 -23.6455   C.ar      1 RES1   0.0000
    32 C32     -9.3568 -51.8073 -22.7889   C.ar      1 RES1   0.0000
    33 Cl33   -10.3902 -50.4006 -23.1149   Cl        1 RES1   0.0000
    34 H1     -11.2986 -51.5996 -20.9595   H         1 RES1   0.0000
    35 H2      -9.7736 -53.9408 -16.4774   H         1 RES1   0.0000
    36 H3     -11.7394 -55.4976 -16.4804   H         1 RES1   0.0000
    37 H4      -8.5686 -58.0526 -16.0957   H         1 RES1   0.0000
    38 H5      -7.1182 -57.0531 -16.3401   H         1 RES1   0.0000
    39 H6      -6.6974 -59.2936 -20.2437   H         1 RES1   0.0000
    40 H7      -5.5579 -61.1612 -14.9001   H         1 RES1   0.0000
    41 H8      -6.6732 -60.7065 -13.5918   H         1 RES1   0.0000
    42 H9      -7.0455 -62.0986 -14.6340   H         1 RES1   0.0000
    43 H10     -5.6972 -58.8907 -15.6054   H         1 RES1   0.0000
    44 H11     -6.9154 -58.5195 -14.3642   H         1 RES1   0.0000
    45 H12     -7.7287 -60.3727 -18.7812   H         1 RES1   0.0000
    46 H13     -8.9314 -59.9863 -17.5295   H         1 RES1   0.0000
    47 H14     -6.1131 -55.1874 -22.8381   H         1 RES1   0.0000
    48 H15     -6.4902 -57.7466 -22.1841   H         1 RES1   0.0000
    49 H16     -6.0898 -60.9382 -17.0828   H         1 RES1   0.0000
    50 H17     -7.5789 -61.8735 -16.8176   H         1 RES1   0.0000
    51 H18     -8.2129 -60.3386 -15.1404   H         1 RES1   0.0000
    52 H19     -8.0833 -51.4337 -24.5026   H         1 RES1   0.0000
    53 H20     -7.4857 -54.4245 -19.6560   H         1 RES1   0.0000
    54 H21    -13.2088 -55.6180 -18.4845   H         1 RES1   0.0000
    55 H22    -12.7592 -54.2050 -20.4871   H         1 RES1   0.0000
    56 H23     -7.7108 -55.9705 -17.7173   H         1 RES1   0.0000
    57 H24     -9.1334 -48.5249 -17.0486   H         1 RES1   0.0000
    58 H25     -7.7784 -47.9099 -18.0223   H         1 RES1   0.0000
    59 H26     -9.3218 -48.3193 -18.8050   H         1 RES1   0.0000
    60 H27     -7.4449 -50.2990 -17.4374   H         1 RES1   0.0000
    61 H28     -7.6333 -50.0935 -19.1937   H         1 RES1   0.0000
@<TRIPOS>BOND
     1     1     2    1
     2     2     3    1
     3     3     4    2
     4     3     5    1
     5     5     6    1
     6     6     7   ar
     7     7     8   ar
     8     8     9   ar
     9     9    10   ar
    10    10    11   ar
    11    11    12    1
    12    12    13    1
    13    13    14   ar
    14    14    15   ar
    15    15    16    1
    16    16    17    1
    17    17    18   ar
    18    18    19   ar
    19    19    20   ar
    20    20    21    1
    21    21    22    1
    22    22    23    1
    23    23    24    1
    24    24    25    1
    25    24    26    1
    26    26    27    1
    27    20    28   ar
    28    28    29   ar
    29    15    30   ar
    30    30    31   ar
    31    31    32   ar
    32    32    33    1
    33    11     6   ar
    34    32    13   ar
    35    29    17   ar
    36    27    21    1
    37    12    34    1
    38     7    35    1
    39     8    36    1
    40    27    37    1
    41    27    38    1
    42    28    39    1
    43    25    40    1
    44    25    41    1
    45    25    42    1
    46    26    43    1
    47    26    44    1
    48    22    45    1
    49    22    46    1
    50    16    47    1
    51    29    48    1
    52    23    49    1
    53    23    50    1
    54    24    51    1
    55    31    52    1
    56    18    53    1
    57     9    54    1
    58    10    55    1
    59    19    56    1
    60     1    57    1
    61     1    58    1
    62     1    59    1
    63     2    60    1
    64     2    61    1
@<TRIPOS>SUBSTRUCTURE
     1 RES1        1 GROUP             0 ****  ****    0  
@<TRIPOS>CRYSIN
    1.0000    1.0000    1.0000   90.0000   90.0000   90.0000     1     1
@<TRIPOS>MOLECULE
ligand_90
    61    64     1     0     0
SMALL
USER_CHARGES
****
Generated from the CSD

@<TRIPOS>ATOM
     1 C1      -9.4110 -48.5102 -17.3141   C.3       1 RES1   0.0000
     2 C2      -8.6937 -49.8120 -17.6678   C.3       1 RES1   0.0000
     3 C3      -9.7470 -50.9080 -17.8452   C.2       1 RES1   0.0000
     4 O4     -10.9074 -50.7303 -17.6481   O.2       1 RES1   0.0000
     5 O5      -9.2431 -52.1644 -18.2619   O.3       1 RES1   0.0000
     6 C6     -10.2109 -53.2045 -18.4491   C.ar      1 RES1   0.0000
     7 C7     -11.2492 -53.0325 -19.3670   C.ar      1 RES1   0.0000
     8 C8     -12.1911 -54.0635 -19.5349   C.ar      1 RES1   0.0000
     9 C9     -12.0716 -55.2389 -18.7739   C.ar      1 RES1   0.0000
    10 C10    -11.0271 -55.4069 -17.8463   C.ar      1 RES1   0.0000
    11 C11    -10.0881 -54.3758 -17.6780   C.ar      1 RES1   0.0000
    12 N12     -8.9551 -54.5067 -16.7112   N.pl3     1 RES1   0.0000
    13 C13     -8.8233 -55.6141 -15.7570   C.ar      1 RES1   0.0000
    14 N14     -9.8038 -56.5153 -15.6289   N.ar      1 RES1   0.0000
    15 C15     -9.6882 -57.5172 -14.7702   C.ar      1 RES1   0.0000
    16 N16    -10.7576 -58.5069 -14.6171   N.pl3     1 RES1   0.0000
    17 C17    -12.0474 -58.4270 -15.3274   C.ar      1 RES1   0.0000
    18 C18    -12.6729 -59.6067 -15.6975   C.ar      1 RES1   0.0000
    19 C19    -13.9044 -59.5695 -16.3661   C.ar      1 RES1   0.0000
    20 C20    -14.4995 -58.3471 -16.6608   C.ar      1 RES1   0.0000
    21 N21    -15.8013 -58.3299 -17.3735   N.pl3     1 RES1   0.0000
    22 C22    -16.2150 -57.2286 -18.2534   C.3       1 RES1   0.0000
    23 C23    -15.9648 -57.5523 -19.7009   C.3       1 RES1   0.0000
    24 N24    -16.6043 -58.8393 -20.0976   N.4       1 RES1   1.0000
    25 C25    -16.3809 -59.1085 -21.3290   C.3       1 RES1   0.0000
    26 C26    -16.1643 -59.9405 -19.1863   C.3       1 RES1   0.0000
    27 C27    -16.4603 -59.5619 -17.7552   C.3       1 RES1   0.0000
    28 C28    -13.8766 -57.1616 -16.2913   C.ar      1 RES1   0.0000
    29 C29    -12.6484 -57.2028 -15.6186   C.ar      1 RES1   0.0000
    30 N30     -8.6213 -57.6740 -14.0280   N.ar      1 RES1   0.0000
    31 C31     -7.5996 -56.8293 -14.0928   C.ar      1 RES1   0.0000
    32 C32     -7.6880 -55.7582 -14.9834   C.ar      1 RES1   0.0000
    33 Cl33    -6.3345 -54.6137 -15.0895   Cl        1 RES1   0.0000
    34 H1     -12.2071 -60.5641 -15.4686   H         1 RES1   0.0000
    35 H2      -6.7177 -56.9679 -13.4691   H         1 RES1   0.0000
    36 H3      -8.2368 -53.7895 -16.7150   H         1 RES1   0.0000
    37 H4     -15.6524 -56.3345 -17.9889   H         1 RES1   0.0000
    38 H5     -17.2787 -57.0434 -18.1115   H         1 RES1   0.0000
    39 H6     -11.3285 -52.1128 -19.9448   H         1 RES1   0.0000
    40 H7     -13.0061 -53.9519 -20.2486   H         1 RES1   0.0000
    41 H8     -10.6025 -59.2889 -13.9889   H         1 RES1   0.0000
    42 H9     -14.3953 -60.4977 -16.6549   H         1 RES1   0.0000
    43 H10    -15.3075 -59.1893 -21.4940   H         1 RES1   0.0000
    44 H11    -16.8598 -60.0519 -21.5870   H         1 RES1   0.0000
    45 H12    -16.7853 -58.3133 -21.9536   H         1 RES1   0.0000
    46 H13    -15.0939 -60.1028 -19.3043   H         1 RES1   0.0000
    47 H14    -16.7000 -60.8548 -19.4376   H         1 RES1   0.0000
    48 H15    -12.8022 -56.0358 -18.9048   H         1 RES1   0.0000
    49 H16    -10.9476 -56.3250 -17.2660   H         1 RES1   0.0000
    50 H17    -12.1611 -56.2752 -15.3219   H         1 RES1   0.0000
    51 H18    -14.8908 -57.6267 -19.8652   H         1 RES1   0.0000
    52 H19    -16.3717 -56.7517 -20.3168   H         1 RES1   0.0000
    53 H20    -17.6071 -58.7306 -19.9848   H         1 RES1   0.0000
    54 H21    -17.5358 -59.4359 -17.6399   H         1 RES1   0.0000
    55 H22    -16.1164 -60.3620 -17.1013   H         1 RES1   0.0000
    56 H23    -14.3410 -56.2044 -16.5236   H         1 RES1   0.0000
    57 H24     -9.9705 -48.6437 -16.3894   H         1 RES1   0.0000
    58 H25     -8.6778 -47.7157 -17.1833   H         1 RES1   0.0000
    59 H26    -10.0960 -48.2433 -18.1175   H         1 RES1   0.0000
    60 H27     -8.0095 -50.0851 -16.8658   H         1 RES1   0.0000
    61 H28     -8.1351 -49.6848 -18.5939   H         1 RES1   0.0000
@<TRIPOS>BOND
     1     1     2    1
     2     2     3    1
     3     3     4    2
     4     3     5    1
     5     5     6    1
     6     6     7   ar
     7     7     8   ar
     8     8     9   ar
     9     9    10   ar
    10    10    11   ar
    11    11    12    1
    12    12    13    1
    13    13    14   ar
    14    14    15   ar
    15    15    16    1
    16    16    17    1
    17    17    18   ar
    18    18    19   ar
    19    19    20   ar
    20    20    21    1
    21    21    22    1
    22    22    23    1
    23    23    24    1
    24    24    25    1
    25    24    26    1
    26    26    27    1
    27    20    28   ar
    28    28    29   ar
    29    15    30   ar
    30    30    31   ar
    31    31    32   ar
    32    32    33    1
    33    11     6   ar
    34    32    13   ar
    35    29    17   ar
    36    27    21    1
    37    18    34    1
    38    31    35    1
    39    12    36    1
    40    22    37    1
    41    22    38    1
    42     7    39    1
    43     8    40    1
    44    16    41    1
    45    19    42    1
    46    25    43    1
    47    25    44    1
    48    25    45    1
    49    26    46    1
    50    26    47    1
    51     9    48    1
    52    10    49    1
    53    29    50    1
    54    23    51    1
    55    23    52    1
    56    24    53    1
    57    27    54    1
    58    27    55    1
    59    28    56    1
    60     1    57    1
    61     1    58    1
    62     1    59    1
    63     2    60    1
    64     2    61    1
@<TRIPOS>SUBSTRUCTURE
     1 RES1        1 GROUP             0 ****  ****    0  
@<TRIPOS>CRYSIN
    1.0000    1.0000    1.0000   90.0000   90.0000   90.0000     1     1
@<TRIPOS>MOLECULE
ligand_91
    61    64     1     0     0
SMALL
USER_CHARGES
****
Generated from the CSD

@<TRIPOS>ATOM
     1 C1      -8.6749 -48.5858 -17.8937   C.3       1 RES1   0.0000
     2 C2      -8.1717 -50.0022 -18.1675   C.3       1 RES1   0.0000
     3 C3      -9.3720 -50.9514 -18.1439   C.2       1 RES1   0.0000
     4 O4     -10.4750 -50.5956 -17.8726   O.2       1 RES1   0.0000
     5 O5      -9.0792 -52.2989 -18.4674   O.3       1 RES1   0.0000
     6 C6     -10.1887 -53.2060 -18.4660   C.ar      1 RES1   0.0000
     7 C7     -11.2780 -52.9750 -19.3087   C.ar      1 RES1   0.0000
     8 C8     -12.3588 -53.8749 -19.2913   C.ar      1 RES1   0.0000
     9 C9     -12.3229 -54.9808 -18.4249   C.ar      1 RES1   0.0000
    10 C10    -11.2260 -55.2078 -17.5735   C.ar      1 RES1   0.0000
    11 C11    -10.1479 -54.3074 -17.5904   C.ar      1 RES1   0.0000
    12 N12     -8.9551 -54.5067 -16.7112   N.pl3     1 RES1   0.0000
    13 C13     -8.8233 -55.6141 -15.7570   C.ar      1 RES1   0.0000
    14 N14     -9.8038 -56.5153 -15.6289   N.ar      1 RES1   0.0000
    15 C15     -9.6882 -57.5172 -14.7702   C.ar      1 RES1   0.0000
    16 N16    -10.7576 -58.5069 -14.6171   N.pl3     1 RES1   0.0000
    17 C17    -10.6621 -59.6755 -13.7228   C.ar      1 RES1   0.0000
    18 C18    -11.8112 -60.1174 -13.0870   C.ar      1 RES1   0.0000
    19 C19    -11.7600 -61.2308 -12.2368   C.ar      1 RES1   0.0000
    20 C20    -10.5543 -61.8926 -12.0287   C.ar      1 RES1   0.0000
    21 N21    -10.5210 -63.0665 -11.1209   N.pl3     1 RES1   0.0000
    22 C22     -9.3274 -63.4496 -10.3550   C.3       1 RES1   0.0000
    23 C23     -9.3957 -62.9517  -8.9372   C.3       1 RES1   0.0000
    24 N24    -10.6470 -63.3922  -8.2569   N.4       1 RES1   1.0000
    25 C25    -10.6983 -62.9589  -7.0534   C.3       1 RES1   0.0000
    26 C26    -11.8436 -62.9879  -9.0578   C.3       1 RES1   0.0000
    27 C27    -11.7222 -63.5338 -10.4600   C.3       1 RES1   0.0000
    28 C28     -9.3996 -61.4538 -12.6644   C.ar      1 RES1   0.0000
    29 C29     -9.4556 -60.3438 -13.5174   C.ar      1 RES1   0.0000
    30 N30     -8.6213 -57.6740 -14.0280   N.ar      1 RES1   0.0000
    31 C31     -7.5996 -56.8293 -14.0928   C.ar      1 RES1   0.0000
    32 C32     -7.6880 -55.7582 -14.9834   C.ar      1 RES1   0.0000
    33 Cl33    -6.3345 -54.6137 -15.0895   Cl        1 RES1   0.0000
    34 H1     -12.6644 -61.5777 -11.7391   H         1 RES1   0.0000
    35 H2      -9.1569 -48.5541 -16.9177   H         1 RES1   0.0000
    36 H3      -7.8346 -47.8933 -17.9062   H         1 RES1   0.0000
    37 H4      -9.3919 -48.3004 -18.6621   H         1 RES1   0.0000
    38 H5      -7.4565 -50.2938 -17.3998   H         1 RES1   0.0000
    39 H6      -7.6915 -50.0400 -19.1442   H         1 RES1   0.0000
    40 H7     -11.6975 -64.6215 -10.4131   H         1 RES1   0.0000
    41 H8     -12.5884 -63.2149 -11.0379   H         1 RES1   0.0000
    42 H9      -8.4550 -61.9704 -12.5004   H         1 RES1   0.0000
    43 H10     -9.3620 -61.8632  -8.9436   H         1 RES1   0.0000
    44 H11     -8.5397 -63.3381  -8.3860   H         1 RES1   0.0000
    45 H12    -10.6334 -64.4063  -8.2171   H         1 RES1   0.0000
    46 H13    -12.7553 -59.5991 -13.2480   H         1 RES1   0.0000
    47 H14     -8.5533 -60.0016 -14.0220   H         1 RES1   0.0000
    48 H15    -11.2905 -52.1100 -19.9702   H         1 RES1   0.0000
    49 H16     -8.1938 -53.8387 -16.7780   H         1 RES1   0.0000
    50 H17    -10.6709 -61.8703  -7.0581   H         1 RES1   0.0000
    51 H18    -11.6215 -63.2968  -6.5850   H         1 RES1   0.0000
    52 H19     -9.8461 -63.3411  -6.4934   H         1 RES1   0.0000
    53 H20    -11.9040 -61.9012  -9.0959   H         1 RES1   0.0000
    54 H21    -12.7435 -63.3853  -8.5908   H         1 RES1   0.0000
    55 H22    -13.2162 -53.7160 -19.9437   H         1 RES1   0.0000
    56 H23    -13.1610 -55.6761 -18.4122   H         1 RES1   0.0000
    57 H24    -11.2129 -56.0709 -16.9096   H         1 RES1   0.0000
    58 H25    -11.6092 -58.3816 -15.1550   H         1 RES1   0.0000
    59 H26     -6.7177 -56.9679 -13.4691   H         1 RES1   0.0000
    60 H27     -8.4474 -63.0256 -10.8364   H         1 RES1   0.0000
    61 H28     -9.2477 -64.5356 -10.3447   H         1 RES1   0.0000
@<TRIPOS>BOND
     1     1     2    1
     2     2     3    1
     3     3     4    2
     4     3     5    1
     5     5     6    1
     6     6     7   ar
     7     7     8   ar
     8     8     9   ar
     9     9    10   ar
    10    10    11   ar
    11    11    12    1
    12    12    13    1
    13    13    14   ar
    14    14    15   ar
    15    15    16    1
    16    16    17    1
    17    17    18   ar
    18    18    19   ar
    19    19    20   ar
    20    20    21    1
    21    21    22    1
    22    22    23    1
    23    23    24    1
    24    24    25    1
    25    24    26    1
    26    26    27    1
    27    20    28   ar
    28    28    29   ar
    29    15    30   ar
    30    30    31   ar
    31    31    32   ar
    32    32    33    1
    33    11     6   ar
    34    32    13   ar
    35    29    17   ar
    36    27    21    1
    37    19    34    1
    38     1    35    1
    39     1    36    1
    40     1    37    1
    41     2    38    1
    42     2    39    1
    43    27    40    1
    44    27    41    1
    45    28    42    1
    46    23    43    1
    47    23    44    1
    48    24    45    1
    49    18    46    1
    50    29    47    1
    51     7    48    1
    52    12    49    1
    53    25    50    1
    54    25    51    1
    55    25    52    1
    56    26    53    1
    57    26    54    1
    58     8    55    1
    59     9    56    1
    60    10    57    1
    61    16    58    1
    62    31    59    1
    63    22    60    1
    64    22    61    1
@<TRIPOS>SUBSTRUCTURE
     1 RES1        1 GROUP             0 ****  ****    0  
@<TRIPOS>CRYSIN
    1.0000    1.0000    1.0000   90.0000   90.0000   90.0000     1     1
@<TRIPOS>MOLECULE
ligand_92
    61    64     1     0     0
SMALL
USER_CHARGES
****
Generated from the CSD

@<TRIPOS>ATOM
     1 C1      -8.0862 -48.9449 -17.6860   C.3       1 RES1   0.0000
     2 C2      -7.7563 -50.4094 -17.9701   C.3       1 RES1   0.0000
     3 C3      -9.0692 -51.1928 -18.0398   C.2       1 RES1   0.0000
     4 O4     -10.1306 -50.7005 -17.8209   O.2       1 RES1   0.0000
     5 O5      -8.9357 -52.5603 -18.3835   O.3       1 RES1   0.0000
     6 C6     -10.1491 -53.3210 -18.4383   C.ar      1 RES1   0.0000
     7 C7     -10.9452 -53.4450 -17.2977   C.ar      1 RES1   0.0000
     8 C8     -12.1311 -54.1977 -17.3702   C.ar      1 RES1   0.0000
     9 C9     -12.4860 -54.8123 -18.5832   C.ar      1 RES1   0.0000
    10 C10    -11.6790 -54.6895 -19.7292   C.ar      1 RES1   0.0000
    11 C11    -10.4939 -53.9390 -19.6551   C.ar      1 RES1   0.0000
    12 N12     -9.6047 -53.7710 -20.8454   N.pl3     1 RES1   0.0000
    13 C13     -9.3523 -54.8311 -21.8287   C.ar      1 RES1   0.0000
    14 N14     -9.9009 -56.0412 -21.6727   N.ar      1 RES1   0.0000
    15 C15     -9.6770 -57.0001 -22.5586   C.ar      1 RES1   0.0000
    16 N16    -10.2676 -58.3310 -22.3955   N.pl3     1 RES1   0.0000
    17 C17    -11.2501 -58.6617 -21.3467   C.ar      1 RES1   0.0000
    18 C18    -12.2163 -57.7219 -21.0255   C.ar      1 RES1   0.0000
    19 C19    -13.1721 -58.0053 -20.0399   C.ar      1 RES1   0.0000
    20 C20    -13.1504 -59.2304 -19.3813   C.ar      1 RES1   0.0000
    21 N21    -14.1685 -59.5085 -18.3377   N.pl3     1 RES1   0.0000
    22 C22    -13.9932 -60.4866 -17.2687   C.3       1 RES1   0.0000
    23 C23    -14.6440 -59.9892 -16.0014   C.3       1 RES1   0.0000
    24 N24    -16.0860 -59.6807 -16.2318   N.4       1 RES1   1.0000
    25 C25    -16.6104 -59.2600 -15.1424   C.3       1 RES1   0.0000
    26 C26    -16.2452 -58.7289 -17.3707   C.3       1 RES1   0.0000
    27 C27    -15.5775 -59.2621 -18.6136   C.3       1 RES1   0.0000
    28 C28    -12.1840 -60.1761 -19.7003   C.ar      1 RES1   0.0000
    29 C29    -11.2336 -59.8915 -20.6895   C.ar      1 RES1   0.0000
    30 N30     -8.9294 -56.8063 -23.6156   N.ar      1 RES1   0.0000
    31 C31     -8.3490 -55.6360 -23.8508   C.ar      1 RES1   0.0000
    32 C32     -8.5586 -54.6028 -22.9360   C.ar      1 RES1   0.0000
    33 Cl33    -7.7935 -53.0273 -23.2277   Cl        1 RES1   0.0000
    34 H1     -10.6519 -52.9655 -16.3650   H         1 RES1   0.0000
    35 H2     -16.5511 -60.5466 -16.4849   H         1 RES1   0.0000
    36 H3     -16.0937 -58.3590 -14.8150   H         1 RES1   0.0000
    37 H4     -17.6626 -59.0346 -15.3094   H         1 RES1   0.0000
    38 H5     -16.5210 -60.0285 -14.3760   H         1 RES1   0.0000
    39 H6      -9.1502 -52.8736 -20.9810   H         1 RES1   0.0000
    40 H7     -12.2332 -56.7619 -21.5393   H         1 RES1   0.0000
    41 H8     -13.9318 -57.2662 -19.7898   H         1 RES1   0.0000
    42 H9     -12.1653 -61.1346 -19.1836   H         1 RES1   0.0000
    43 H10    -10.4790 -60.6336 -20.9462   H         1 RES1   0.0000
    44 H11     -7.7272 -55.4862 -24.7322   H         1 RES1   0.0000
    45 H12    -15.7930 -57.7748 -17.1041   H         1 RES1   0.0000
    46 H13    -17.3061 -58.5848 -17.5696   H         1 RES1   0.0000
    47 H14    -16.0573 -60.1927 -18.9131   H         1 RES1   0.0000
    48 H15    -15.6683 -58.5321 -19.4165   H         1 RES1   0.0000
    49 H16     -8.6168 -48.8696 -16.7380   H         1 RES1   0.0000
    50 H17     -7.1636 -48.3688 -17.6324   H         1 RES1   0.0000
    51 H18     -8.7133 -48.5524 -18.4851   H         1 RES1   0.0000
    52 H19    -12.9298 -60.6403 -17.0915   H         1 RES1   0.0000
    53 H20    -14.4520 -61.4292 -17.5636   H         1 RES1   0.0000
    54 H21    -14.1344 -59.0860 -15.6691   H         1 RES1   0.0000
    55 H22    -14.5614 -60.7563 -15.2328   H         1 RES1   0.0000
    56 H23    -11.9695 -55.1703 -20.6621   H         1 RES1   0.0000
    57 H24    -12.7689 -54.3034 -16.4938   H         1 RES1   0.0000
    58 H25    -13.4042 -55.3954 -18.6372   H         1 RES1   0.0000
    59 H26     -7.1317 -50.8077 -17.1719   H         1 RES1   0.0000
    60 H27     -7.2282 -50.4905 -18.9190   H         1 RES1   0.0000
    61 H28     -9.9856 -59.0641 -23.0384   H         1 RES1   0.0000
@<TRIPOS>BOND
     1     1     2    1
     2     2     3    1
     3     3     4    2
     4     3     5    1
     5     5     6    1
     6     6     7   ar
     7     7     8   ar
     8     8     9   ar
     9     9    10   ar
    10    10    11   ar
    11    11    12    1
    12    12    13    1
    13    13    14   ar
    14    14    15   ar
    15    15    16    1
    16    16    17    1
    17    17    18   ar
    18    18    19   ar
    19    19    20   ar
    20    20    21    1
    21    21    22    1
    22    22    23    1
    23    23    24    1
    24    24    25    1
    25    24    26    1
    26    26    27    1
    27    20    28   ar
    28    28    29   ar
    29    15    30   ar
    30    30    31   ar
    31    31    32   ar
    32    32    33    1
    33    11     6   ar
    34    32    13   ar
    35    29    17   ar
    36    27    21    1
    37     7    34    1
    38    24    35    1
    39    25    36    1
    40    25    37    1
    41    25    38    1
    42    12    39    1
    43    18    40    1
    44    19    41    1
    45    28    42    1
    46    29    43    1
    47    31    44    1
    48    26    45    1
    49    26    46    1
    50    27    47    1
    51    27    48    1
    52     1    49    1
    53     1    50    1
    54     1    51    1
    55    22    52    1
    56    22    53    1
    57    23    54    1
    58    23    55    1
    59    10    56    1
    60     8    57    1
    61     9    58    1
    62     2    59    1
    63     2    60    1
    64    16    61    1
@<TRIPOS>SUBSTRUCTURE
     1 RES1        1 GROUP             0 ****  ****    0  
@<TRIPOS>CRYSIN
    1.0000    1.0000    1.0000   90.0000   90.0000   90.0000     1     1
@<TRIPOS>MOLECULE
ligand_93
    61    64     1     0     0
SMALL
USER_CHARGES
****
Generated from the CSD

@<TRIPOS>ATOM
     1 C1      -8.4085 -48.7048 -18.3166   C.3       1 RES1   0.0000
     2 C2      -7.9948 -50.1628 -18.5097   C.3       1 RES1   0.0000
     3 C3      -9.2425 -51.0385 -18.3720   C.2       1 RES1   0.0000
     4 O4     -10.3119 -50.6029 -18.0830   O.2       1 RES1   0.0000
     5 O5      -9.0372 -52.4193 -18.6112   O.3       1 RES1   0.0000
     6 C6     -10.1928 -53.2597 -18.5018   C.ar      1 RES1   0.0000
     7 C7     -11.3041 -53.0247 -19.3141   C.ar      1 RES1   0.0000
     8 C8     -12.4300 -53.8585 -19.1904   C.ar      1 RES1   0.0000
     9 C9     -12.4157 -54.9036 -18.2509   C.ar      1 RES1   0.0000
    10 C10    -11.2962 -55.1344 -17.4304   C.ar      1 RES1   0.0000
    11 C11    -10.1730 -54.2999 -17.5535   C.ar      1 RES1   0.0000
    12 N12     -8.9551 -54.5067 -16.7112   N.pl3     1 RES1   0.0000
    13 C13     -8.4951 -55.8237 -16.2551   C.ar      1 RES1   0.0000
    14 N14     -9.1524 -56.9312 -16.6173   N.ar      1 RES1   0.0000
    15 C15     -8.7396 -58.1218 -16.2093   C.ar      1 RES1   0.0000
    16 N16     -9.4546 -59.3412 -16.5947   N.pl3     1 RES1   0.0000
    17 C17     -9.0943 -60.6845 -16.1046   C.ar      1 RES1   0.0000
    18 C18     -8.6492 -60.8148 -14.7989   C.ar      1 RES1   0.0000
    19 C19     -8.3065 -62.0776 -14.2959   C.ar      1 RES1   0.0000
    20 C20     -8.4111 -63.2020 -15.1082   C.ar      1 RES1   0.0000
    21 N21     -8.0387 -64.5291 -14.5576   N.pl3     1 RES1   0.0000
    22 C22     -8.0280 -64.8460 -13.1329   C.3       1 RES1   0.0000
    23 C23     -8.4705 -66.2725 -12.9176   C.3       1 RES1   0.0000
    24 N24     -7.6152 -67.2161 -13.6961   N.4       1 RES1   1.0000
    25 C25     -8.0143 -68.4158 -13.4959   C.3       1 RES1   0.0000
    26 C26     -7.5893 -66.8346 -15.1390   C.3       1 RES1   0.0000
    27 C27     -7.1467 -65.4027 -15.3081   C.3       1 RES1   0.0000
    28 C28     -8.8575 -63.0767 -16.4178   C.ar      1 RES1   0.0000
    29 C29     -9.2041 -61.8137 -16.9155   C.ar      1 RES1   0.0000
    30 N30     -7.6802 -58.2666 -15.4541   N.ar      1 RES1   0.0000
    31 C31     -6.9666 -57.2227 -15.0509   C.ar      1 RES1   0.0000
    32 C32     -7.3745 -55.9513 -15.4575   C.ar      1 RES1   0.0000
    33 Cl33    -6.4369 -54.5380 -14.9318   Cl        1 RES1   0.0000
    34 H1     -13.3054 -53.6956 -19.8173   H         1 RES1   0.0000
    35 H2     -13.2886 -55.5477 -18.1560   H         1 RES1   0.0000
    36 H3     -11.3005 -55.9500 -16.7088   H         1 RES1   0.0000
    37 H4      -6.6679 -67.1415 -13.3392   H         1 RES1   0.0000
    38 H5      -9.0497 -68.5126 -13.8190   H         1 RES1   0.0000
    39 H6      -7.3910 -69.1052 -14.0634   H         1 RES1   0.0000
    40 H7      -7.9417 -68.6502 -12.4349   H         1 RES1   0.0000
    41 H8      -8.9377 -63.9563 -17.0548   H         1 RES1   0.0000
    42 H9      -9.5606 -61.7134 -17.9396   H         1 RES1   0.0000
    43 H10     -8.7072 -64.1749 -12.6092   H         1 RES1   0.0000
    44 H11     -7.0193 -64.7186 -12.7428   H         1 RES1   0.0000
    45 H12     -9.5049 -66.3782 -13.2414   H         1 RES1   0.0000
    46 H13     -8.3953 -66.5136 -11.8583   H         1 RES1   0.0000
    47 H14     -8.4162 -53.6906 -16.4396   H         1 RES1   0.0000
    48 H15     -8.5882 -66.9509 -15.5567   H         1 RES1   0.0000
    49 H16     -6.8963 -67.4871 -15.6681   H         1 RES1   0.0000
    50 H17     -6.1296 -65.2903 -14.9355   H         1 RES1   0.0000
    51 H18     -7.1784 -65.1347 -16.3631   H         1 RES1   0.0000
    52 H19    -10.2394 -59.2569 -17.2328   H         1 RES1   0.0000
    53 H20     -8.8454 -48.5795 -17.3270   H         1 RES1   0.0000
    54 H21     -7.5333 -48.0636 -18.4109   H         1 RES1   0.0000
    55 H22     -9.1416 -48.4321 -19.0743   H         1 RES1   0.0000
    56 H23    -11.2990 -52.2071 -20.0334   H         1 RES1   0.0000
    57 H24     -6.0881 -57.3544 -14.4210   H         1 RES1   0.0000
    58 H25     -7.2638 -50.4416 -17.7522   H         1 RES1   0.0000
    59 H26     -7.5600 -50.2942 -19.4995   H         1 RES1   0.0000
    60 H27     -8.5655 -59.9350 -14.1626   H         1 RES1   0.0000
    61 H28     -7.9583 -62.1784 -13.2690   H         1 RES1   0.0000
@<TRIPOS>BOND
     1     1     2    1
     2     2     3    1
     3     3     4    2
     4     3     5    1
     5     5     6    1
     6     6     7   ar
     7     7     8   ar
     8     8     9   ar
     9     9    10   ar
    10    10    11   ar
    11    11    12    1
    12    12    13    1
    13    13    14   ar
    14    14    15   ar
    15    15    16    1
    16    16    17    1
    17    17    18   ar
    18    18    19   ar
    19    19    20   ar
    20    20    21    1
    21    21    22    1
    22    22    23    1
    23    23    24    1
    24    24    25    1
    25    24    26    1
    26    26    27    1
    27    20    28   ar
    28    28    29   ar
    29    15    30   ar
    30    30    31   ar
    31    31    32   ar
    32    32    33    1
    33    11     6   ar
    34    32    13   ar
    35    29    17   ar
    36    27    21    1
    37     8    34    1
    38     9    35    1
    39    10    36    1
    40    24    37    1
    41    25    38    1
    42    25    39    1
    43    25    40    1
    44    28    41    1
    45    29    42    1
    46    22    43    1
    47    22    44    1
    48    23    45    1
    49    23    46    1
    50    12    47    1
    51    26    48    1
    52    26    49    1
    53    27    50    1
    54    27    51    1
    55    16    52    1
    56     1    53    1
    57     1    54    1
    58     1    55    1
    59     7    56    1
    60    31    57    1
    61     2    58    1
    62     2    59    1
    63    18    60    1
    64    19    61    1
@<TRIPOS>SUBSTRUCTURE
     1 RES1        1 GROUP             0 ****  ****    0  
@<TRIPOS>CRYSIN
    1.0000    1.0000    1.0000   90.0000   90.0000   90.0000     1     1
@<TRIPOS>MOLECULE
ligand_94
    61    64     1     0     0
SMALL
USER_CHARGES
****
Generated from the CSD

@<TRIPOS>ATOM
     1 C1      -9.6200 -48.3722 -17.8936   C.3       1 RES1   0.0000
     2 C2      -8.8524 -49.6673 -18.1539   C.3       1 RES1   0.0000
     3 C3      -9.8514 -50.8267 -18.1513   C.2       1 RES1   0.0000
     4 O4     -11.0070 -50.6865 -17.9025   O.2       1 RES1   0.0000
     5 O5      -9.3025 -52.0940 -18.4656   O.3       1 RES1   0.0000
     6 C6     -10.2169 -53.1975 -18.4671   C.ar      1 RES1   0.0000
     7 C7     -10.7580 -53.6518 -19.6716   C.ar      1 RES1   0.0000
     8 C8     -11.6557 -54.7343 -19.6527   C.ar      1 RES1   0.0000
     9 C9     -11.9930 -55.3305 -18.4256   C.ar      1 RES1   0.0000
    10 C10    -11.4499 -54.8670 -17.2132   C.ar      1 RES1   0.0000
    11 C11    -10.5548 -53.7846 -17.2331   C.ar      1 RES1   0.0000
    12 N12     -9.9437 -53.2583 -15.9741   N.pl3     1 RES1   0.0000
    13 C13    -10.3420 -53.6964 -14.6311   C.ar      1 RES1   0.0000
    14 N14    -11.3823 -54.5222 -14.4712   N.ar      1 RES1   0.0000
    15 C15    -11.7441 -54.9213 -13.2611   C.ar      1 RES1   0.0000
    16 N16    -12.8851 -55.8210 -13.0730   N.pl3     1 RES1   0.0000
    17 C17    -13.7494 -56.2799 -14.1762   C.ar      1 RES1   0.0000
    18 C18    -14.2950 -57.5515 -14.1039   C.ar      1 RES1   0.0000
    19 C19    -15.1286 -58.0179 -15.1299   C.ar      1 RES1   0.0000
    20 C20    -15.4076 -57.2048 -16.2237   C.ar      1 RES1   0.0000
    21 N21    -16.2888 -57.7197 -17.3014   N.pl3     1 RES1   0.0000
    22 C22    -15.7743 -58.2102 -18.5870   C.3       1 RES1   0.0000
    23 C23    -15.6697 -59.7107 -18.6055   C.3       1 RES1   0.0000
    24 N24    -16.9646 -60.3590 -18.2511   N.4       1 RES1   1.0000
    25 C25    -16.8637 -61.6351 -18.2641   C.3       1 RES1   0.0000
    26 C26    -17.4626 -59.8418 -16.9392   C.3       1 RES1   0.0000
    27 C27    -17.5627 -58.3364 -16.9937   C.3       1 RES1   0.0000
    28 C28    -14.8634 -55.9289 -16.3004   C.ar      1 RES1   0.0000
    29 C29    -14.0350 -55.4642 -15.2706   C.ar      1 RES1   0.0000
    30 N30    -11.1030 -54.5402 -12.1853   N.ar      1 RES1   0.0000
    31 C31    -10.0578 -53.7249 -12.2517   C.ar      1 RES1   0.0000
    32 C32     -9.6504 -53.2798 -13.5103   C.ar      1 RES1   0.0000
    33 Cl33    -8.2546 -52.1884 -13.6265   Cl        1 RES1   0.0000
    34 H1     -14.7864 -57.7850 -18.7577   H         1 RES1   0.0000
    35 H2     -16.4482 -57.8931 -19.3815   H         1 RES1   0.0000
    36 H3     -14.9120 -60.0204 -17.8873   H         1 RES1   0.0000
    37 H4     -15.3762 -60.0316 -19.6039   H         1 RES1   0.0000
    38 H5      -9.5331 -53.4122 -11.3501   H         1 RES1   0.0000
    39 H6     -15.0798 -55.2927 -17.1573   H         1 RES1   0.0000
    40 H7     -13.6124 -54.4620 -15.3250   H         1 RES1   0.0000
    41 H8     -12.0858 -55.1073 -20.5810   H         1 RES1   0.0000
    42 H9     -12.6888 -56.1682 -18.4128   H         1 RES1   0.0000
    43 H10    -11.7201 -55.3415 -16.2710   H         1 RES1   0.0000
    44 H11    -14.0759 -58.1894 -13.2489   H         1 RES1   0.0000
    45 H12    -15.5579 -59.0170 -15.0707   H         1 RES1   0.0000
    46 H13    -10.4886 -53.1745 -20.6126   H         1 RES1   0.0000
    47 H14    -17.6421 -60.0980 -18.9604   H         1 RES1   0.0000
    48 H15    -16.1106 -61.9471 -17.5420   H         1 RES1   0.0000
    49 H16    -17.8235 -62.0778 -18.0018   H         1 RES1   0.0000
    50 H17    -16.5712 -61.9660 -19.2595   H         1 RES1   0.0000
    51 H18    -10.1184 -48.4336 -16.9273   H         1 RES1   0.0000
    52 H19     -8.9259 -47.5330 -17.8914   H         1 RES1   0.0000
    53 H20    -10.3628 -48.2269 -18.6766   H         1 RES1   0.0000
    54 H21     -8.1101 -49.8190 -17.3716   H         1 RES1   0.0000
    55 H22     -8.3546 -49.6123 -19.1209   H         1 RES1   0.0000
    56 H23    -16.7707 -60.1307 -16.1494   H         1 RES1   0.0000
    57 H24    -18.4453 -60.2632 -16.7329   H         1 RES1   0.0000
    58 H25    -18.2825 -58.0593 -17.7625   H         1 RES1   0.0000
    59 H26    -17.9058 -57.9714 -16.0267   H         1 RES1   0.0000
    60 H27    -13.0916 -56.1456 -12.1337   H         1 RES1   0.0000
    61 H28     -9.2124 -52.5588 -16.0526   H         1 RES1   0.0000
@<TRIPOS>BOND
     1     1     2    1
     2     2     3    1
     3     3     4    2
     4     3     5    1
     5     5     6    1
     6     6     7   ar
     7     7     8   ar
     8     8     9   ar
     9     9    10   ar
    10    10    11   ar
    11    11    12    1
    12    12    13    1
    13    13    14   ar
    14    14    15   ar
    15    15    16    1
    16    16    17    1
    17    17    18   ar
    18    18    19   ar
    19    19    20   ar
    20    20    21    1
    21    21    22    1
    22    22    23    1
    23    23    24    1
    24    24    25    1
    25    24    26    1
    26    26    27    1
    27    20    28   ar
    28    28    29   ar
    29    15    30   ar
    30    30    31   ar
    31    31    32   ar
    32    32    33    1
    33    11     6   ar
    34    32    13   ar
    35    29    17   ar
    36    27    21    1
    37    22    34    1
    38    22    35    1
    39    23    36    1
    40    23    37    1
    41    31    38    1
    42    28    39    1
    43    29    40    1
    44     8    41    1
    45     9    42    1
    46    10    43    1
    47    18    44    1
    48    19    45    1
    49     7    46    1
    50    24    47    1
    51    25    48    1
    52    25    49    1
    53    25    50    1
    54     1    51    1
    55     1    52    1
    56     1    53    1
    57     2    54    1
    58     2    55    1
    59    26    56    1
    60    26    57    1
    61    27    58    1
    62    27    59    1
    63    16    60    1
    64    12    61    1
@<TRIPOS>SUBSTRUCTURE
     1 RES1        1 GROUP             0 ****  ****    0  
@<TRIPOS>CRYSIN
    1.0000    1.0000    1.0000   90.0000   90.0000   90.0000     1     1
@<TRIPOS>MOLECULE
ligand_95
    61    64     1     0     0
SMALL
USER_CHARGES
****
Generated from the CSD

@<TRIPOS>ATOM
     1 C1      -7.7520 -48.9950 -18.2920   C.3       1 RES1   0.0000
     2 C2      -7.5569 -50.4970 -18.4929   C.3       1 RES1   0.0000
     3 C3      -8.9195 -51.1807 -18.3583   C.2       1 RES1   0.0000
     4 O4      -9.9133 -50.5943 -18.0661   O.2       1 RES1   0.0000
     5 O5      -8.9191 -52.5754 -18.6047   O.3       1 RES1   0.0000
     6 C6     -10.1827 -53.2405 -18.4823   C.ar      1 RES1   0.0000
     7 C7     -10.4885 -53.9452 -17.3162   C.ar      1 RES1   0.0000
     8 C8     -11.7325 -54.5938 -17.2156   C.ar      1 RES1   0.0000
     9 C9     -12.6364 -54.5244 -18.2895   C.ar      1 RES1   0.0000
    10 C10    -12.3230 -53.8177 -19.4650   C.ar      1 RES1   0.0000
    11 C11    -11.0795 -53.1719 -19.5651   C.ar      1 RES1   0.0000
    12 N12    -10.7002 -52.4015 -20.7891   N.pl3     1 RES1   0.0000
    13 C13    -11.4932 -52.3939 -22.0242   C.ar      1 RES1   0.0000
    14 N14    -12.5573 -53.1952 -22.1482   N.ar      1 RES1   0.0000
    15 C15    -13.2766 -53.1903 -23.2605   C.ar      1 RES1   0.0000
    16 N16    -14.4406 -54.0674 -23.4102   N.pl3     1 RES1   0.0000
    17 C17    -14.8490 -55.0569 -22.3960   C.ar      1 RES1   0.0000
    18 C18    -16.1997 -55.3212 -22.2361   C.ar      1 RES1   0.0000
    19 C19    -16.6242 -56.2625 -21.2880   C.ar      1 RES1   0.0000
    20 C20    -15.6893 -56.9314 -20.5046   C.ar      1 RES1   0.0000
    21 N21    -16.1602 -57.9207 -19.5033   N.pl3     1 RES1   0.0000
    22 C22    -16.2323 -57.6286 -18.0654   C.3       1 RES1   0.0000
    23 C23    -17.6263 -57.2491 -17.6465   C.3       1 RES1   0.0000
    24 N24    -18.6236 -58.2829 -18.0455   N.4       1 RES1   1.0000
    25 C25    -19.8068 -57.9481 -17.6897   C.3       1 RES1   0.0000
    26 C26    -18.5278 -58.5583 -19.5123   C.3       1 RES1   0.0000
    27 C27    -17.1127 -58.9511 -19.8622   C.3       1 RES1   0.0000
    28 C28    -14.3339 -56.6703 -20.6616   C.ar      1 RES1   0.0000
    29 C29    -13.9130 -55.7327 -21.6138   C.ar      1 RES1   0.0000
    30 N30    -12.9892 -52.4055 -24.2681   N.ar      1 RES1   0.0000
    31 C31    -11.9536 -51.5763 -24.2294   C.ar      1 RES1   0.0000
    32 C32    -11.1696 -51.5573 -23.0747   C.ar      1 RES1   0.0000
    33 Cl33    -9.7784 -50.4568 -22.9975   Cl        1 RES1   0.0000
    34 H1     -15.5582 -56.8041 -17.8381   H         1 RES1   0.0000
    35 H2     -15.9246 -58.5129 -17.5093   H         1 RES1   0.0000
    36 H3     -17.8909 -56.3034 -18.1172   H         1 RES1   0.0000
    37 H4     -17.6505 -57.1349 -16.5638   H         1 RES1   0.0000
    38 H5      -8.1654 -48.8120 -17.3013   H         1 RES1   0.0000
    39 H6      -6.7922 -48.4888 -18.3840   H         1 RES1   0.0000
    40 H7      -8.4374 -48.6137 -19.0475   H         1 RES1   0.0000
    41 H8     -13.6017 -57.1922 -20.0472   H         1 RES1   0.0000
    42 H9     -12.8508 -55.5309 -21.7436   H         1 RES1   0.0000
    43 H10    -11.9930 -55.1450 -16.3133   H         1 RES1   0.0000
    44 H11    -13.5988 -55.0278 -18.2102   H         1 RES1   0.0000
    45 H12    -16.9325 -54.7970 -22.8478   H         1 RES1   0.0000
    46 H13    -17.6861 -56.4702 -21.1647   H         1 RES1   0.0000
    47 H14    -13.0356 -53.7719 -20.2872   H         1 RES1   0.0000
    48 H15     -9.8465 -51.8530 -20.7645   H         1 RES1   0.0000
    49 H16     -9.7737 -53.9920 -16.4960   H         1 RES1   0.0000
    50 H17    -11.7222 -50.9293 -25.0743   H         1 RES1   0.0000
    51 H18     -6.8745 -50.8840 -17.7376   H         1 RES1   0.0000
    52 H19     -7.1465 -50.6857 -19.4838   H         1 RES1   0.0000
    53 H20    -14.9952 -53.9898 -24.2567   H         1 RES1   0.0000
    54 H21    -18.3879 -59.1407 -17.5567   H         1 RES1   0.0000
    55 H22    -20.0755 -57.0055 -18.1643   H         1 RES1   0.0000
    56 H23    -20.5101 -58.7216 -17.9947   H         1 RES1   0.0000
    57 H24    -19.8413 -57.8324 -16.6074   H         1 RES1   0.0000
    58 H25    -18.8034 -57.6632 -20.0679   H         1 RES1   0.0000
    59 H26    -19.2046 -59.3705 -19.7736   H         1 RES1   0.0000
    60 H27    -16.8593 -59.8658 -19.3283   H         1 RES1   0.0000
    61 H28    -17.0518 -59.1282 -20.9350   H         1 RES1   0.0000
@<TRIPOS>BOND
     1     1     2    1
     2     2     3    1
     3     3     4    2
     4     3     5    1
     5     5     6    1
     6     6     7   ar
     7     7     8   ar
     8     8     9   ar
     9     9    10   ar
    10    10    11   ar
    11    11    12    1
    12    12    13    1
    13    13    14   ar
    14    14    15   ar
    15    15    16    1
    16    16    17    1
    17    17    18   ar
    18    18    19   ar
    19    19    20   ar
    20    20    21    1
    21    21    22    1
    22    22    23    1
    23    23    24    1
    24    24    25    1
    25    24    26    1
    26    26    27    1
    27    20    28   ar
    28    28    29   ar
    29    15    30   ar
    30    30    31   ar
    31    31    32   ar
    32    32    33    1
    33    11     6   ar
    34    32    13   ar
    35    29    17   ar
    36    27    21    1
    37    22    34    1
    38    22    35    1
    39    23    36    1
    40    23    37    1
    41     1    38    1
    42     1    39    1
    43     1    40    1
    44    28    41    1
    45    29    42    1
    46     8    43    1
    47     9    44    1
    48    18    45    1
    49    19    46    1
    50    10    47    1
    51    12    48    1
    52     7    49    1
    53    31    50    1
    54     2    51    1
    55     2    52    1
    56    16    53    1
    57    24    54    1
    58    25    55    1
    59    25    56    1
    60    25    57    1
    61    26    58    1
    62    26    59    1
    63    27    60    1
    64    27    61    1
@<TRIPOS>SUBSTRUCTURE
     1 RES1        1 GROUP             0 ****  ****    0  
@<TRIPOS>CRYSIN
    1.0000    1.0000    1.0000   90.0000   90.0000   90.0000     1     1
@<TRIPOS>MOLECULE
ligand_96
    61    64     1     0     0
SMALL
USER_CHARGES
****
Generated from the CSD

@<TRIPOS>ATOM
     1 C1      -8.7443 -48.5503 -17.9890   C.3       1 RES1   0.0000
     2 C2      -8.2195 -49.9670 -18.2174   C.3       1 RES1   0.0000
     3 C3      -9.4098 -50.9289 -18.1990   C.2       1 RES1   0.0000
     4 O4     -10.5226 -50.5793 -17.9619   O.2       1 RES1   0.0000
     5 O5      -9.0950 -52.2802 -18.4836   O.3       1 RES1   0.0000
     6 C6     -10.1918 -53.2025 -18.4698   C.ar      1 RES1   0.0000
     7 C7     -10.8006 -53.5782 -19.6691   C.ar      1 RES1   0.0000
     8 C8     -11.8775 -54.4823 -19.6352   C.ar      1 RES1   0.0000
     9 C9     -12.3208 -54.9826 -18.3990   C.ar      1 RES1   0.0000
    10 C10    -11.7083 -54.5980 -17.1921   C.ar      1 RES1   0.0000
    11 C11    -10.6341 -53.6935 -17.2269   C.ar      1 RES1   0.0000
    12 N12     -9.9437 -53.2583 -15.9741   N.pl3     1 RES1   0.0000
    13 C13    -10.3420 -53.6964 -14.6311   C.ar      1 RES1   0.0000
    14 N14    -11.3823 -54.5222 -14.4712   N.ar      1 RES1   0.0000
    15 C15    -11.7441 -54.9213 -13.2611   C.ar      1 RES1   0.0000
    16 N16    -12.8851 -55.8210 -13.0730   N.pl3     1 RES1   0.0000
    17 C17    -13.2985 -56.3463 -11.7586   C.ar      1 RES1   0.0000
    18 C18    -14.6491 -56.5437 -11.5202   C.ar      1 RES1   0.0000
    19 C19    -15.0781 -57.0502 -10.2855   C.ar      1 RES1   0.0000
    20 C20    -14.1479 -57.3536  -9.2967   C.ar      1 RES1   0.0000
    21 N21    -14.6236 -57.8844  -7.9948   N.pl3     1 RES1   0.0000
    22 C22    -14.7152 -57.0602  -6.7822   C.3       1 RES1   0.0000
    23 C23    -16.1169 -56.5642  -6.5542   C.3       1 RES1   0.0000
    24 N24    -17.1017 -57.6833  -6.5308   N.4       1 RES1   1.0000
    25 C25    -18.2916 -57.2506  -6.3421   C.3       1 RES1   0.0000
    26 C26    -16.9861 -58.5031  -7.7763   C.3       1 RES1   0.0000
    27 C27    -15.5641 -58.9843  -7.9354   C.3       1 RES1   0.0000
    28 C28    -12.7926 -57.1580  -9.5311   C.ar      1 RES1   0.0000
    29 C29    -12.3672 -56.6565 -10.7682   C.ar      1 RES1   0.0000
    30 N30    -11.1030 -54.5402 -12.1853   N.ar      1 RES1   0.0000
    31 C31    -10.0578 -53.7249 -12.2517   C.ar      1 RES1   0.0000
    32 C32     -9.6504 -53.2798 -13.5103   C.ar      1 RES1   0.0000
    33 Cl33    -8.2546 -52.1884 -13.6265   Cl        1 RES1   0.0000
    34 H1     -15.3783 -56.3051 -12.2930   H         1 RES1   0.0000
    35 H2     -13.4192 -56.0973 -13.8907   H         1 RES1   0.0000
    36 H3      -9.5331 -53.4122 -11.3501   H         1 RES1   0.0000
    37 H4      -9.1554 -52.6244 -16.0570   H         1 RES1   0.0000
    38 H5     -15.3104 -59.6187  -7.0874   H         1 RES1   0.0000
    39 H6     -15.4889 -59.5615  -8.8558   H         1 RES1   0.0000
    40 H7     -12.0641 -57.3934  -8.7567   H         1 RES1   0.0000
    41 H8     -11.3050 -56.5084 -10.9571   H         1 RES1   0.0000
    42 H9     -13.1552 -55.6820 -18.3747   H         1 RES1   0.0000
    43 H10    -12.0627 -54.9966 -16.2427   H         1 RES1   0.0000
    44 H11    -18.5614 -56.5679  -7.1465   H         1 RES1   0.0000
    45 H12    -18.9854 -58.0899  -6.3302   H         1 RES1   0.0000
    46 H13    -18.3402 -56.7259  -5.3891   H         1 RES1   0.0000
    47 H14    -17.2616 -57.8955  -8.6370   H         1 RES1   0.0000
    48 H15    -17.6536 -59.3609  -7.7089   H         1 RES1   0.0000
    49 H16    -16.3828 -55.8770  -7.3561   H         1 RES1   0.0000
    50 H17    -16.1550 -56.0407  -5.6000   H         1 RES1   0.0000
    51 H18    -16.8657 -58.2827  -5.7465   H         1 RES1   0.0000
    52 H19    -16.1398 -57.2062 -10.1004   H         1 RES1   0.0000
    53 H20    -14.0499 -56.2043  -6.8856   H         1 RES1   0.0000
    54 H21    -14.4078 -57.6574  -5.9250   H         1 RES1   0.0000
    55 H22     -9.2493 -48.5012 -17.0254   H         1 RES1   0.0000
    56 H23     -7.9114 -47.8487 -17.9985   H         1 RES1   0.0000
    57 H24     -9.4462 -48.2912 -18.7803   H         1 RES1   0.0000
    58 H25     -7.5193 -50.2323 -17.4266   H         1 RES1   0.0000
    59 H26     -7.7162 -50.0223 -19.1815   H         1 RES1   0.0000
    60 H27    -10.4465 -53.1767 -20.6174   H         1 RES1   0.0000
    61 H28    -12.3637 -54.7920 -20.5591   H         1 RES1   0.0000
@<TRIPOS>BOND
     1     1     2    1
     2     2     3    1
     3     3     4    2
     4     3     5    1
     5     5     6    1
     6     6     7   ar
     7     7     8   ar
     8     8     9   ar
     9     9    10   ar
    10    10    11   ar
    11    11    12    1
    12    12    13    1
    13    13    14   ar
    14    14    15   ar
    15    15    16    1
    16    16    17    1
    17    17    18   ar
    18    18    19   ar
    19    19    20   ar
    20    20    21    1
    21    21    22    1
    22    22    23    1
    23    23    24    1
    24    24    25    1
    25    24    26    1
    26    26    27    1
    27    20    28   ar
    28    28    29   ar
    29    15    30   ar
    30    30    31   ar
    31    31    32   ar
    32    32    33    1
    33    11     6   ar
    34    32    13   ar
    35    29    17   ar
    36    27    21    1
    37    18    34    1
    38    16    35    1
    39    31    36    1
    40    12    37    1
    41    27    38    1
    42    27    39    1
    43    28    40    1
    44    29    41    1
    45     9    42    1
    46    10    43    1
    47    25    44    1
    48    25    45    1
    49    25    46    1
    50    26    47    1
    51    26    48    1
    52    23    49    1
    53    23    50    1
    54    24    51    1
    55    19    52    1
    56    22    53    1
    57    22    54    1
    58     1    55    1
    59     1    56    1
    60     1    57    1
    61     2    58    1
    62     2    59    1
    63     7    60    1
    64     8    61    1
@<TRIPOS>SUBSTRUCTURE
     1 RES1        1 GROUP             0 ****  ****    0  
@<TRIPOS>CRYSIN
    1.0000    1.0000    1.0000   90.0000   90.0000   90.0000     1     1
@<TRIPOS>MOLECULE
ligand_97
    61    64     1     0     0
SMALL
USER_CHARGES
****
Generated from the CSD

@<TRIPOS>ATOM
     1 C1      -8.5154 -48.6329 -18.0403   C.3       1 RES1   0.0000
     2 C2      -8.0587 -50.0740 -18.2621   C.3       1 RES1   0.0000
     3 C3      -9.2920 -50.9795 -18.2268   C.2       1 RES1   0.0000
     4 O4     -10.3854 -50.5770 -17.9834   O.2       1 RES1   0.0000
     5 O5      -9.0426 -52.3460 -18.5036   O.3       1 RES1   0.0000
     6 C6     -10.1808 -53.2163 -18.4740   C.ar      1 RES1   0.0000
     7 C7     -10.4294 -53.9993 -17.3449   C.ar      1 RES1   0.0000
     8 C8     -11.5499 -54.8493 -17.3355   C.ar      1 RES1   0.0000
     9 C9     -12.3900 -54.8972 -18.4611   C.ar      1 RES1   0.0000
    10 C10    -12.1338 -54.1106 -19.5992   C.ar      1 RES1   0.0000
    11 C11    -11.0133 -53.2634 -19.6082   C.ar      1 RES1   0.0000
    12 N12    -10.7002 -52.4015 -20.7891   N.pl3     1 RES1   0.0000
    13 C13    -11.4932 -52.3939 -22.0242   C.ar      1 RES1   0.0000
    14 N14    -12.5573 -53.1952 -22.1482   N.ar      1 RES1   0.0000
    15 C15    -13.2766 -53.1903 -23.2605   C.ar      1 RES1   0.0000
    16 N16    -14.4406 -54.0674 -23.4102   N.pl3     1 RES1   0.0000
    17 C17    -15.3138 -54.0642 -24.5986   C.ar      1 RES1   0.0000
    18 C18    -15.8724 -55.2629 -25.0121   C.ar      1 RES1   0.0000
    19 C19    -16.7146 -55.2963 -26.1321   C.ar      1 RES1   0.0000
    20 C20    -16.9893 -54.1256 -26.8315   C.ar      1 RES1   0.0000
    21 N21    -17.8799 -54.1838 -28.0175   N.pl3     1 RES1   0.0000
    22 C22    -17.3754 -54.1517 -29.3968   C.3       1 RES1   0.0000
    23 C23    -17.2865 -55.5327 -29.9863   C.3       1 RES1   0.0000
    24 N24    -18.5868 -56.2565 -29.8960   N.4       1 RES1   1.0000
    25 C25    -18.4992 -57.4321 -30.3950   C.3       1 RES1   0.0000
    26 C26    -19.0743 -56.2740 -28.4823   C.3       1 RES1   0.0000
    27 C27    -19.1590 -54.8607 -27.9585   C.3       1 RES1   0.0000
    28 C28    -16.4321 -52.9212 -26.4204   C.ar      1 RES1   0.0000
    29 C29    -15.5949 -52.8908 -25.2975   C.ar      1 RES1   0.0000
    30 N30    -12.9892 -52.4055 -24.2681   N.ar      1 RES1   0.0000
    31 C31    -11.9536 -51.5763 -24.2294   C.ar      1 RES1   0.0000
    32 C32    -11.1696 -51.5573 -23.0747   C.ar      1 RES1   0.0000
    33 Cl33    -9.7784 -50.4568 -22.9975   Cl        1 RES1   0.0000
    34 H1     -16.5293 -56.0989 -29.4459   H         1 RES1   0.0000
    35 H2     -17.0001 -55.4513 -31.0338   H         1 RES1   0.0000
    36 H3     -19.2642 -55.7394 -30.4473   H         1 RES1   0.0000
    37 H4      -9.7648 -53.9525 -16.4835   H         1 RES1   0.0000
    38 H5     -11.7647 -55.4651 -16.4634   H         1 RES1   0.0000
    39 H6     -11.7222 -50.9293 -25.0743   H         1 RES1   0.0000
    40 H7      -9.8941 -51.7872 -20.7336   H         1 RES1   0.0000
    41 H8      -9.0095 -48.5535 -17.0731   H         1 RES1   0.0000
    42 H9      -7.6511 -47.9708 -18.0618   H         1 RES1   0.0000
    43 H10     -9.2111 -48.3473 -18.8279   H         1 RES1   0.0000
    44 H11     -7.3650 -50.3658 -17.4750   H         1 RES1   0.0000
    45 H12     -7.5666 -50.1596 -19.2298   H         1 RES1   0.0000
    46 H13    -17.1540 -56.2390 -26.4548   H         1 RES1   0.0000
    47 H14    -13.2568 -55.5564 -18.4523   H         1 RES1   0.0000
    48 H15    -12.7960 -54.1580 -20.4625   H         1 RES1   0.0000
    49 H16    -17.7467 -58.0018 -29.8519   H         1 RES1   0.0000
    50 H17    -19.4625 -57.9335 -30.3141   H         1 RES1   0.0000
    51 H18    -18.2139 -57.3610 -31.4436   H         1 RES1   0.0000
    52 H19    -18.3824 -56.8476 -27.8674   H         1 RES1   0.0000
    53 H20    -20.0606 -56.7342 -28.4447   H         1 RES1   0.0000
    54 H21    -16.3838 -53.7016 -29.4000   H         1 RES1   0.0000
    55 H22    -18.0490 -53.5503 -30.0055   H         1 RES1   0.0000
    56 H23    -15.1620 -51.9470 -24.9692   H         1 RES1   0.0000
    57 H24    -19.8787 -54.3057 -28.5584   H         1 RES1   0.0000
    58 H25    -19.4947 -54.8889 -26.9229   H         1 RES1   0.0000
    59 H26    -16.6452 -52.0047 -26.9686   H         1 RES1   0.0000
    60 H27    -14.6574 -54.7113 -22.6561   H         1 RES1   0.0000
    61 H28    -15.6568 -56.1802 -24.4663   H         1 RES1   0.0000
@<TRIPOS>BOND
     1     1     2    1
     2     2     3    1
     3     3     4    2
     4     3     5    1
     5     5     6    1
     6     6     7   ar
     7     7     8   ar
     8     8     9   ar
     9     9    10   ar
    10    10    11   ar
    11    11    12    1
    12    12    13    1
    13    13    14   ar
    14    14    15   ar
    15    15    16    1
    16    16    17    1
    17    17    18   ar
    18    18    19   ar
    19    19    20   ar
    20    20    21    1
    21    21    22    1
    22    22    23    1
    23    23    24    1
    24    24    25    1
    25    24    26    1
    26    26    27    1
    27    20    28   ar
    28    28    29   ar
    29    15    30   ar
    30    30    31   ar
    31    31    32   ar
    32    32    33    1
    33    11     6   ar
    34    32    13   ar
    35    29    17   ar
    36    27    21    1
    37    23    34    1
    38    23    35    1
    39    24    36    1
    40     7    37    1
    41     8    38    1
    42    31    39    1
    43    12    40    1
    44     1    41    1
    45     1    42    1
    46     1    43    1
    47     2    44    1
    48     2    45    1
    49    19    46    1
    50     9    47    1
    51    10    48    1
    52    25    49    1
    53    25    50    1
    54    25    51    1
    55    26    52    1
    56    26    53    1
    57    22    54    1
    58    22    55    1
    59    29    56    1
    60    27    57    1
    61    27    58    1
    62    28    59    1
    63    16    60    1
    64    18    61    1
@<TRIPOS>SUBSTRUCTURE
     1 RES1        1 GROUP             0 ****  ****    0  
@<TRIPOS>CRYSIN
    1.0000    1.0000    1.0000   90.0000   90.0000   90.0000     1     1
@<TRIPOS>MOLECULE
ligand_98
    61    64     1     0     0
SMALL
USER_CHARGES
****
Generated from the CSD

@<TRIPOS>ATOM
     1 C1      -9.2033 -48.0211 -18.1796   C.3       1 RES1   0.0000
     2 C2      -8.4494 -49.3375 -18.3615   C.3       1 RES1   0.0000
     3 C3      -9.4592 -50.4846 -18.2796   C.2       1 RES1   0.0000
     4 O4      -9.1375 -51.6246 -18.1622   O.2       1 RES1   0.0000
     5 O5     -10.8188 -50.0954 -18.3568   O.3       1 RES1   0.0000
     6 C6     -11.7850 -51.1514 -18.2855   C.ar      1 RES1   0.0000
     7 C7     -12.4184 -51.4349 -17.0737   C.ar      1 RES1   0.0000
     8 C8     -13.3618 -52.4768 -17.0228   C.ar      1 RES1   0.0000
     9 C9     -13.6422 -53.2123 -18.1870   C.ar      1 RES1   0.0000
    10 C10    -12.9984 -52.9272 -19.4052   C.ar      1 RES1   0.0000
    11 C11    -12.0550 -51.8876 -19.4545   C.ar      1 RES1   0.0000
    12 N12    -11.3482 -51.5392 -20.7252   N.pl3     1 RES1   0.0000
    13 C13    -11.6619 -52.1468 -22.0239   C.ar      1 RES1   0.0000
    14 N14    -12.7042 -52.9764 -22.1470   N.ar      1 RES1   0.0000
    15 C15    -12.9918 -53.5256 -23.3176   C.ar      1 RES1   0.0000
    16 N16    -14.1273 -54.4399 -23.4635   N.pl3     1 RES1   0.0000
    17 C17    -15.0559 -54.7651 -22.3651   C.ar      1 RES1   0.0000
    18 C18    -15.5311 -56.0626 -22.2630   C.ar      1 RES1   0.0000
    19 C19    -16.4083 -56.4103 -21.2263   C.ar      1 RES1   0.0000
    20 C20    -16.8046 -55.4518 -20.2992   C.ar      1 RES1   0.0000
    21 N21    -17.7377 -55.8396 -19.2120   N.pl3     1 RES1   0.0000
    22 C22    -17.9091 -57.2084 -18.7352   C.3       1 RES1   0.0000
    23 C23    -18.1525 -57.2101 -17.2460   C.3       1 RES1   0.0000
    24 N24    -19.3275 -56.3573 -16.9000   N.4       1 RES1   1.0000
    25 C25    -19.5085 -56.3763 -15.6328   C.3       1 RES1   0.0000
    26 C26    -19.1598 -54.9809 -17.4527   C.3       1 RES1   0.0000
    27 C27    -18.9148 -55.0255 -18.9402   C.3       1 RES1   0.0000
    28 C28    -16.3303 -54.1496 -20.3969   C.ar      1 RES1   0.0000
    29 C29    -15.4497 -53.8071 -21.4314   C.ar      1 RES1   0.0000
    30 N30    -12.2864 -53.2764 -24.3918   N.ar      1 RES1   0.0000
    31 C31    -11.2380 -52.4631 -24.3613   C.ar      1 RES1   0.0000
    32 C32    -10.9019 -51.8695 -23.1436   C.ar      1 RES1   0.0000
    33 Cl33    -9.5038 -50.7771 -23.0759   Cl        1 RES1   0.0000
    34 H1     -14.2830 -54.8723 -24.3685   H         1 RES1   0.0000
    35 H2     -15.2227 -56.8133 -22.9891   H         1 RES1   0.0000
    36 H3     -16.7796 -57.4309 -21.1467   H         1 RES1   0.0000
    37 H4     -16.6416 -53.3984 -19.6726   H         1 RES1   0.0000
    38 H5     -15.0713 -52.7887 -21.5066   H         1 RES1   0.0000
    39 H6     -10.6567 -52.2646 -25.2605   H         1 RES1   0.0000
    40 H7      -9.6961 -48.0162 -17.2085   H         1 RES1   0.0000
    41 H8      -8.5015 -47.1902 -18.2347   H         1 RES1   0.0000
    42 H9      -9.9496 -47.9186 -18.9660   H         1 RES1   0.0000
    43 H10     -7.7037 -49.4465 -17.5754   H         1 RES1   0.0000
    44 H11     -7.9572 -49.3488 -19.3328   H         1 RES1   0.0000
    45 H12    -10.6101 -50.8435 -20.6876   H         1 RES1   0.0000
    46 H13    -13.8707 -52.7116 -16.0891   H         1 RES1   0.0000
    47 H14    -14.3724 -54.0191 -18.1455   H         1 RES1   0.0000
    48 H15    -12.1851 -50.8573 -16.1805   H         1 RES1   0.0000
    49 H16    -17.0095 -57.7817 -18.9541   H         1 RES1   0.0000
    50 H17    -18.7606 -57.6621 -19.2402   H         1 RES1   0.0000
    51 H18    -17.2693 -56.8236 -16.7395   H         1 RES1   0.0000
    52 H19    -18.3426 -58.2305 -16.9165   H         1 RES1   0.0000
    53 H20    -13.2287 -53.5054 -20.2988   H         1 RES1   0.0000
    54 H21    -18.3117 -54.5018 -16.9657   H         1 RES1   0.0000
    55 H22    -20.0634 -54.4054 -17.2571   H         1 RES1   0.0000
    56 H23    -19.7802 -55.4602 -19.4382   H         1 RES1   0.0000
    57 H24    -18.7516 -54.0151 -19.3121   H         1 RES1   0.0000
    58 H25    -20.1470 -56.7680 -17.3358   H         1 RES1   0.0000
    59 H26    -18.6205 -55.9916 -15.1335   H         1 RES1   0.0000
    60 H27    -20.3657 -55.7543 -15.3792   H         1 RES1   0.0000
    61 H28    -19.6933 -57.3991 -15.3078   H         1 RES1   0.0000
@<TRIPOS>BOND
     1     1     2    1
     2     2     3    1
     3     3     4    2
     4     3     5    1
     5     5     6    1
     6     6     7   ar
     7     7     8   ar
     8     8     9   ar
     9     9    10   ar
    10    10    11   ar
    11    11    12    1
    12    12    13    1
    13    13    14   ar
    14    14    15   ar
    15    15    16    1
    16    16    17    1
    17    17    18   ar
    18    18    19   ar
    19    19    20   ar
    20    20    21    1
    21    21    22    1
    22    22    23    1
    23    23    24    1
    24    24    25    1
    25    24    26    1
    26    26    27    1
    27    20    28   ar
    28    28    29   ar
    29    15    30   ar
    30    30    31   ar
    31    31    32   ar
    32    32    33    1
    33    11     6   ar
    34    32    13   ar
    35    29    17   ar
    36    27    21    1
    37    16    34    1
    38    18    35    1
    39    19    36    1
    40    28    37    1
    41    29    38    1
    42    31    39    1
    43     1    40    1
    44     1    41    1
    45     1    42    1
    46     2    43    1
    47     2    44    1
    48    12    45    1
    49     8    46    1
    50     9    47    1
    51     7    48    1
    52    22    49    1
    53    22    50    1
    54    23    51    1
    55    23    52    1
    56    10    53    1
    57    26    54    1
    58    26    55    1
    59    27    56    1
    60    27    57    1
    61    24    58    1
    62    25    59    1
    63    25    60    1
    64    25    61    1
@<TRIPOS>SUBSTRUCTURE
     1 RES1        1 GROUP             0 ****  ****    0  
@<TRIPOS>CRYSIN
    1.0000    1.0000    1.0000   90.0000   90.0000   90.0000     1     1
@<TRIPOS>MOLECULE
ligand_99
    61    64     1     0     0
SMALL
USER_CHARGES
****
Generated from the CSD

@<TRIPOS>ATOM
     1 C1      -8.1860 -49.2690 -18.1032   C.3       1 RES1   0.0000
     2 C2      -7.9842 -50.7732 -18.2792   C.3       1 RES1   0.0000
     3 C3      -9.3551 -51.4514 -18.2248   C.2       1 RES1   0.0000
     4 O4      -9.4924 -52.6281 -18.1088   O.2       1 RES1   0.0000
     5 O5     -10.4635 -50.5755 -18.3260   O.3       1 RES1   0.0000
     6 C6     -11.7593 -51.1860 -18.2808   C.ar      1 RES1   0.0000
     7 C7     -12.4616 -51.4175 -19.4654   C.ar      1 RES1   0.0000
     8 C8     -13.7331 -52.0152 -19.4007   C.ar      1 RES1   0.0000
     9 C9     -14.2712 -52.3604 -18.1492   C.ar      1 RES1   0.0000
    10 C10    -13.5631 -52.1211 -16.9572   C.ar      1 RES1   0.0000
    11 C11    -12.2940 -51.5224 -17.0229   C.ar      1 RES1   0.0000
    12 N12    -11.4969 -51.2531 -15.7869   N.pl3     1 RES1   0.0000
    13 C13    -11.8997 -51.6948 -14.4464   C.ar      1 RES1   0.0000
    14 N14    -12.9699 -52.4819 -14.2881   N.ar      1 RES1   0.0000
    15 C15    -13.3359 -52.8841 -13.0802   C.ar      1 RES1   0.0000
    16 N16    -14.5092 -53.7414 -12.8938   N.pl3     1 RES1   0.0000
    17 C17    -15.3193 -54.2651 -14.0092   C.ar      1 RES1   0.0000
    18 C18    -16.6931 -54.3457 -13.8481   C.ar      1 RES1   0.0000
    19 C19    -17.4957 -54.8299 -14.8904   C.ar      1 RES1   0.0000
    20 C20    -16.9133 -55.2324 -16.0879   C.ar      1 RES1   0.0000
    21 N21    -17.7806 -55.7465 -17.1771   N.pl3     1 RES1   0.0000
    22 C22    -19.2011 -55.4354 -17.3028   C.3       1 RES1   0.0000
    23 C23    -19.5757 -55.3103 -18.7592   C.3       1 RES1   0.0000
    24 N24    -19.2173 -56.5511 -19.5073   N.4       1 RES1   1.0000
    25 C25    -19.5443 -56.4156 -20.7375   C.3       1 RES1   0.0000
    26 C26    -17.7758 -56.8857 -19.3119   C.3       1 RES1   0.0000
    27 C27    -17.4441 -56.9967 -17.8448   C.3       1 RES1   0.0000
    28 C28    -15.5363 -55.1529 -16.2545   C.ar      1 RES1   0.0000
    29 C29    -14.7378 -54.6636 -15.2124   C.ar      1 RES1   0.0000
    30 N30    -12.6707 -52.5436 -12.0054   N.ar      1 RES1   0.0000
    31 C31    -11.5952 -51.7686 -12.0704   C.ar      1 RES1   0.0000
    32 C32    -11.1823 -51.3214 -13.3265   C.ar      1 RES1   0.0000
    33 Cl33    -9.7462 -50.2835 -13.4409   Cl        1 RES1   0.0000
    34 H1     -19.4106 -54.4953 -16.7946   H         1 RES1   0.0000
    35 H2     -19.7865 -56.2327 -16.8472   H         1 RES1   0.0000
    36 H3     -18.5755 -54.8910 -14.7627   H         1 RES1   0.0000
    37 H4     -14.7788 -53.9879 -11.9468   H         1 RES1   0.0000
    38 H5     -17.1500 -54.0325 -12.9105   H         1 RES1   0.0000
    39 H6     -15.2561 -52.8224 -18.1011   H         1 RES1   0.0000
    40 H7     -13.9935 -52.3966 -15.9956   H         1 RES1   0.0000
    41 H8     -19.0107 -55.5673 -21.1636   H         1 RES1   0.0000
    42 H9     -19.2832 -57.3205 -21.2843   H         1 RES1   0.0000
    43 H10    -20.6171 -56.2438 -20.8111   H         1 RES1   0.0000
    44 H11    -17.1642 -56.1026 -19.7576   H         1 RES1   0.0000
    45 H12    -17.5609 -57.8356 -19.7991   H         1 RES1   0.0000
    46 H13    -10.6286 -50.7358 -15.8801   H         1 RES1   0.0000
    47 H14    -19.0434 -54.4653 -19.1934   H         1 RES1   0.0000
    48 H15    -20.6488 -55.1429 -18.8387   H         1 RES1   0.0000
    49 H16    -19.7666 -57.3134 -19.1233   H         1 RES1   0.0000
    50 H17    -13.6588 -54.5942 -15.3425   H         1 RES1   0.0000
    51 H18     -8.6601 -49.0764 -17.1419   H         1 RES1   0.0000
    52 H19     -7.2205 -48.7666 -18.1389   H         1 RES1   0.0000
    53 H20     -8.8213 -48.8919 -18.9033   H         1 RES1   0.0000
    54 H21     -7.3520 -51.1560 -17.4794   H         1 RES1   0.0000
    55 H22     -7.5131 -50.9715 -19.2408   H         1 RES1   0.0000
    56 H23    -12.0307 -51.1391 -20.4260   H         1 RES1   0.0000
    57 H24    -14.2959 -52.2089 -20.3127   H         1 RES1   0.0000
    58 H25    -18.0175 -57.8103 -17.4031   H         1 RES1   0.0000
    59 H26    -16.3801 -57.1967 -17.7269   H         1 RES1   0.0000
    60 H27    -15.0796 -55.4695 -17.1910   H         1 RES1   0.0000
    61 H28    -11.0505 -51.4896 -11.1696   H         1 RES1   0.0000
@<TRIPOS>BOND
     1     1     2    1
     2     2     3    1
     3     3     4    2
     4     3     5    1
     5     5     6    1
     6     6     7   ar
     7     7     8   ar
     8     8     9   ar
     9     9    10   ar
    10    10    11   ar
    11    11    12    1
    12    12    13    1
    13    13    14   ar
    14    14    15   ar
    15    15    16    1
    16    16    17    1
    17    17    18   ar
    18    18    19   ar
    19    19    20   ar
    20    20    21    1
    21    21    22    1
    22    22    23    1
    23    23    24    1
    24    24    25    1
    25    24    26    1
    26    26    27    1
    27    20    28   ar
    28    28    29   ar
    29    15    30   ar
    30    30    31   ar
    31    31    32   ar
    32    32    33    1
    33    11     6   ar
    34    32    13   ar
    35    29    17   ar
    36    27    21    1
    37    22    34    1
    38    22    35    1
    39    19    36    1
    40    16    37    1
    41    18    38    1
    42     9    39    1
    43    10    40    1
    44    25    41    1
    45    25    42    1
    46    25    43    1
    47    26    44    1
    48    26    45    1
    49    12    46    1
    50    23    47    1
    51    23    48    1
    52    24    49    1
    53    29    50    1
    54     1    51    1
    55     1    52    1
    56     1    53    1
    57     2    54    1
    58     2    55    1
    59     7    56    1
    60     8    57    1
    61    27    58    1
    62    27    59    1
    63    28    60    1
    64    31    61    1
@<TRIPOS>SUBSTRUCTURE
     1 RES1        1 GROUP             0 ****  ****    0  
@<TRIPOS>CRYSIN
    1.0000    1.0000    1.0000   90.0000   90.0000   90.0000     1     1
