@<TRIPOS>MOLECULE
native_ligand
    33    36     1     0     0
SMALL
USER_CHARGES
****
Generated from the CSD

@<TRIPOS>ATOM
     1 C1      -8.6280 -48.5910 -18.0110   C.3       1 RES1   0.0000
     2 C2      -8.1370 -50.0210 -18.2310   C.3       1 RES1   0.0000
     3 C3      -9.3500 -50.9540 -18.2100   C.2       1 RES1   0.0000
     4 O4      -9.2590 -52.1380 -18.2920   O.2       1 RES1   0.0000
     5 O5     -10.6040 -50.3070 -18.0880   O.3       1 RES1   0.0000
     6 C6     -11.7620 -51.1440 -18.1990   C.2       1 RES1   0.0000
     7 C7     -11.9470 -51.9290 -19.3390   C.2       1 RES1   0.0000
     8 C8     -13.0910 -52.7420 -19.4310   C.2       1 RES1   0.0000
     9 C9     -14.0240 -52.7430 -18.3800   C.2       1 RES1   0.0000
    10 C10    -13.8370 -51.9470 -17.2350   C.2       1 RES1   0.0000
    11 C11    -12.6950 -51.1340 -17.1450   C.2       1 RES1   0.0000
    12 N12    -12.4450 -50.2750 -15.9470   N.2       1 RES1   0.0000
    13 C13    -12.8710 -48.8740 -15.8470   C.2       1 RES1   0.0000
    14 N14    -14.0860 -48.5060 -16.2690   N.2       1 RES1   0.0000
    15 C15    -14.4750 -47.2430 -16.1790   C.2       1 RES1   0.0000
    16 N16    -15.8010 -46.8270 -16.6430   N.2       1 RES1   0.0000
    17 C17    -16.6650 -47.6660 -17.4940   C.2       1 RES1   0.0000
    18 C18    -18.0310 -47.4340 -17.4820   C.2       1 RES1   0.0000
    19 C19    -18.8820 -48.2060 -18.2850   C.2       1 RES1   0.0000
    20 C20    -18.3560 -49.2080 -19.0940   C.2       1 RES1   0.0000
    21 N21    -19.2750 -50.0170 -19.9330   N.pl3     1 RES1   0.0000
    22 C22    -18.8130 -50.9990 -20.8970   C.3       1 RES1   0.0000
    23 C23    -19.8940 -52.0380 -21.1820   C.3       1 RES1   0.0000
    24 N24    -21.0930 -51.5000 -21.5750   N.3       1 RES1   1.0000
    25 C25    -21.9890 -52.4140 -21.5980   C.2       1 RES1   0.0000
    26 C26    -21.5350 -50.5020 -20.7550   C.3       1 RES1   0.0000
    27 C27    -20.4750 -49.4370 -20.4810   C.3       1 RES1   0.0000
    28 C28    -16.9870 -49.4440 -19.1100   C.2       1 RES1   0.0000
    29 C29    -16.1390 -48.6670 -18.3100   C.2       1 RES1   0.0000
    30 N30    -13.7040 -46.3150 -15.6710   N.2       1 RES1   0.0000
    31 C31    -12.4850 -46.5920 -15.2250   C.2       1 RES1   0.0000
    32 C32    -12.0390 -47.9120 -15.3080   C.2       1 RES1   0.0000
    33 Cl33   -10.4120 -48.3090 -14.7180   Cl        1 RES1   0.0000
@<TRIPOS>BOND
     1     1     2    1
     2     2     3    1
     3     3     4    2
     4     3     5    1
     5     5     6    1
     6     6     7    2
     7     7     8    1
     8     8     9    2
     9     9    10    1
    10    10    11    2
    11    11    12    1
    12    12    13    1
    13    13    14    2
    14    14    15    1
    15    15    16    1
    16    16    17    1
    17    17    18    2
    18    18    19    1
    19    19    20    2
    20    20    21    1
    21    21    22    1
    22    22    23    1
    23    23    24    1
    24    24    25    1
    25    24    26    1
    26    26    27    1
    27    20    28    1
    28    28    29    2
    29    15    30    2
    30    30    31    1
    31    31    32    2
    32    32    33    1
    33    11     6    1
    34    32    13    1
    35    29    17    1
    36    27    21    1
@<TRIPOS>SUBSTRUCTURE
     1 RES1        1 GROUP             0 ****  ****    0  
@<TRIPOS>MOLECULE
ligand_0
    33    36     1     0     0
SMALL
USER_CHARGES
****
Generated from the CSD

@<TRIPOS>ATOM
     1 C1      -9.6185 -48.3723 -17.8936   C.3       1 RES1   0.0000
     2 C2      -8.8513 -49.6677 -18.1539   C.3       1 RES1   0.0000
     3 C3      -9.8507 -50.8267 -18.1513   C.2       1 RES1   0.0000
     4 O4     -11.0062 -50.6861 -17.9024   O.2       1 RES1   0.0000
     5 O5      -9.3022 -52.0941 -18.4656   O.3       1 RES1   0.0000
     6 C6     -10.2169 -53.1974 -18.4671   C.2       1 RES1   0.0000
     7 C7     -10.7582 -53.6515 -19.6716   C.2       1 RES1   0.0000
     8 C8     -11.6562 -54.7338 -19.6527   C.2       1 RES1   0.0000
     9 C9     -11.9937 -55.3299 -18.4255   C.2       1 RES1   0.0000
    10 C10    -11.4504 -54.8666 -17.2132   C.2       1 RES1   0.0000
    11 C11    -10.5550 -53.7844 -17.2331   C.2       1 RES1   0.0000
    12 N12     -9.9437 -53.2583 -15.9741   N.2       1 RES1   0.0000
    13 C13    -10.3420 -53.6964 -14.6311   C.2       1 RES1   0.0000
    14 N14    -11.3823 -54.5222 -14.4712   N.2       1 RES1   0.0000
    15 C15    -11.7441 -54.9213 -13.2611   C.2       1 RES1   0.0000
    16 N16    -12.8851 -55.8210 -13.0730   N.2       1 RES1   0.0000
    17 C17    -13.7496 -56.2796 -14.1762   C.2       1 RES1   0.0000
    18 C18    -14.2946 -57.5515 -14.1044   C.2       1 RES1   0.0000
    19 C19    -15.1283 -58.0177 -15.1304   C.2       1 RES1   0.0000
    20 C20    -15.4081 -57.2042 -16.2236   C.2       1 RES1   0.0000
    21 N21    -16.2894 -57.7189 -17.3012   N.pl3     1 RES1   0.0000
    22 C22    -17.2309 -56.8910 -18.0486   C.3       1 RES1   0.0000
    23 C23    -17.3018 -57.3553 -19.4826   C.3       1 RES1   0.0000
    24 N24    -17.6654 -58.8011 -19.5544   N.3       1 RES1   1.0000
    25 C25    -17.7161 -59.1666 -20.7802   C.2       1 RES1   0.0000
    26 C26    -16.7282 -59.6210 -18.7312   C.3       1 RES1   0.0000
    27 C27    -16.6846 -59.1210 -17.3089   C.3       1 RES1   0.0000
    28 C28    -14.8645 -55.9280 -16.2998   C.2       1 RES1   0.0000
    29 C29    -14.0358 -55.4635 -15.2700   C.2       1 RES1   0.0000
    30 N30    -11.1030 -54.5402 -12.1853   N.2       1 RES1   0.0000
    31 C31    -10.0578 -53.7249 -12.2517   C.2       1 RES1   0.0000
    32 C32     -9.6504 -53.2798 -13.5103   C.2       1 RES1   0.0000
    33 Cl33    -8.2546 -52.1884 -13.6265   Cl        1 RES1   0.0000
@<TRIPOS>BOND
     1     1     2    1
     2     2     3    1
     3     3     4    2
     4     3     5    1
     5     5     6    1
     6     6     7    2
     7     7     8    1
     8     8     9    2
     9     9    10    1
    10    10    11    2
    11    11    12    1
    12    12    13    1
    13    13    14    2
    14    14    15    1
    15    15    16    1
    16    16    17    1
    17    17    18    2
    18    18    19    1
    19    19    20    2
    20    20    21    1
    21    21    22    1
    22    22    23    1
    23    23    24    1
    24    24    25    1
    25    24    26    1
    26    26    27    1
    27    20    28    1
    28    28    29    2
    29    15    30    2
    30    30    31    1
    31    31    32    2
    32    32    33    1
    33    11     6    1
    34    32    13    1
    35    29    17    1
    36    27    21    1
@<TRIPOS>SUBSTRUCTURE
     1 RES1        1 GROUP             0 ****  ****    0  
@<TRIPOS>MOLECULE
ligand_1
    33    36     1     0     0
SMALL
USER_CHARGES
****
Generated from the CSD

@<TRIPOS>ATOM
     1 C1      -7.7532 -48.9944 -18.2915   C.3       1 RES1   0.0000
     2 C2      -7.5576 -50.4963 -18.4925   C.3       1 RES1   0.0000
     3 C3      -8.9200 -51.1804 -18.3581   C.2       1 RES1   0.0000
     4 O4      -9.9140 -50.5943 -18.0659   O.2       1 RES1   0.0000
     5 O5      -8.9192 -52.5751 -18.6046   O.3       1 RES1   0.0000
     6 C6     -10.1826 -53.2406 -18.4824   C.2       1 RES1   0.0000
     7 C7     -10.4883 -53.9455 -17.3163   C.2       1 RES1   0.0000
     8 C8     -11.7321 -54.5944 -17.2159   C.2       1 RES1   0.0000
     9 C9     -12.6359 -54.5252 -18.2898   C.2       1 RES1   0.0000
    10 C10    -12.3227 -53.8182 -19.4653   C.2       1 RES1   0.0000
    11 C11    -11.0794 -53.1721 -19.5652   C.2       1 RES1   0.0000
    12 N12    -10.7002 -52.4015 -20.7891   N.2       1 RES1   0.0000
    13 C13    -11.4932 -52.3939 -22.0242   C.2       1 RES1   0.0000
    14 N14    -12.5573 -53.1952 -22.1482   N.2       1 RES1   0.0000
    15 C15    -13.2766 -53.1903 -23.2605   C.2       1 RES1   0.0000
    16 N16    -14.4406 -54.0674 -23.4102   N.2       1 RES1   0.0000
    17 C17    -14.8488 -55.0571 -22.3961   C.2       1 RES1   0.0000
    18 C18    -16.1996 -55.3210 -22.2356   C.2       1 RES1   0.0000
    19 C19    -16.6239 -56.2624 -21.2876   C.2       1 RES1   0.0000
    20 C20    -15.6889 -56.9319 -20.5049   C.2       1 RES1   0.0000
    21 N21    -16.1596 -57.9214 -19.5037   N.pl3     1 RES1   0.0000
    22 C22    -15.4412 -59.1472 -19.1698   C.3       1 RES1   0.0000
    23 C23    -15.5963 -59.4530 -17.7003   C.3       1 RES1   0.0000
    24 N24    -17.0386 -59.5432 -17.3270   N.3       1 RES1   1.0000
    25 C25    -17.1392 -59.8011 -16.0771   C.2       1 RES1   0.0000
    26 C26    -17.7665 -58.3058 -17.7358   C.3       1 RES1   0.0000
    27 C27    -17.5814 -58.0355 -19.2081   C.3       1 RES1   0.0000
    28 C28    -14.3334 -56.6713 -20.6626   C.2       1 RES1   0.0000
    29 C29    -13.9127 -55.7336 -21.6147   C.2       1 RES1   0.0000
    30 N30    -12.9892 -52.4055 -24.2681   N.2       1 RES1   0.0000
    31 C31    -11.9536 -51.5763 -24.2294   C.2       1 RES1   0.0000
    32 C32    -11.1696 -51.5573 -23.0747   C.2       1 RES1   0.0000
    33 Cl33    -9.7784 -50.4568 -22.9975   Cl        1 RES1   0.0000
@<TRIPOS>BOND
     1     1     2    1
     2     2     3    1
     3     3     4    2
     4     3     5    1
     5     5     6    1
     6     6     7    2
     7     7     8    1
     8     8     9    2
     9     9    10    1
    10    10    11    2
    11    11    12    1
    12    12    13    1
    13    13    14    2
    14    14    15    1
    15    15    16    1
    16    16    17    1
    17    17    18    2
    18    18    19    1
    19    19    20    2
    20    20    21    1
    21    21    22    1
    22    22    23    1
    23    23    24    1
    24    24    25    1
    25    24    26    1
    26    26    27    1
    27    20    28    1
    28    28    29    2
    29    15    30    2
    30    30    31    1
    31    31    32    2
    32    32    33    1
    33    11     6    1
    34    32    13    1
    35    29    17    1
    36    27    21    1
@<TRIPOS>SUBSTRUCTURE
     1 RES1        1 GROUP             0 ****  ****    0  
@<TRIPOS>MOLECULE
ligand_2
    33    36     1     0     0
SMALL
USER_CHARGES
****
Generated from the CSD

@<TRIPOS>ATOM
     1 C1      -8.6962 -48.5664 -17.9973   C.3       1 RES1   0.0000
     2 C2      -8.1855 -49.9886 -18.2226   C.3       1 RES1   0.0000
     3 C3      -9.3852 -50.9386 -18.2031   C.2       1 RES1   0.0000
     4 O4     -10.4947 -50.5775 -17.9674   O.2       1 RES1   0.0000
     5 O5      -9.0838 -52.2935 -18.4849   O.3       1 RES1   0.0000
     6 C6     -10.1898 -53.2047 -18.4701   C.2       1 RES1   0.0000
     7 C7     -10.8017 -53.5766 -19.6690   C.2       1 RES1   0.0000
     8 C8     -11.8875 -54.4699 -19.6341   C.2       1 RES1   0.0000
     9 C9     -12.3365 -54.9634 -18.3971   C.2       1 RES1   0.0000
    10 C10    -11.7209 -54.5826 -17.1906   C.2       1 RES1   0.0000
    11 C11    -10.6377 -53.6890 -17.2265   C.2       1 RES1   0.0000
    12 N12     -9.9437 -53.2583 -15.9741   N.2       1 RES1   0.0000
    13 C13    -10.3420 -53.6964 -14.6311   C.2       1 RES1   0.0000
    14 N14    -11.3823 -54.5222 -14.4712   N.2       1 RES1   0.0000
    15 C15    -11.7441 -54.9213 -13.2611   C.2       1 RES1   0.0000
    16 N16    -12.8851 -55.8210 -13.0730   N.2       1 RES1   0.0000
    17 C17    -13.2986 -56.3461 -11.7586   C.2       1 RES1   0.0000
    18 C18    -14.6492 -56.5438 -11.5204   C.2       1 RES1   0.0000
    19 C19    -15.0783 -57.0501 -10.2857   C.2       1 RES1   0.0000
    20 C20    -14.1482 -57.3532  -9.2966   C.2       1 RES1   0.0000
    21 N21    -14.6240 -57.8839  -7.9947   N.pl3     1 RES1   0.0000
    22 C22    -13.8999 -58.8753  -7.2055   C.3       1 RES1   0.0000
    23 C23    -14.0722 -58.5903  -5.7337   C.3       1 RES1   0.0000
    24 N24    -15.5186 -58.5476  -5.3678   N.3       1 RES1   1.0000
    25 C25    -15.6338 -58.3027  -4.1166   C.2       1 RES1   0.0000
    26 C26    -16.2513 -57.5746  -6.2307   C.3       1 RES1   0.0000
    27 C27    -16.0487 -57.8930  -7.6910   C.3       1 RES1   0.0000
    28 C28    -12.7929 -57.1574  -9.5309   C.2       1 RES1   0.0000
    29 C29    -12.3674 -56.6560 -10.7680   C.2       1 RES1   0.0000
    30 N30    -11.1030 -54.5402 -12.1853   N.2       1 RES1   0.0000
    31 C31    -10.0578 -53.7249 -12.2517   C.2       1 RES1   0.0000
    32 C32     -9.6504 -53.2798 -13.5103   C.2       1 RES1   0.0000
    33 Cl33    -8.2546 -52.1884 -13.6265   Cl        1 RES1   0.0000
@<TRIPOS>BOND
     1     1     2    1
     2     2     3    1
     3     3     4    2
     4     3     5    1
     5     5     6    1
     6     6     7    2
     7     7     8    1
     8     8     9    2
     9     9    10    1
    10    10    11    2
    11    11    12    1
    12    12    13    1
    13    13    14    2
    14    14    15    1
    15    15    16    1
    16    16    17    1
    17    17    18    2
    18    18    19    1
    19    19    20    2
    20    20    21    1
    21    21    22    1
    22    22    23    1
    23    23    24    1
    24    24    25    1
    25    24    26    1
    26    26    27    1
    27    20    28    1
    28    28    29    2
    29    15    30    2
    30    30    31    1
    31    31    32    2
    32    32    33    1
    33    11     6    1
    34    32    13    1
    35    29    17    1
    36    27    21    1
@<TRIPOS>SUBSTRUCTURE
     1 RES1        1 GROUP             0 ****  ****    0  
@<TRIPOS>MOLECULE
ligand_3
    33    36     1     0     0
SMALL
USER_CHARGES
****
Generated from the CSD

@<TRIPOS>ATOM
     1 C1      -8.5615 -48.6158 -18.0276   C.3       1 RES1   0.0000
     2 C2      -8.0906 -50.0523 -18.2491   C.3       1 RES1   0.0000
     3 C3      -9.3155 -50.9693 -18.2197   C.2       1 RES1   0.0000
     4 O4     -10.4136 -50.5773 -17.9802   O.2       1 RES1   0.0000
     5 O5      -9.0523 -52.3331 -18.4970   O.3       1 RES1   0.0000
     6 C6     -10.1825 -53.2140 -18.4729   C.2       1 RES1   0.0000
     7 C7     -10.4282 -54.0006 -17.3455   C.2       1 RES1   0.0000
     8 C8     -11.5408 -54.8609 -17.3415   C.2       1 RES1   0.0000
     9 C9     -12.3759 -54.9154 -18.4705   C.2       1 RES1   0.0000
    10 C10    -12.1225 -54.1252 -19.6067   C.2       1 RES1   0.0000
    11 C11    -11.0100 -53.2676 -19.6104   C.2       1 RES1   0.0000
    12 N12    -10.7002 -52.4015 -20.7891   N.2       1 RES1   0.0000
    13 C13    -11.4932 -52.3939 -22.0242   C.2       1 RES1   0.0000
    14 N14    -12.5573 -53.1952 -22.1482   N.2       1 RES1   0.0000
    15 C15    -13.2766 -53.1903 -23.2605   C.2       1 RES1   0.0000
    16 N16    -14.4406 -54.0674 -23.4102   N.2       1 RES1   0.0000
    17 C17    -15.3137 -54.0643 -24.5986   C.2       1 RES1   0.0000
    18 C18    -15.8724 -55.2631 -25.0119   C.2       1 RES1   0.0000
    19 C19    -16.7146 -55.2966 -26.1321   C.2       1 RES1   0.0000
    20 C20    -16.9890 -54.1260 -26.8317   C.2       1 RES1   0.0000
    21 N21    -17.8795 -54.1843 -28.0178   N.pl3     1 RES1   0.0000
    22 C22    -18.8135 -53.1256 -28.3879   C.3       1 RES1   0.0000
    23 C23    -18.8941 -53.0097 -29.8903   C.3       1 RES1   0.0000
    24 N24    -19.2747 -54.3163 -30.5032   N.3       1 RES1   1.0000
    25 C25    -19.3333 -54.1884 -31.7755   C.2       1 RES1   0.0000
    26 C26    -18.3446 -55.3964 -30.0597   C.3       1 RES1   0.0000
    27 C27    -18.2909 -55.4745 -28.5545   C.3       1 RES1   0.0000
    28 C28    -16.4317 -52.9216 -26.4209   C.2       1 RES1   0.0000
    29 C29    -15.5946 -52.8910 -25.2978   C.2       1 RES1   0.0000
    30 N30    -12.9892 -52.4055 -24.2681   N.2       1 RES1   0.0000
    31 C31    -11.9536 -51.5763 -24.2294   C.2       1 RES1   0.0000
    32 C32    -11.1696 -51.5573 -23.0747   C.2       1 RES1   0.0000
    33 Cl33    -9.7784 -50.4568 -22.9975   Cl        1 RES1   0.0000
@<TRIPOS>BOND
     1     1     2    1
     2     2     3    1
     3     3     4    2
     4     3     5    1
     5     5     6    1
     6     6     7    2
     7     7     8    1
     8     8     9    2
     9     9    10    1
    10    10    11    2
    11    11    12    1
    12    12    13    1
    13    13    14    2
    14    14    15    1
    15    15    16    1
    16    16    17    1
    17    17    18    2
    18    18    19    1
    19    19    20    2
    20    20    21    1
    21    21    22    1
    22    22    23    1
    23    23    24    1
    24    24    25    1
    25    24    26    1
    26    26    27    1
    27    20    28    1
    28    28    29    2
    29    15    30    2
    30    30    31    1
    31    31    32    2
    32    32    33    1
    33    11     6    1
    34    32    13    1
    35    29    17    1
    36    27    21    1
@<TRIPOS>SUBSTRUCTURE
     1 RES1        1 GROUP             0 ****  ****    0  
@<TRIPOS>MOLECULE
ligand_4
    33    36     1     0     0
SMALL
USER_CHARGES
****
Generated from the CSD

@<TRIPOS>ATOM
     1 C1      -7.7555 -48.9974 -18.1468   C.3       1 RES1   0.0000
     2 C2      -7.5534 -50.5014 -18.3244   C.3       1 RES1   0.0000
     3 C3      -8.9247 -51.1794 -18.2765   C.2       1 RES1   0.0000
     4 O4      -9.9334 -50.5875 -18.0551   O.2       1 RES1   0.0000
     5 O5      -8.9135 -52.5758 -18.5132   O.3       1 RES1   0.0000
     6 C6     -10.1850 -53.2355 -18.4710   C.2       1 RES1   0.0000
     7 C7     -10.8666 -53.5104 -19.6584   C.2       1 RES1   0.0000
     8 C8     -12.1145 -54.1561 -19.5967   C.2       1 RES1   0.0000
     9 C9     -12.6506 -54.5048 -18.3452   C.2       1 RES1   0.0000
    10 C10    -11.9635 -54.2219 -17.1505   C.2       1 RES1   0.0000
    11 C11    -10.7181 -53.5752 -17.2132   C.2       1 RES1   0.0000
    12 N12     -9.9437 -53.2583 -15.9741   N.2       1 RES1   0.0000
    13 C13    -10.3420 -53.6964 -14.6311   C.2       1 RES1   0.0000
    14 N14    -11.3823 -54.5222 -14.4712   N.2       1 RES1   0.0000
    15 C15    -11.7441 -54.9213 -13.2611   C.2       1 RES1   0.0000
    16 N16    -12.8851 -55.8210 -13.0730   N.2       1 RES1   0.0000
    17 C17    -13.6631 -56.3918 -14.1882   C.2       1 RES1   0.0000
    18 C18    -15.0343 -56.5237 -14.0386   C.2       1 RES1   0.0000
    19 C19    -15.8071 -57.0538 -15.0811   C.2       1 RES1   0.0000
    20 C20    -15.1977 -57.4502 -16.2671   C.2       1 RES1   0.0000
    21 N21    -16.0336 -58.0133 -17.3567   N.pl3     1 RES1   0.0000
    22 C22    -15.7763 -57.7950 -18.7767   C.3       1 RES1   0.0000
    23 C23    -16.1268 -59.0350 -19.5619   C.3       1 RES1   0.0000
    24 N24    -17.5436 -59.4352 -19.3161   N.3       1 RES1   1.0000
    25 C25    -17.8114 -60.4887 -19.9922   C.2       1 RES1   0.0000
    26 C26    -17.8007 -59.5898 -17.8539   C.3       1 RES1   0.0000
    27 C27    -17.4332 -58.3315 -17.1079   C.3       1 RES1   0.0000
    28 C28    -13.8233 -57.3193 -16.4221   C.2       1 RES1   0.0000
    29 C29    -13.0548 -56.7843 -15.3800   C.2       1 RES1   0.0000
    30 N30    -11.1030 -54.5402 -12.1853   N.2       1 RES1   0.0000
    31 C31    -10.0578 -53.7249 -12.2517   C.2       1 RES1   0.0000
    32 C32     -9.6504 -53.2798 -13.5103   C.2       1 RES1   0.0000
    33 Cl33    -8.2546 -52.1884 -13.6265   Cl        1 RES1   0.0000
@<TRIPOS>BOND
     1     1     2    1
     2     2     3    1
     3     3     4    2
     4     3     5    1
     5     5     6    1
     6     6     7    2
     7     7     8    1
     8     8     9    2
     9     9    10    1
    10    10    11    2
    11    11    12    1
    12    12    13    1
    13    13    14    2
    14    14    15    1
    15    15    16    1
    16    16    17    1
    17    17    18    2
    18    18    19    1
    19    19    20    2
    20    20    21    1
    21    21    22    1
    22    22    23    1
    23    23    24    1
    24    24    25    1
    25    24    26    1
    26    26    27    1
    27    20    28    1
    28    28    29    2
    29    15    30    2
    30    30    31    1
    31    31    32    2
    32    32    33    1
    33    11     6    1
    34    32    13    1
    35    29    17    1
    36    27    21    1
@<TRIPOS>SUBSTRUCTURE
     1 RES1        1 GROUP             0 ****  ****    0  
@<TRIPOS>MOLECULE
ligand_5
    33    36     1     0     0
SMALL
USER_CHARGES
****
Generated from the CSD

@<TRIPOS>ATOM
     1 C1      -9.5482 -48.4058 -17.7496   C.3       1 RES1   0.0000
     2 C2      -8.7928 -49.7147 -17.9742   C.3       1 RES1   0.0000
     3 C3      -9.8157 -50.8488 -18.0731   C.2       1 RES1   0.0000
     4 O4     -10.9838 -50.6844 -17.9132   O.2       1 RES1   0.0000
     5 O5      -9.2734 -52.1235 -18.3681   O.3       1 RES1   0.0000
     6 C6     -10.2103 -53.2038 -18.4633   C.2       1 RES1   0.0000
     7 C7     -10.3830 -54.0727 -17.3839   C.2       1 RES1   0.0000
     8 C8     -11.3051 -55.1287 -17.4970   C.2       1 RES1   0.0000
     9 C9     -12.0268 -55.2905 -18.6921   C.2       1 RES1   0.0000
    10 C10    -11.8466 -54.4161 -19.7796   C.2       1 RES1   0.0000
    11 C11    -10.9240 -53.3629 -19.6661   C.2       1 RES1   0.0000
    12 N12    -10.7002 -52.4015 -20.7891   N.2       1 RES1   0.0000
    13 C13    -11.4932 -52.3939 -22.0242   C.2       1 RES1   0.0000
    14 N14    -12.5573 -53.1952 -22.1482   N.2       1 RES1   0.0000
    15 C15    -13.2766 -53.1903 -23.2605   C.2       1 RES1   0.0000
    16 N16    -14.4406 -54.0674 -23.4102   N.2       1 RES1   0.0000
    17 C17    -14.9321 -54.9561 -22.3410   C.2       1 RES1   0.0000
    18 C18    -15.4147 -56.2070 -22.6903   C.2       1 RES1   0.0000
    19 C19    -15.8817 -57.0819 -21.6996   C.2       1 RES1   0.0000
    20 C20    -15.8629 -56.6943 -20.3638   C.2       1 RES1   0.0000
    21 N21    -16.3663 -57.6340 -19.3310   N.pl3     1 RES1   0.0000
    22 C22    -15.7991 -57.7521 -17.9913   C.3       1 RES1   0.0000
    23 C23    -16.8929 -58.0309 -16.9899   C.3       1 RES1   0.0000
    24 N24    -17.6611 -59.2528 -17.3703   N.3       1 RES1   1.0000
    25 C25    -18.5814 -59.4631 -16.5057   C.2       1 RES1   0.0000
    26 C26    -18.1767 -59.1369 -18.7663   C.3       1 RES1   0.0000
    27 C27    -17.0533 -58.8543 -19.7322   C.3       1 RES1   0.0000
    28 C28    -15.3793 -55.4413 -20.0084   C.2       1 RES1   0.0000
    29 C29    -14.9087 -54.5716 -21.0008   C.2       1 RES1   0.0000
    30 N30    -12.9892 -52.4055 -24.2681   N.2       1 RES1   0.0000
    31 C31    -11.9536 -51.5763 -24.2294   C.2       1 RES1   0.0000
    32 C32    -11.1696 -51.5573 -23.0747   C.2       1 RES1   0.0000
    33 Cl33    -9.7784 -50.4568 -22.9975   Cl        1 RES1   0.0000
@<TRIPOS>BOND
     1     1     2    1
     2     2     3    1
     3     3     4    2
     4     3     5    1
     5     5     6    1
     6     6     7    2
     7     7     8    1
     8     8     9    2
     9     9    10    1
    10    10    11    2
    11    11    12    1
    12    12    13    1
    13    13    14    2
    14    14    15    1
    15    15    16    1
    16    16    17    1
    17    17    18    2
    18    18    19    1
    19    19    20    2
    20    20    21    1
    21    21    22    1
    22    22    23    1
    23    23    24    1
    24    24    25    1
    25    24    26    1
    26    26    27    1
    27    20    28    1
    28    28    29    2
    29    15    30    2
    30    30    31    1
    31    31    32    2
    32    32    33    1
    33    11     6    1
    34    32    13    1
    35    29    17    1
    36    27    21    1
@<TRIPOS>SUBSTRUCTURE
     1 RES1        1 GROUP             0 ****  ****    0  
@<TRIPOS>MOLECULE
ligand_6
    33    36     1     0     0
SMALL
USER_CHARGES
****
Generated from the CSD

@<TRIPOS>ATOM
     1 C1      -8.6912 -48.5681 -17.9982   C.3       1 RES1   0.0000
     2 C2      -8.1819 -49.9909 -18.2231   C.3       1 RES1   0.0000
     3 C3      -9.3827 -50.9396 -18.2036   C.2       1 RES1   0.0000
     4 O4     -10.4917 -50.5773 -17.9680   O.2       1 RES1   0.0000
     5 O5      -9.0826 -52.2949 -18.4850   O.3       1 RES1   0.0000
     6 C6     -10.1896 -53.2050 -18.4701   C.2       1 RES1   0.0000
     7 C7     -10.8017 -53.5765 -19.6690   C.2       1 RES1   0.0000
     8 C8     -11.8885 -54.4687 -19.6339   C.2       1 RES1   0.0000
     9 C9     -12.3381 -54.9614 -18.3969   C.2       1 RES1   0.0000
    10 C10    -11.7222 -54.5810 -17.1904   C.2       1 RES1   0.0000
    11 C11    -10.6380 -53.6885 -17.2265   C.2       1 RES1   0.0000
    12 N12     -9.9437 -53.2583 -15.9741   N.2       1 RES1   0.0000
    13 C13    -10.3420 -53.6964 -14.6311   C.2       1 RES1   0.0000
    14 N14    -11.3823 -54.5222 -14.4712   N.2       1 RES1   0.0000
    15 C15    -11.7441 -54.9213 -13.2611   C.2       1 RES1   0.0000
    16 N16    -12.8851 -55.8210 -13.0730   N.2       1 RES1   0.0000
    17 C17    -13.3578 -56.2694 -11.7501   C.2       1 RES1   0.0000
    18 C18    -13.7953 -57.5768 -11.6123   C.2       1 RES1   0.0000
    19 C19    -14.2431 -58.0405 -10.3675   C.2       1 RES1   0.0000
    20 C20    -14.2506 -57.1875  -9.2687   C.2       1 RES1   0.0000
    21 N21    -14.7330 -57.6971  -7.9608   N.pl3     1 RES1   0.0000
    22 C22    -14.1759 -57.2934  -6.6736   C.3       1 RES1   0.0000
    23 C23    -15.2700 -57.2211  -5.6369   C.3       1 RES1   0.0000
    24 N24    -15.9934 -58.5229  -5.5379   N.3       1 RES1   1.0000
    25 C25    -16.9150 -58.4313  -4.6541   C.2       1 RES1   0.0000
    26 C26    -16.4983 -58.9476  -6.8768   C.3       1 RES1   0.0000
    27 C27    -15.3751 -59.0023  -7.8819   C.3       1 RES1   0.0000
    28 C28    -13.8122 -55.8759  -9.4017   C.2       1 RES1   0.0000
    29 C29    -13.3605 -55.4174 -10.6461   C.2       1 RES1   0.0000
    30 N30    -11.1030 -54.5402 -12.1853   N.2       1 RES1   0.0000
    31 C31    -10.0578 -53.7249 -12.2517   C.2       1 RES1   0.0000
    32 C32     -9.6504 -53.2798 -13.5103   C.2       1 RES1   0.0000
    33 Cl33    -8.2546 -52.1884 -13.6265   Cl        1 RES1   0.0000
@<TRIPOS>BOND
     1     1     2    1
     2     2     3    1
     3     3     4    2
     4     3     5    1
     5     5     6    1
     6     6     7    2
     7     7     8    1
     8     8     9    2
     9     9    10    1
    10    10    11    2
    11    11    12    1
    12    12    13    1
    13    13    14    2
    14    14    15    1
    15    15    16    1
    16    16    17    1
    17    17    18    2
    18    18    19    1
    19    19    20    2
    20    20    21    1
    21    21    22    1
    22    22    23    1
    23    23    24    1
    24    24    25    1
    25    24    26    1
    26    26    27    1
    27    20    28    1
    28    28    29    2
    29    15    30    2
    30    30    31    1
    31    31    32    2
    32    32    33    1
    33    11     6    1
    34    32    13    1
    35    29    17    1
    36    27    21    1
@<TRIPOS>SUBSTRUCTURE
     1 RES1        1 GROUP             0 ****  ****    0  
@<TRIPOS>MOLECULE
ligand_7
    33    36     1     0     0
SMALL
USER_CHARGES
****
Generated from the CSD

@<TRIPOS>ATOM
     1 C1      -8.5663 -48.6140 -18.0263   C.3       1 RES1   0.0000
     2 C2      -8.0939 -50.0501 -18.2477   C.3       1 RES1   0.0000
     3 C3      -9.3180 -50.9683 -18.2190   C.2       1 RES1   0.0000
     4 O4     -10.4165 -50.5773 -17.9799   O.2       1 RES1   0.0000
     5 O5      -9.0533 -52.3317 -18.4963   O.3       1 RES1   0.0000
     6 C6     -10.1827 -53.2137 -18.4727   C.2       1 RES1   0.0000
     7 C7     -10.4281 -54.0007 -17.3456   C.2       1 RES1   0.0000
     8 C8     -11.5399 -54.8621 -17.3421   C.2       1 RES1   0.0000
     9 C9     -12.3745 -54.9173 -18.4715   C.2       1 RES1   0.0000
    10 C10    -12.1214 -54.1267 -19.6075   C.2       1 RES1   0.0000
    11 C11    -11.0096 -53.2680 -19.6106   C.2       1 RES1   0.0000
    12 N12    -10.7002 -52.4015 -20.7891   N.2       1 RES1   0.0000
    13 C13    -11.4932 -52.3939 -22.0242   C.2       1 RES1   0.0000
    14 N14    -12.5573 -53.1952 -22.1482   N.2       1 RES1   0.0000
    15 C15    -13.2766 -53.1903 -23.2605   C.2       1 RES1   0.0000
    16 N16    -14.4406 -54.0674 -23.4102   N.2       1 RES1   0.0000
    17 C17    -15.2567 -54.1334 -24.6367   C.2       1 RES1   0.0000
    18 C18    -16.6295 -54.2728 -24.5109   C.2       1 RES1   0.0000
    19 C19    -17.4378 -54.3300 -25.6548   C.2       1 RES1   0.0000
    20 C20    -16.8621 -54.2488 -26.9185   C.2       1 RES1   0.0000
    21 N21    -17.7354 -54.3160 -28.1167   N.pl3     1 RES1   0.0000
    22 C22    -17.4912 -53.5676 -29.3458   C.3       1 RES1   0.0000
    23 C23    -17.9010 -54.3909 -30.5422   C.3       1 RES1   0.0000
    24 N24    -19.3283 -54.8132 -30.4312   N.3       1 RES1   1.0000
    25 C25    -19.6467 -55.5101 -31.4567   C.2       1 RES1   0.0000
    26 C26    -19.5692 -55.5196 -29.1384   C.3       1 RES1   0.0000
    27 C27    -19.1423 -54.6646 -27.9715   C.3       1 RES1   0.0000
    28 C28    -15.4861 -54.1083 -27.0498   C.2       1 RES1   0.0000
    29 C29    -14.6820 -54.0463 -25.9042   C.2       1 RES1   0.0000
    30 N30    -12.9892 -52.4055 -24.2681   N.2       1 RES1   0.0000
    31 C31    -11.9536 -51.5763 -24.2294   C.2       1 RES1   0.0000
    32 C32    -11.1696 -51.5573 -23.0747   C.2       1 RES1   0.0000
    33 Cl33    -9.7784 -50.4568 -22.9975   Cl        1 RES1   0.0000
@<TRIPOS>BOND
     1     1     2    1
     2     2     3    1
     3     3     4    2
     4     3     5    1
     5     5     6    1
     6     6     7    2
     7     7     8    1
     8     8     9    2
     9     9    10    1
    10    10    11    2
    11    11    12    1
    12    12    13    1
    13    13    14    2
    14    14    15    1
    15    15    16    1
    16    16    17    1
    17    17    18    2
    18    18    19    1
    19    19    20    2
    20    20    21    1
    21    21    22    1
    22    22    23    1
    23    23    24    1
    24    24    25    1
    25    24    26    1
    26    26    27    1
    27    20    28    1
    28    28    29    2
    29    15    30    2
    30    30    31    1
    31    31    32    2
    32    32    33    1
    33    11     6    1
    34    32    13    1
    35    29    17    1
    36    27    21    1
@<TRIPOS>SUBSTRUCTURE
     1 RES1        1 GROUP             0 ****  ****    0  
@<TRIPOS>MOLECULE
ligand_8
    33    36     1     0     0
SMALL
USER_CHARGES
****
Generated from the CSD

@<TRIPOS>ATOM
     1 C1      -8.5675 -48.6122 -18.0364   C.3       1 RES1   0.0000
     2 C2      -8.0930 -50.0523 -18.2243   C.3       1 RES1   0.0000
     3 C3      -9.3206 -50.9662 -18.2268   C.2       1 RES1   0.0000
     4 O4     -10.4253 -50.5689 -18.0304   O.2       1 RES1   0.0000
     5 O5      -9.0515 -52.3338 -18.4784   O.3       1 RES1   0.0000
     6 C6     -10.1823 -53.2141 -18.4686   C.2       1 RES1   0.0000
     7 C7     -10.9574 -53.3389 -17.3137   C.2       1 RES1   0.0000
     8 C8     -12.0617 -54.2099 -17.3223   C.2       1 RES1   0.0000
     9 C9     -12.3577 -54.9385 -18.4871   C.2       1 RES1   0.0000
    10 C10    -11.5716 -54.8141 -19.6474   C.2       1 RES1   0.0000
    11 C11    -10.4678 -53.9453 -19.6370   C.2       1 RES1   0.0000
    12 N12     -9.6047 -53.7710 -20.8454   N.2       1 RES1   0.0000
    13 C13     -9.8118 -54.4958 -22.1048   C.2       1 RES1   0.0000
    14 N14    -10.8126 -55.3759 -22.2206   N.2       1 RES1   0.0000
    15 C15    -11.0040 -56.0309 -23.3559   C.2       1 RES1   0.0000
    16 N16    -12.0931 -57.0013 -23.4928   N.2       1 RES1   0.0000
    17 C17    -12.3926 -57.7160 -24.7475   C.2       1 RES1   0.0000
    18 C18    -12.8616 -59.0176 -24.6714   C.2       1 RES1   0.0000
    19 C19    -13.1653 -59.7247 -25.8431   C.2       1 RES1   0.0000
    20 C20    -12.9942 -59.1208 -27.0845   C.2       1 RES1   0.0000
    21 N21    -13.3172 -59.8887 -28.3129   N.pl3     1 RES1   0.0000
    22 C22    -13.1309 -61.3303 -28.4450   C.3       1 RES1   0.0000
    23 C23    -14.2335 -61.9184 -29.2909   C.3       1 RES1   0.0000
    24 N24    -14.2941 -61.2484 -30.6233   N.3       1 RES1   1.0000
    25 C25    -15.2377 -61.7655 -31.3169   C.2       1 RES1   0.0000
    26 C26    -14.4196 -59.7696 -30.4637   C.3       1 RES1   0.0000
    27 C27    -13.3023 -59.2248 -29.6095   C.3       1 RES1   0.0000
    28 C28    -12.5248 -57.8157 -27.1659   C.2       1 RES1   0.0000
    29 C29    -12.2272 -57.1103 -25.9926   C.2       1 RES1   0.0000
    30 N30    -10.2409 -55.8410 -24.4025   N.2       1 RES1   0.0000
    31 C31     -9.2275 -54.9844 -24.3771   C.2       1 RES1   0.0000
    32 C32     -8.9924 -54.2793 -23.1956   C.2       1 RES1   0.0000
    33 Cl33    -7.6428 -53.1269 -23.1356   Cl        1 RES1   0.0000
@<TRIPOS>BOND
     1     1     2    1
     2     2     3    1
     3     3     4    2
     4     3     5    1
     5     5     6    1
     6     6     7    2
     7     7     8    1
     8     8     9    2
     9     9    10    1
    10    10    11    2
    11    11    12    1
    12    12    13    1
    13    13    14    2
    14    14    15    1
    15    15    16    1
    16    16    17    1
    17    17    18    2
    18    18    19    1
    19    19    20    2
    20    20    21    1
    21    21    22    1
    22    22    23    1
    23    23    24    1
    24    24    25    1
    25    24    26    1
    26    26    27    1
    27    20    28    1
    28    28    29    2
    29    15    30    2
    30    30    31    1
    31    31    32    2
    32    32    33    1
    33    11     6    1
    34    32    13    1
    35    29    17    1
    36    27    21    1
@<TRIPOS>SUBSTRUCTURE
     1 RES1        1 GROUP             0 ****  ****    0  
@<TRIPOS>MOLECULE
ligand_9
    33    36     1     0     0
SMALL
USER_CHARGES
****
Generated from the CSD

@<TRIPOS>ATOM
     1 C1      -8.6735 -48.5863 -17.8944   C.3       1 RES1   0.0000
     2 C2      -8.1707 -50.0028 -18.1684   C.3       1 RES1   0.0000
     3 C3      -9.3712 -50.9517 -18.1443   C.2       1 RES1   0.0000
     4 O4     -10.4740 -50.5956 -17.8725   O.2       1 RES1   0.0000
     5 O5      -9.0789 -52.2992 -18.4679   O.3       1 RES1   0.0000
     6 C6     -10.1887 -53.2061 -18.4661   C.2       1 RES1   0.0000
     7 C7     -11.2780 -52.9750 -19.3087   C.2       1 RES1   0.0000
     8 C8     -12.3591 -53.8746 -19.2909   C.2       1 RES1   0.0000
     9 C9     -12.3233 -54.9803 -18.4243   C.2       1 RES1   0.0000
    10 C10    -11.2263 -55.2074 -17.5730   C.2       1 RES1   0.0000
    11 C11    -10.1480 -54.3073 -17.5902   C.2       1 RES1   0.0000
    12 N12     -8.9551 -54.5067 -16.7112   N.2       1 RES1   0.0000
    13 C13     -8.8233 -55.6141 -15.7570   C.2       1 RES1   0.0000
    14 N14     -9.8038 -56.5153 -15.6289   N.2       1 RES1   0.0000
    15 C15     -9.6882 -57.5172 -14.7702   C.2       1 RES1   0.0000
    16 N16    -10.7576 -58.5069 -14.6171   N.2       1 RES1   0.0000
    17 C17    -10.6621 -59.6756 -13.7229   C.2       1 RES1   0.0000
    18 C18    -11.8111 -60.1175 -13.0870   C.2       1 RES1   0.0000
    19 C19    -11.7599 -61.2309 -12.2368   C.2       1 RES1   0.0000
    20 C20    -10.5542 -61.8928 -12.0289   C.2       1 RES1   0.0000
    21 N21    -10.5208 -63.0667 -11.1212   N.pl3     1 RES1   0.0000
    22 C22    -11.3600 -63.2032  -9.9349   C.3       1 RES1   0.0000
    23 C23    -11.7637 -64.6455  -9.7507   C.3       1 RES1   0.0000
    24 N24    -10.5615 -65.5271  -9.6769   N.3       1 RES1   1.0000
    25 C25    -10.9339 -66.7422  -9.5228   C.2       1 RES1   0.0000
    26 C26     -9.6857 -65.3237 -10.8685   C.3       1 RES1   0.0000
    27 C27     -9.3104 -63.8705 -11.0174   C.3       1 RES1   0.0000
    28 C28     -9.3995 -61.4540 -12.6647   C.2       1 RES1   0.0000
    29 C29     -9.4555 -60.3440 -13.5177   C.2       1 RES1   0.0000
    30 N30     -8.6213 -57.6740 -14.0280   N.2       1 RES1   0.0000
    31 C31     -7.5996 -56.8293 -14.0928   C.2       1 RES1   0.0000
    32 C32     -7.6880 -55.7582 -14.9834   C.2       1 RES1   0.0000
    33 Cl33    -6.3345 -54.6137 -15.0895   Cl        1 RES1   0.0000
@<TRIPOS>BOND
     1     1     2    1
     2     2     3    1
     3     3     4    2
     4     3     5    1
     5     5     6    1
     6     6     7    2
     7     7     8    1
     8     8     9    2
     9     9    10    1
    10    10    11    2
    11    11    12    1
    12    12    13    1
    13    13    14    2
    14    14    15    1
    15    15    16    1
    16    16    17    1
    17    17    18    2
    18    18    19    1
    19    19    20    2
    20    20    21    1
    21    21    22    1
    22    22    23    1
    23    23    24    1
    24    24    25    1
    25    24    26    1
    26    26    27    1
    27    20    28    1
    28    28    29    2
    29    15    30    2
    30    30    31    1
    31    31    32    2
    32    32    33    1
    33    11     6    1
    34    32    13    1
    35    29    17    1
    36    27    21    1
@<TRIPOS>SUBSTRUCTURE
     1 RES1        1 GROUP             0 ****  ****    0  
@<TRIPOS>MOLECULE
ligand_10
    33    36     1     0     0
SMALL
USER_CHARGES
****
Generated from the CSD

@<TRIPOS>ATOM
     1 C1      -9.6200 -48.3722 -17.8936   C.3       1 RES1   0.0000
     2 C2      -8.8524 -49.6673 -18.1539   C.3       1 RES1   0.0000
     3 C3      -9.8514 -50.8267 -18.1513   C.2       1 RES1   0.0000
     4 O4     -11.0070 -50.6865 -17.9025   O.2       1 RES1   0.0000
     5 O5      -9.3025 -52.0940 -18.4656   O.3       1 RES1   0.0000
     6 C6     -10.2169 -53.1975 -18.4671   C.2       1 RES1   0.0000
     7 C7     -10.7580 -53.6518 -19.6716   C.2       1 RES1   0.0000
     8 C8     -11.6557 -54.7343 -19.6527   C.2       1 RES1   0.0000
     9 C9     -11.9930 -55.3305 -18.4256   C.2       1 RES1   0.0000
    10 C10    -11.4499 -54.8670 -17.2132   C.2       1 RES1   0.0000
    11 C11    -10.5548 -53.7846 -17.2331   C.2       1 RES1   0.0000
    12 N12     -9.9437 -53.2583 -15.9741   N.2       1 RES1   0.0000
    13 C13    -10.3420 -53.6964 -14.6311   C.2       1 RES1   0.0000
    14 N14    -11.3823 -54.5222 -14.4712   N.2       1 RES1   0.0000
    15 C15    -11.7441 -54.9213 -13.2611   C.2       1 RES1   0.0000
    16 N16    -12.8851 -55.8210 -13.0730   N.2       1 RES1   0.0000
    17 C17    -13.7494 -56.2799 -14.1762   C.2       1 RES1   0.0000
    18 C18    -14.2950 -57.5515 -14.1039   C.2       1 RES1   0.0000
    19 C19    -15.1286 -58.0179 -15.1299   C.2       1 RES1   0.0000
    20 C20    -15.4076 -57.2048 -16.2237   C.2       1 RES1   0.0000
    21 N21    -16.2888 -57.7197 -17.3014   N.pl3     1 RES1   0.0000
    22 C22    -17.2636 -58.7899 -17.1149   C.3       1 RES1   0.0000
    23 C23    -18.4898 -58.5237 -17.9532   C.3       1 RES1   0.0000
    24 N24    -18.1236 -58.3592 -19.3908   N.3       1 RES1   1.0000
    25 C25    -19.1810 -58.1332 -20.0760   C.2       1 RES1   0.0000
    26 C26    -17.0789 -57.3050 -19.5506   C.3       1 RES1   0.0000
    27 C27    -15.8752 -57.6074 -18.6936   C.3       1 RES1   0.0000
    28 C28    -14.8634 -55.9289 -16.3004   C.2       1 RES1   0.0000
    29 C29    -14.0350 -55.4642 -15.2706   C.2       1 RES1   0.0000
    30 N30    -11.1030 -54.5402 -12.1853   N.2       1 RES1   0.0000
    31 C31    -10.0578 -53.7249 -12.2517   C.2       1 RES1   0.0000
    32 C32     -9.6504 -53.2798 -13.5103   C.2       1 RES1   0.0000
    33 Cl33    -8.2546 -52.1884 -13.6265   Cl        1 RES1   0.0000
@<TRIPOS>BOND
     1     1     2    1
     2     2     3    1
     3     3     4    2
     4     3     5    1
     5     5     6    1
     6     6     7    2
     7     7     8    1
     8     8     9    2
     9     9    10    1
    10    10    11    2
    11    11    12    1
    12    12    13    1
    13    13    14    2
    14    14    15    1
    15    15    16    1
    16    16    17    1
    17    17    18    2
    18    18    19    1
    19    19    20    2
    20    20    21    1
    21    21    22    1
    22    22    23    1
    23    23    24    1
    24    24    25    1
    25    24    26    1
    26    26    27    1
    27    20    28    1
    28    28    29    2
    29    15    30    2
    30    30    31    1
    31    31    32    2
    32    32    33    1
    33    11     6    1
    34    32    13    1
    35    29    17    1
    36    27    21    1
@<TRIPOS>SUBSTRUCTURE
     1 RES1        1 GROUP             0 ****  ****    0  
@<TRIPOS>MOLECULE
ligand_11
    33    36     1     0     0
SMALL
USER_CHARGES
****
Generated from the CSD

@<TRIPOS>ATOM
     1 C1      -7.7520 -48.9950 -18.2920   C.3       1 RES1   0.0000
     2 C2      -7.5569 -50.4970 -18.4929   C.3       1 RES1   0.0000
     3 C3      -8.9195 -51.1807 -18.3583   C.2       1 RES1   0.0000
     4 O4      -9.9133 -50.5943 -18.0661   O.2       1 RES1   0.0000
     5 O5      -8.9191 -52.5754 -18.6047   O.3       1 RES1   0.0000
     6 C6     -10.1827 -53.2405 -18.4823   C.2       1 RES1   0.0000
     7 C7     -10.4885 -53.9452 -17.3162   C.2       1 RES1   0.0000
     8 C8     -11.7325 -54.5938 -17.2156   C.2       1 RES1   0.0000
     9 C9     -12.6364 -54.5244 -18.2895   C.2       1 RES1   0.0000
    10 C10    -12.3230 -53.8177 -19.4650   C.2       1 RES1   0.0000
    11 C11    -11.0795 -53.1719 -19.5651   C.2       1 RES1   0.0000
    12 N12    -10.7002 -52.4015 -20.7891   N.2       1 RES1   0.0000
    13 C13    -11.4932 -52.3939 -22.0242   C.2       1 RES1   0.0000
    14 N14    -12.5573 -53.1952 -22.1482   N.2       1 RES1   0.0000
    15 C15    -13.2766 -53.1903 -23.2605   C.2       1 RES1   0.0000
    16 N16    -14.4406 -54.0674 -23.4102   N.2       1 RES1   0.0000
    17 C17    -14.8490 -55.0569 -22.3960   C.2       1 RES1   0.0000
    18 C18    -16.1997 -55.3212 -22.2361   C.2       1 RES1   0.0000
    19 C19    -16.6242 -56.2625 -21.2880   C.2       1 RES1   0.0000
    20 C20    -15.6893 -56.9314 -20.5046   C.2       1 RES1   0.0000
    21 N21    -16.1602 -57.9207 -19.5033   N.pl3     1 RES1   0.0000
    22 C22    -17.4460 -58.6072 -19.5787   C.3       1 RES1   0.0000
    23 C23    -17.3088 -60.0193 -19.0650   C.3       1 RES1   0.0000
    24 N24    -16.7630 -60.0273 -17.6757   N.3       1 RES1   1.0000
    25 C25    -16.6559 -61.2360 -17.2677   C.2       1 RES1   0.0000
    26 C26    -15.4813 -59.2651 -17.6094   C.3       1 RES1   0.0000
    27 C27    -15.6622 -57.8632 -18.1355   C.3       1 RES1   0.0000
    28 C28    -14.3339 -56.6703 -20.6616   C.2       1 RES1   0.0000
    29 C29    -13.9130 -55.7327 -21.6138   C.2       1 RES1   0.0000
    30 N30    -12.9892 -52.4055 -24.2681   N.2       1 RES1   0.0000
    31 C31    -11.9536 -51.5763 -24.2294   C.2       1 RES1   0.0000
    32 C32    -11.1696 -51.5573 -23.0747   C.2       1 RES1   0.0000
    33 Cl33    -9.7784 -50.4568 -22.9975   Cl        1 RES1   0.0000
@<TRIPOS>BOND
     1     1     2    1
     2     2     3    1
     3     3     4    2
     4     3     5    1
     5     5     6    1
     6     6     7    2
     7     7     8    1
     8     8     9    2
     9     9    10    1
    10    10    11    2
    11    11    12    1
    12    12    13    1
    13    13    14    2
    14    14    15    1
    15    15    16    1
    16    16    17    1
    17    17    18    2
    18    18    19    1
    19    19    20    2
    20    20    21    1
    21    21    22    1
    22    22    23    1
    23    23    24    1
    24    24    25    1
    25    24    26    1
    26    26    27    1
    27    20    28    1
    28    28    29    2
    29    15    30    2
    30    30    31    1
    31    31    32    2
    32    32    33    1
    33    11     6    1
    34    32    13    1
    35    29    17    1
    36    27    21    1
@<TRIPOS>SUBSTRUCTURE
     1 RES1        1 GROUP             0 ****  ****    0  
@<TRIPOS>MOLECULE
ligand_12
    33    36     1     0     0
SMALL
USER_CHARGES
****
Generated from the CSD

@<TRIPOS>ATOM
     1 C1      -8.7443 -48.5503 -17.9890   C.3       1 RES1   0.0000
     2 C2      -8.2196 -49.9669 -18.2174   C.3       1 RES1   0.0000
     3 C3      -9.4098 -50.9289 -18.1990   C.2       1 RES1   0.0000
     4 O4     -10.5226 -50.5793 -17.9619   O.2       1 RES1   0.0000
     5 O5      -9.0950 -52.2802 -18.4836   O.3       1 RES1   0.0000
     6 C6     -10.1918 -53.2025 -18.4698   C.2       1 RES1   0.0000
     7 C7     -10.8006 -53.5782 -19.6691   C.2       1 RES1   0.0000
     8 C8     -11.8775 -54.4823 -19.6352   C.2       1 RES1   0.0000
     9 C9     -12.3208 -54.9826 -18.3990   C.2       1 RES1   0.0000
    10 C10    -11.7083 -54.5980 -17.1921   C.2       1 RES1   0.0000
    11 C11    -10.6341 -53.6935 -17.2269   C.2       1 RES1   0.0000
    12 N12     -9.9437 -53.2583 -15.9741   N.2       1 RES1   0.0000
    13 C13    -10.3420 -53.6964 -14.6311   C.2       1 RES1   0.0000
    14 N14    -11.3823 -54.5222 -14.4712   N.2       1 RES1   0.0000
    15 C15    -11.7441 -54.9213 -13.2611   C.2       1 RES1   0.0000
    16 N16    -12.8851 -55.8210 -13.0730   N.2       1 RES1   0.0000
    17 C17    -13.2985 -56.3463 -11.7586   C.2       1 RES1   0.0000
    18 C18    -14.6491 -56.5437 -11.5202   C.2       1 RES1   0.0000
    19 C19    -15.0781 -57.0502 -10.2855   C.2       1 RES1   0.0000
    20 C20    -14.1479 -57.3536  -9.2967   C.2       1 RES1   0.0000
    21 N21    -14.6236 -57.8844  -7.9948   N.pl3     1 RES1   0.0000
    22 C22    -15.9034 -58.5614  -7.8097   C.3       1 RES1   0.0000
    23 C23    -15.7619 -59.6636  -6.7888   C.3       1 RES1   0.0000
    24 N24    -15.2330 -59.1278  -5.5000   N.3       1 RES1   1.0000
    25 C25    -15.1220 -60.0836  -4.6556   C.2       1 RES1   0.0000
    26 C26    -13.9579 -58.3845  -5.7228   C.3       1 RES1   0.0000
    27 C27    -14.1427 -57.2971  -6.7514   C.3       1 RES1   0.0000
    28 C28    -12.7926 -57.1580  -9.5311   C.2       1 RES1   0.0000
    29 C29    -12.3672 -56.6565 -10.7682   C.2       1 RES1   0.0000
    30 N30    -11.1030 -54.5402 -12.1853   N.2       1 RES1   0.0000
    31 C31    -10.0578 -53.7249 -12.2517   C.2       1 RES1   0.0000
    32 C32     -9.6504 -53.2798 -13.5103   C.2       1 RES1   0.0000
    33 Cl33    -8.2546 -52.1884 -13.6265   Cl        1 RES1   0.0000
@<TRIPOS>BOND
     1     1     2    1
     2     2     3    1
     3     3     4    2
     4     3     5    1
     5     5     6    1
     6     6     7    2
     7     7     8    1
     8     8     9    2
     9     9    10    1
    10    10    11    2
    11    11    12    1
    12    12    13    1
    13    13    14    2
    14    14    15    1
    15    15    16    1
    16    16    17    1
    17    17    18    2
    18    18    19    1
    19    19    20    2
    20    20    21    1
    21    21    22    1
    22    22    23    1
    23    23    24    1
    24    24    25    1
    25    24    26    1
    26    26    27    1
    27    20    28    1
    28    28    29    2
    29    15    30    2
    30    30    31    1
    31    31    32    2
    32    32    33    1
    33    11     6    1
    34    32    13    1
    35    29    17    1
    36    27    21    1
@<TRIPOS>SUBSTRUCTURE
     1 RES1        1 GROUP             0 ****  ****    0  
@<TRIPOS>MOLECULE
ligand_13
    33    36     1     0     0
SMALL
USER_CHARGES
****
Generated from the CSD

@<TRIPOS>ATOM
     1 C1      -7.9983 -48.8558 -18.6303   C.3       1 RES1   0.0000
     2 C2      -7.7290 -50.3527 -18.7764   C.3       1 RES1   0.0000
     3 C3      -9.0380 -51.1034 -18.5210   C.2       1 RES1   0.0000
     4 O4     -10.0437 -50.5594 -18.1899   O.2       1 RES1   0.0000
     5 O5      -8.9720 -52.5063 -18.7042   O.3       1 RES1   0.0000
     6 C6     -10.1885 -53.2316 -18.4849   C.2       1 RES1   0.0000
     7 C7     -11.3238 -52.9317 -19.2406   C.2       1 RES1   0.0000
     8 C8     -12.5092 -53.6525 -19.0091   C.2       1 RES1   0.0000
     9 C9     -12.5280 -54.6521 -18.0214   C.2       1 RES1   0.0000
    10 C10    -11.3836 -54.9482 -17.2583   C.2       1 RES1   0.0000
    11 C11    -10.2008 -54.2264 -17.4891   C.2       1 RES1   0.0000
    12 N12     -8.9551 -54.5067 -16.7112   N.2       1 RES1   0.0000
    13 C13     -8.8233 -55.6141 -15.7570   C.2       1 RES1   0.0000
    14 N14     -9.8038 -56.5153 -15.6289   N.2       1 RES1   0.0000
    15 C15     -9.6882 -57.5172 -14.7702   C.2       1 RES1   0.0000
    16 N16    -10.7576 -58.5069 -14.6171   N.2       1 RES1   0.0000
    17 C17    -11.9885 -58.5064 -15.4291   C.2       1 RES1   0.0000
    18 C18    -13.1840 -58.8491 -14.8182   C.2       1 RES1   0.0000
    19 C19    -14.3754 -58.8507 -15.5568   C.2       1 RES1   0.0000
    20 C20    -14.3587 -58.5099 -16.9054   C.2       1 RES1   0.0000
    21 N21    -15.6306 -58.5224 -17.6703   N.pl3     1 RES1   0.0000
    22 C22    -16.7227 -59.4578 -17.4198   C.3       1 RES1   0.0000
    23 C23    -18.0496 -58.7736 -17.6390   C.3       1 RES1   0.0000
    24 N24    -18.1271 -58.1947 -19.0126   N.3       1 RES1   1.0000
    25 C25    -19.2604 -57.6204 -19.1688   C.2       1 RES1   0.0000
    26 C26    -16.9663 -57.2921 -19.2696   C.3       1 RES1   0.0000
    27 C27    -15.6627 -58.0134 -19.0349   C.3       1 RES1   0.0000
    28 C28    -13.1627 -58.1648 -17.5223   C.2       1 RES1   0.0000
    29 C29    -11.9747 -58.1593 -16.7797   C.2       1 RES1   0.0000
    30 N30     -8.6213 -57.6740 -14.0280   N.2       1 RES1   0.0000
    31 C31     -7.5996 -56.8293 -14.0928   C.2       1 RES1   0.0000
    32 C32     -7.6880 -55.7582 -14.9834   C.2       1 RES1   0.0000
    33 Cl33    -6.3345 -54.6137 -15.0895   Cl        1 RES1   0.0000
@<TRIPOS>BOND
     1     1     2    1
     2     2     3    1
     3     3     4    2
     4     3     5    1
     5     5     6    1
     6     6     7    2
     7     7     8    1
     8     8     9    2
     9     9    10    1
    10    10    11    2
    11    11    12    1
    12    12    13    1
    13    13    14    2
    14    14    15    1
    15    15    16    1
    16    16    17    1
    17    17    18    2
    18    18    19    1
    19    19    20    2
    20    20    21    1
    21    21    22    1
    22    22    23    1
    23    23    24    1
    24    24    25    1
    25    24    26    1
    26    26    27    1
    27    20    28    1
    28    28    29    2
    29    15    30    2
    30    30    31    1
    31    31    32    2
    32    32    33    1
    33    11     6    1
    34    32    13    1
    35    29    17    1
    36    27    21    1
@<TRIPOS>SUBSTRUCTURE
     1 RES1        1 GROUP             0 ****  ****    0  
@<TRIPOS>MOLECULE
ligand_14
    33    36     1     0     0
SMALL
USER_CHARGES
****
Generated from the CSD

@<TRIPOS>ATOM
     1 C1      -8.6637 -48.5886 -17.9050   C.3       1 RES1   0.0000
     2 C2      -8.1639 -50.0066 -18.1768   C.3       1 RES1   0.0000
     3 C3      -9.3662 -50.9532 -18.1500   C.2       1 RES1   0.0000
     4 O4     -10.4681 -50.5944 -17.8780   O.2       1 RES1   0.0000
     5 O5      -9.0768 -52.3019 -18.4713   O.3       1 RES1   0.0000
     6 C6     -10.1883 -53.2066 -18.4668   C.2       1 RES1   0.0000
     7 C7     -11.2782 -52.9748 -19.3085   C.2       1 RES1   0.0000
     8 C8     -12.3609 -53.8723 -19.2880   C.2       1 RES1   0.0000
     9 C9     -12.3262 -54.9767 -18.4196   C.2       1 RES1   0.0000
    10 C10    -11.2286 -55.2045 -17.5692   C.2       1 RES1   0.0000
    11 C11    -10.1487 -54.3065 -17.5892   C.2       1 RES1   0.0000
    12 N12     -8.9551 -54.5067 -16.7112   N.2       1 RES1   0.0000
    13 C13     -8.8233 -55.6141 -15.7570   C.2       1 RES1   0.0000
    14 N14     -9.8038 -56.5153 -15.6289   N.2       1 RES1   0.0000
    15 C15     -9.6882 -57.5172 -14.7702   C.2       1 RES1   0.0000
    16 N16    -10.7576 -58.5069 -14.6171   N.2       1 RES1   0.0000
    17 C17    -10.7023 -59.6213 -13.6529   C.2       1 RES1   0.0000
    18 C18    -11.2083 -60.8530 -14.0359   C.2       1 RES1   0.0000
    19 C19    -11.1645 -61.9374 -13.1487   C.2       1 RES1   0.0000
    20 C20    -10.6142 -61.7777 -11.8811   C.2       1 RES1   0.0000
    21 N21    -10.5818 -62.9375 -10.9554   N.pl3     1 RES1   0.0000
    22 C22    -11.6086 -63.9739 -10.9118   C.3       1 RES1   0.0000
    23 C23    -10.9789 -65.3130 -10.6165   C.3       1 RES1   0.0000
    24 N24    -10.1961 -65.2622  -9.3467   N.3       1 RES1   1.0000
    25 C25     -9.6730 -66.4091  -9.1233   C.2       1 RES1   0.0000
    26 C26     -9.1964 -64.1544  -9.3885   C.3       1 RES1   0.0000
    27 C27     -9.8666 -62.8374  -9.6903   C.3       1 RES1   0.0000
    28 C28    -10.1050 -60.5449 -11.4927   C.2       1 RES1   0.0000
    29 C29    -10.1459 -59.4646 -12.3839   C.2       1 RES1   0.0000
    30 N30     -8.6213 -57.6740 -14.0280   N.2       1 RES1   0.0000
    31 C31     -7.5996 -56.8293 -14.0928   C.2       1 RES1   0.0000
    32 C32     -7.6880 -55.7582 -14.9834   C.2       1 RES1   0.0000
    33 Cl33    -6.3345 -54.6137 -15.0895   Cl        1 RES1   0.0000
@<TRIPOS>BOND
     1     1     2    1
     2     2     3    1
     3     3     4    2
     4     3     5    1
     5     5     6    1
     6     6     7    2
     7     7     8    1
     8     8     9    2
     9     9    10    1
    10    10    11    2
    11    11    12    1
    12    12    13    1
    13    13    14    2
    14    14    15    1
    15    15    16    1
    16    16    17    1
    17    17    18    2
    18    18    19    1
    19    19    20    2
    20    20    21    1
    21    21    22    1
    22    22    23    1
    23    23    24    1
    24    24    25    1
    25    24    26    1
    26    26    27    1
    27    20    28    1
    28    28    29    2
    29    15    30    2
    30    30    31    1
    31    31    32    2
    32    32    33    1
    33    11     6    1
    34    32    13    1
    35    29    17    1
    36    27    21    1
@<TRIPOS>SUBSTRUCTURE
     1 RES1        1 GROUP             0 ****  ****    0  
@<TRIPOS>MOLECULE
ligand_15
    33    36     1     0     0
SMALL
USER_CHARGES
****
Generated from the CSD

@<TRIPOS>ATOM
     1 C1      -9.5492 -48.4049 -17.7504   C.3       1 RES1   0.0000
     2 C2      -8.7937 -49.7139 -17.9744   C.3       1 RES1   0.0000
     3 C3      -9.8166 -50.8480 -18.0732   C.2       1 RES1   0.0000
     4 O4     -10.9847 -50.6836 -17.9138   O.2       1 RES1   0.0000
     5 O5      -9.2742 -52.1228 -18.3678   O.3       1 RES1   0.0000
     6 C6     -10.2110 -53.2031 -18.4629   C.2       1 RES1   0.0000
     7 C7     -10.3840 -54.0718 -17.3833   C.2       1 RES1   0.0000
     8 C8     -11.3061 -55.1278 -17.4964   C.2       1 RES1   0.0000
     9 C9     -12.0273 -55.2899 -18.6917   C.2       1 RES1   0.0000
    10 C10    -11.8469 -54.4158 -19.7793   C.2       1 RES1   0.0000
    11 C11    -10.9243 -53.3626 -19.6659   C.2       1 RES1   0.0000
    12 N12    -10.7002 -52.4015 -20.7891   N.2       1 RES1   0.0000
    13 C13    -11.4932 -52.3939 -22.0242   C.2       1 RES1   0.0000
    14 N14    -12.5573 -53.1952 -22.1482   N.2       1 RES1   0.0000
    15 C15    -13.2766 -53.1903 -23.2605   C.2       1 RES1   0.0000
    16 N16    -14.4406 -54.0674 -23.4102   N.2       1 RES1   0.0000
    17 C17    -14.9318 -54.9565 -22.3411   C.2       1 RES1   0.0000
    18 C18    -15.4142 -56.2074 -22.6908   C.2       1 RES1   0.0000
    19 C19    -15.8808 -57.0827 -21.7003   C.2       1 RES1   0.0000
    20 C20    -15.8620 -56.6954 -20.3643   C.2       1 RES1   0.0000
    21 N21    -16.3650 -57.6355 -19.3317   N.pl3     1 RES1   0.0000
    22 C22    -16.4343 -59.0823 -19.5116   C.3       1 RES1   0.0000
    23 C23    -16.1281 -59.7802 -18.2093   C.3       1 RES1   0.0000
    24 N24    -17.0491 -59.3166 -17.1301   N.3       1 RES1   1.0000
    25 C25    -16.7651 -59.9230 -16.0390   C.2       1 RES1   0.0000
    26 C26    -17.0100 -57.8295 -17.0075   C.3       1 RES1   0.0000
    27 C27    -17.3168 -57.1732 -18.3304   C.3       1 RES1   0.0000
    28 C28    -15.3786 -55.4425 -20.0086   C.2       1 RES1   0.0000
    29 C29    -14.9082 -54.5723 -21.0008   C.2       1 RES1   0.0000
    30 N30    -12.9892 -52.4055 -24.2681   N.2       1 RES1   0.0000
    31 C31    -11.9536 -51.5763 -24.2294   C.2       1 RES1   0.0000
    32 C32    -11.1696 -51.5573 -23.0747   C.2       1 RES1   0.0000
    33 Cl33    -9.7784 -50.4568 -22.9975   Cl        1 RES1   0.0000
@<TRIPOS>BOND
     1     1     2    1
     2     2     3    1
     3     3     4    2
     4     3     5    1
     5     5     6    1
     6     6     7    2
     7     7     8    1
     8     8     9    2
     9     9    10    1
    10    10    11    2
    11    11    12    1
    12    12    13    1
    13    13    14    2
    14    14    15    1
    15    15    16    1
    16    16    17    1
    17    17    18    2
    18    18    19    1
    19    19    20    2
    20    20    21    1
    21    21    22    1
    22    22    23    1
    23    23    24    1
    24    24    25    1
    25    24    26    1
    26    26    27    1
    27    20    28    1
    28    28    29    2
    29    15    30    2
    30    30    31    1
    31    31    32    2
    32    32    33    1
    33    11     6    1
    34    32    13    1
    35    29    17    1
    36    27    21    1
@<TRIPOS>SUBSTRUCTURE
     1 RES1        1 GROUP             0 ****  ****    0  
@<TRIPOS>MOLECULE
ligand_16
    33    36     1     0     0
SMALL
USER_CHARGES
****
Generated from the CSD

@<TRIPOS>ATOM
     1 C1      -8.6769 -48.5731 -18.0008   C.3       1 RES1   0.0000
     2 C2      -8.1718 -49.9975 -18.2248   C.3       1 RES1   0.0000
     3 C3      -9.3754 -50.9427 -18.2049   C.2       1 RES1   0.0000
     4 O4     -10.4834 -50.5770 -17.9698   O.2       1 RES1   0.0000
     5 O5      -9.0792 -52.2990 -18.4855   O.3       1 RES1   0.0000
     6 C6     -10.1889 -53.2058 -18.4702   C.2       1 RES1   0.0000
     7 C7     -10.8018 -53.5763 -19.6690   C.2       1 RES1   0.0000
     8 C8     -11.8912 -54.4653 -19.6336   C.2       1 RES1   0.0000
     9 C9     -12.3425 -54.9559 -18.3964   C.2       1 RES1   0.0000
    10 C10    -11.7258 -54.5766 -17.1900   C.2       1 RES1   0.0000
    11 C11    -10.6390 -53.6873 -17.2263   C.2       1 RES1   0.0000
    12 N12     -9.9437 -53.2583 -15.9741   N.2       1 RES1   0.0000
    13 C13    -10.3420 -53.6964 -14.6311   C.2       1 RES1   0.0000
    14 N14    -11.3823 -54.5222 -14.4712   N.2       1 RES1   0.0000
    15 C15    -11.7441 -54.9213 -13.2611   C.2       1 RES1   0.0000
    16 N16    -12.8851 -55.8210 -13.0730   N.2       1 RES1   0.0000
    17 C17    -13.3575 -56.2697 -11.7501   C.2       1 RES1   0.0000
    18 C18    -13.7951 -57.5772 -11.6126   C.2       1 RES1   0.0000
    19 C19    -14.2426 -58.0412 -10.3679   C.2       1 RES1   0.0000
    20 C20    -14.2497 -57.1885  -9.2688   C.2       1 RES1   0.0000
    21 N21    -14.7319 -57.6985  -7.9610   N.pl3     1 RES1   0.0000
    22 C22    -14.7520 -59.1112  -7.5947   C.3       1 RES1   0.0000
    23 C23    -14.4360 -59.2692  -6.1277   C.3       1 RES1   0.0000
    24 N24    -15.3824 -58.4723  -5.2927   N.3       1 RES1   1.0000
    25 C25    -15.0896 -58.6238  -4.0558   C.2       1 RES1   0.0000
    26 C26    -15.3932 -57.0442  -5.7271   C.3       1 RES1   0.0000
    27 C27    -15.7083 -56.9326  -7.1979   C.3       1 RES1   0.0000
    28 C28    -13.8113 -55.8769  -9.4015   C.2       1 RES1   0.0000
    29 C29    -13.3599 -55.4181 -10.6459   C.2       1 RES1   0.0000
    30 N30    -11.1030 -54.5402 -12.1853   N.2       1 RES1   0.0000
    31 C31    -10.0578 -53.7249 -12.2517   C.2       1 RES1   0.0000
    32 C32     -9.6504 -53.2798 -13.5103   C.2       1 RES1   0.0000
    33 Cl33    -8.2546 -52.1884 -13.6265   Cl        1 RES1   0.0000
@<TRIPOS>BOND
     1     1     2    1
     2     2     3    1
     3     3     4    2
     4     3     5    1
     5     5     6    1
     6     6     7    2
     7     7     8    1
     8     8     9    2
     9     9    10    1
    10    10    11    2
    11    11    12    1
    12    12    13    1
    13    13    14    2
    14    14    15    1
    15    15    16    1
    16    16    17    1
    17    17    18    2
    18    18    19    1
    19    19    20    2
    20    20    21    1
    21    21    22    1
    22    22    23    1
    23    23    24    1
    24    24    25    1
    25    24    26    1
    26    26    27    1
    27    20    28    1
    28    28    29    2
    29    15    30    2
    30    30    31    1
    31    31    32    2
    32    32    33    1
    33    11     6    1
    34    32    13    1
    35    29    17    1
    36    27    21    1
@<TRIPOS>SUBSTRUCTURE
     1 RES1        1 GROUP             0 ****  ****    0  
@<TRIPOS>MOLECULE
ligand_17
    33    36     1     0     0
SMALL
USER_CHARGES
****
Generated from the CSD

@<TRIPOS>ATOM
     1 C1      -8.5801 -48.6089 -18.0227   C.3       1 RES1   0.0000
     2 C2      -8.1035 -50.0436 -18.2439   C.3       1 RES1   0.0000
     3 C3      -9.3251 -50.9652 -18.2169   C.2       1 RES1   0.0000
     4 O4     -10.4250 -50.5773 -17.9791   O.2       1 RES1   0.0000
     5 O5      -9.0563 -52.3278 -18.4943   O.3       1 RES1   0.0000
     6 C6     -10.1833 -53.2129 -18.4723   C.2       1 RES1   0.0000
     7 C7     -10.4280 -54.0008 -17.3457   C.2       1 RES1   0.0000
     8 C8     -11.5374 -54.8653 -17.3438   C.2       1 RES1   0.0000
     9 C9     -12.3704 -54.9225 -18.4742   C.2       1 RES1   0.0000
    10 C10    -12.1181 -54.1309 -19.6097   C.2       1 RES1   0.0000
    11 C11    -11.0087 -53.2692 -19.6112   C.2       1 RES1   0.0000
    12 N12    -10.7002 -52.4015 -20.7891   N.2       1 RES1   0.0000
    13 C13    -11.4932 -52.3939 -22.0242   C.2       1 RES1   0.0000
    14 N14    -12.5573 -53.1952 -22.1482   N.2       1 RES1   0.0000
    15 C15    -13.2766 -53.1903 -23.2605   C.2       1 RES1   0.0000
    16 N16    -14.4406 -54.0674 -23.4102   N.2       1 RES1   0.0000
    17 C17    -15.2570 -54.1331 -24.6365   C.2       1 RES1   0.0000
    18 C18    -16.6298 -54.2727 -24.5105   C.2       1 RES1   0.0000
    19 C19    -17.4383 -54.3295 -25.6542   C.2       1 RES1   0.0000
    20 C20    -16.8628 -54.2478 -26.9180   C.2       1 RES1   0.0000
    21 N21    -17.7364 -54.3148 -28.1161   N.pl3     1 RES1   0.0000
    22 C22    -19.1579 -53.9835 -28.1073   C.3       1 RES1   0.0000
    23 C23    -19.5414 -53.3183 -29.4064   C.3       1 RES1   0.0000
    24 N24    -19.1866 -54.1834 -30.5698   N.3       1 RES1   1.0000
    25 C25    -19.5211 -53.5939 -31.6558   C.2       1 RES1   0.0000
    26 C26    -17.7437 -54.5626 -30.5231   C.3       1 RES1   0.0000
    27 C27    -17.4031 -55.2189 -29.2085   C.3       1 RES1   0.0000
    28 C28    -15.4870 -54.1072 -27.0496   C.2       1 RES1   0.0000
    29 C29    -14.6826 -54.0455 -25.9041   C.2       1 RES1   0.0000
    30 N30    -12.9892 -52.4055 -24.2681   N.2       1 RES1   0.0000
    31 C31    -11.9536 -51.5763 -24.2294   C.2       1 RES1   0.0000
    32 C32    -11.1696 -51.5573 -23.0747   C.2       1 RES1   0.0000
    33 Cl33    -9.7784 -50.4568 -22.9975   Cl        1 RES1   0.0000
@<TRIPOS>BOND
     1     1     2    1
     2     2     3    1
     3     3     4    2
     4     3     5    1
     5     5     6    1
     6     6     7    2
     7     7     8    1
     8     8     9    2
     9     9    10    1
    10    10    11    2
    11    11    12    1
    12    12    13    1
    13    13    14    2
    14    14    15    1
    15    15    16    1
    16    16    17    1
    17    17    18    2
    18    18    19    1
    19    19    20    2
    20    20    21    1
    21    21    22    1
    22    22    23    1
    23    23    24    1
    24    24    25    1
    25    24    26    1
    26    26    27    1
    27    20    28    1
    28    28    29    2
    29    15    30    2
    30    30    31    1
    31    31    32    2
    32    32    33    1
    33    11     6    1
    34    32    13    1
    35    29    17    1
    36    27    21    1
@<TRIPOS>SUBSTRUCTURE
     1 RES1        1 GROUP             0 ****  ****    0  
@<TRIPOS>MOLECULE
ligand_18
    33    36     1     0     0
SMALL
USER_CHARGES
****
Generated from the CSD

@<TRIPOS>ATOM
     1 C1      -8.5808 -48.6086 -18.0225   C.3       1 RES1   0.0000
     2 C2      -8.1040 -50.0432 -18.2437   C.3       1 RES1   0.0000
     3 C3      -9.3254 -50.9650 -18.2168   C.2       1 RES1   0.0000
     4 O4     -10.4254 -50.5772 -17.9791   O.2       1 RES1   0.0000
     5 O5      -9.0565 -52.3276 -18.4942   O.3       1 RES1   0.0000
     6 C6     -10.1833 -53.2128 -18.4723   C.2       1 RES1   0.0000
     7 C7     -10.4280 -54.0008 -17.3457   C.2       1 RES1   0.0000
     8 C8     -11.5372 -54.8655 -17.3439   C.2       1 RES1   0.0000
     9 C9     -12.3702 -54.9227 -18.4744   C.2       1 RES1   0.0000
    10 C10    -12.1179 -54.1311 -19.6098   C.2       1 RES1   0.0000
    11 C11    -11.0087 -53.2692 -19.6112   C.2       1 RES1   0.0000
    12 N12    -10.7002 -52.4015 -20.7891   N.2       1 RES1   0.0000
    13 C13    -11.4932 -52.3939 -22.0242   C.2       1 RES1   0.0000
    14 N14    -12.5573 -53.1952 -22.1482   N.2       1 RES1   0.0000
    15 C15    -13.2766 -53.1903 -23.2605   C.2       1 RES1   0.0000
    16 N16    -14.4406 -54.0674 -23.4102   N.2       1 RES1   0.0000
    17 C17    -15.3110 -54.0676 -24.6006   C.2       1 RES1   0.0000
    18 C18    -15.6308 -52.8533 -25.1864   C.2       1 RES1   0.0000
    19 C19    -16.4482 -52.8157 -26.3245   C.2       1 RES1   0.0000
    20 C20    -16.9413 -53.9982 -26.8665   C.2       1 RES1   0.0000
    21 N21    -17.8090 -53.9358 -28.0691   N.pl3     1 RES1   0.0000
    22 C22    -18.7565 -54.9804 -28.4451   C.3       1 RES1   0.0000
    23 C23    -19.9888 -54.3635 -29.0597   C.3       1 RES1   0.0000
    24 N24    -19.6266 -53.5054 -30.2261   N.3       1 RES1   1.0000
    25 C25    -20.6893 -52.9950 -30.7249   C.2       1 RES1   0.0000
    26 C26    -18.6090 -52.4863 -29.8338   C.3       1 RES1   0.0000
    27 C27    -17.3981 -53.1444 -29.2211   C.3       1 RES1   0.0000
    28 C28    -16.6230 -55.2182 -26.2832   C.2       1 RES1   0.0000
    29 C29    -15.8015 -55.2522 -25.1488   C.2       1 RES1   0.0000
    30 N30    -12.9892 -52.4055 -24.2681   N.2       1 RES1   0.0000
    31 C31    -11.9536 -51.5763 -24.2294   C.2       1 RES1   0.0000
    32 C32    -11.1696 -51.5573 -23.0747   C.2       1 RES1   0.0000
    33 Cl33    -9.7784 -50.4568 -22.9975   Cl        1 RES1   0.0000
@<TRIPOS>BOND
     1     1     2    1
     2     2     3    1
     3     3     4    2
     4     3     5    1
     5     5     6    1
     6     6     7    2
     7     7     8    1
     8     8     9    2
     9     9    10    1
    10    10    11    2
    11    11    12    1
    12    12    13    1
    13    13    14    2
    14    14    15    1
    15    15    16    1
    16    16    17    1
    17    17    18    2
    18    18    19    1
    19    19    20    2
    20    20    21    1
    21    21    22    1
    22    22    23    1
    23    23    24    1
    24    24    25    1
    25    24    26    1
    26    26    27    1
    27    20    28    1
    28    28    29    2
    29    15    30    2
    30    30    31    1
    31    31    32    2
    32    32    33    1
    33    11     6    1
    34    32    13    1
    35    29    17    1
    36    27    21    1
@<TRIPOS>SUBSTRUCTURE
     1 RES1        1 GROUP             0 ****  ****    0  
@<TRIPOS>MOLECULE
ligand_19
    33    36     1     0     0
SMALL
USER_CHARGES
****
Generated from the CSD

@<TRIPOS>ATOM
     1 C1      -9.3050 -48.5105 -17.3861   C.3       1 RES1   0.0000
     2 C2      -8.6168 -49.8302 -17.7313   C.3       1 RES1   0.0000
     3 C3      -9.6928 -50.9081 -17.8821   C.2       1 RES1   0.0000
     4 O4     -10.8471 -50.7057 -17.6737   O.2       1 RES1   0.0000
     5 O5      -9.2178 -52.1790 -18.2883   O.3       1 RES1   0.0000
     6 C6     -10.2074 -53.2029 -18.4504   C.2       1 RES1   0.0000
     7 C7     -11.2534 -53.0227 -19.3578   C.2       1 RES1   0.0000
     8 C8     -12.2166 -54.0375 -19.5012   C.2       1 RES1   0.0000
     9 C9     -12.1100 -55.2053 -18.7266   C.2       1 RES1   0.0000
    10 C10    -11.0576 -55.3814 -17.8096   C.2       1 RES1   0.0000
    11 C11    -10.0972 -54.3664 -17.6659   C.2       1 RES1   0.0000
    12 N12     -8.9551 -54.5067 -16.7112   N.2       1 RES1   0.0000
    13 C13     -8.8233 -55.6141 -15.7570   C.2       1 RES1   0.0000
    14 N14     -9.8038 -56.5153 -15.6289   N.2       1 RES1   0.0000
    15 C15     -9.6882 -57.5172 -14.7702   C.2       1 RES1   0.0000
    16 N16    -10.7576 -58.5069 -14.6171   N.2       1 RES1   0.0000
    17 C17    -12.0432 -58.4328 -15.3356   C.2       1 RES1   0.0000
    18 C18    -12.6327 -57.1910 -15.5101   C.2       1 RES1   0.0000
    19 C19    -13.8503 -57.0813 -16.1960   C.2       1 RES1   0.0000
    20 C20    -14.4697 -58.2200 -16.7010   C.2       1 RES1   0.0000
    21 N21    -15.7608 -58.0823 -17.4200   N.3       1 RES1   0.0000
    22 C22    -15.6600 -58.5781 -18.8048   C.3       1 RES1   0.0000
    23 C23    -16.9768 -58.4618 -19.5304   C.3       1 RES1   0.0000
    24 N24    -17.3844 -57.0235 -19.5567   N.3       1 RES1   1.0000
    25 C25    -18.4171 -56.8187 -20.2849   C.2       1 RES1   0.0000
    26 C26    -17.5607 -56.5716 -18.1443   C.3       1 RES1   0.0000
    27 C27    -16.2479 -56.6975 -17.4078   C.3       1 RES1   0.0000
    28 C28    -13.8822 -59.4672 -16.5291   C.2       1 RES1   0.0000
    29 C29    -12.6627 -59.5724 -15.8475   C.2       1 RES1   0.0000
    30 N30     -8.6213 -57.6740 -14.0280   N.2       1 RES1   0.0000
    31 C31     -7.5996 -56.8293 -14.0928   C.2       1 RES1   0.0000
    32 C32     -7.6880 -55.7582 -14.9834   C.2       1 RES1   0.0000
    33 Cl33    -6.3345 -54.6137 -15.0895   Cl        1 RES1   0.0000
@<TRIPOS>BOND
     1     1     2    1
     2     2     3    1
     3     3     4    2
     4     3     5    1
     5     5     6    1
     6     6     7    2
     7     7     8    1
     8     8     9    2
     9     9    10    1
    10    10    11    2
    11    11    12    1
    12    12    13    1
    13    13    14    2
    14    14    15    1
    15    15    16    1
    16    16    17    1
    17    17    18    2
    18    18    19    1
    19    19    20    2
    20    20    21    1
    21    21    22    1
    22    22    23    1
    23    23    24    1
    24    24    25    1
    25    24    26    1
    26    26    27    1
    27    20    28    1
    28    28    29    2
    29    15    30    2
    30    30    31    1
    31    31    32    2
    32    32    33    1
    33    11     6    1
    34    32    13    1
    35    29    17    1
    36    27    21    1
@<TRIPOS>SUBSTRUCTURE
     1 RES1        1 GROUP             0 ****  ****    0  
@<TRIPOS>MOLECULE
ligand_20
    33    36     1     0     0
SMALL
USER_CHARGES
****
Generated from the CSD

@<TRIPOS>ATOM
     1 C1      -7.7552 -48.9981 -18.1477   C.3       1 RES1   0.0000
     2 C2      -7.5530 -50.5021 -18.3248   C.3       1 RES1   0.0000
     3 C3      -8.9243 -51.1801 -18.2770   C.2       1 RES1   0.0000
     4 O4      -9.9330 -50.5882 -18.0559   O.2       1 RES1   0.0000
     5 O5      -8.9130 -52.5765 -18.5132   O.3       1 RES1   0.0000
     6 C6     -10.1845 -53.2363 -18.4711   C.2       1 RES1   0.0000
     7 C7     -10.8658 -53.5116 -19.6585   C.2       1 RES1   0.0000
     8 C8     -12.1137 -54.1574 -19.5968   C.2       1 RES1   0.0000
     9 C9     -12.6501 -54.5057 -18.3454   C.2       1 RES1   0.0000
    10 C10    -11.9633 -54.2223 -17.1506   C.2       1 RES1   0.0000
    11 C11    -10.7178 -53.5756 -17.2133   C.2       1 RES1   0.0000
    12 N12     -9.9437 -53.2583 -15.9741   N.2       1 RES1   0.0000
    13 C13    -10.3420 -53.6964 -14.6311   C.2       1 RES1   0.0000
    14 N14    -11.3823 -54.5222 -14.4712   N.2       1 RES1   0.0000
    15 C15    -11.7441 -54.9213 -13.2611   C.2       1 RES1   0.0000
    16 N16    -12.8851 -55.8210 -13.0730   N.2       1 RES1   0.0000
    17 C17    -13.6635 -56.3913 -14.1881   C.2       1 RES1   0.0000
    18 C18    -15.0347 -56.5229 -14.0384   C.2       1 RES1   0.0000
    19 C19    -15.8078 -57.0526 -15.0808   C.2       1 RES1   0.0000
    20 C20    -15.1987 -57.4488 -16.2671   C.2       1 RES1   0.0000
    21 N21    -16.0350 -58.0114 -17.3566   N.3       1 RES1   0.0000
    22 C22    -17.4361 -58.1762 -16.9279   C.3       1 RES1   0.0000
    23 C23    -18.2932 -58.7250 -18.0405   C.3       1 RES1   0.0000
    24 N24    -17.7504 -60.0560 -18.4520   N.3       1 RES1   1.0000
    25 C25    -18.5087 -60.6584 -19.2892   C.2       1 RES1   0.0000
    26 C26    -16.3617 -59.8470 -18.9599   C.3       1 RES1   0.0000
    27 C27    -15.5002 -59.2851 -17.8535   C.3       1 RES1   0.0000
    28 C28    -13.8244 -57.3182 -16.4223   C.2       1 RES1   0.0000
    29 C29    -13.0555 -56.7837 -15.3802   C.2       1 RES1   0.0000
    30 N30    -11.1030 -54.5402 -12.1853   N.2       1 RES1   0.0000
    31 C31    -10.0578 -53.7249 -12.2517   C.2       1 RES1   0.0000
    32 C32     -9.6504 -53.2798 -13.5103   C.2       1 RES1   0.0000
    33 Cl33    -8.2546 -52.1884 -13.6265   Cl        1 RES1   0.0000
@<TRIPOS>BOND
     1     1     2    1
     2     2     3    1
     3     3     4    2
     4     3     5    1
     5     5     6    1
     6     6     7    2
     7     7     8    1
     8     8     9    2
     9     9    10    1
    10    10    11    2
    11    11    12    1
    12    12    13    1
    13    13    14    2
    14    14    15    1
    15    15    16    1
    16    16    17    1
    17    17    18    2
    18    18    19    1
    19    19    20    2
    20    20    21    1
    21    21    22    1
    22    22    23    1
    23    23    24    1
    24    24    25    1
    25    24    26    1
    26    26    27    1
    27    20    28    1
    28    28    29    2
    29    15    30    2
    30    30    31    1
    31    31    32    2
    32    32    33    1
    33    11     6    1
    34    32    13    1
    35    29    17    1
    36    27    21    1
@<TRIPOS>SUBSTRUCTURE
     1 RES1        1 GROUP             0 ****  ****    0  
@<TRIPOS>MOLECULE
ligand_21
    33    36     1     0     0
SMALL
USER_CHARGES
****
Generated from the CSD

@<TRIPOS>ATOM
     1 C1      -8.2191 -48.8063 -18.1808   C.3       1 RES1   0.0000
     2 C2      -7.8653 -50.2825 -18.3538   C.3       1 RES1   0.0000
     3 C3      -9.1595 -51.0971 -18.2927   C.2       1 RES1   0.0000
     4 O4     -10.2219 -50.6106 -18.0660   O.2       1 RES1   0.0000
     5 O5      -9.0070 -52.4862 -18.5238   O.3       1 RES1   0.0000
     6 C6     -10.2039 -53.2725 -18.4692   C.2       1 RES1   0.0000
     7 C7     -10.8621 -53.6215 -19.6503   C.2       1 RES1   0.0000
     8 C8     -12.0368 -54.3914 -19.5764   C.2       1 RES1   0.0000
     9 C9     -12.5255 -54.7871 -18.3195   C.2       1 RES1   0.0000
    10 C10    -11.8625 -54.4294 -17.1312   C.2       1 RES1   0.0000
    11 C11    -10.6903 -53.6589 -17.2060   C.2       1 RES1   0.0000
    12 N12     -9.9437 -53.2583 -15.9741   N.2       1 RES1   0.0000
    13 C13     -9.8634 -54.0872 -14.7655   C.2       1 RES1   0.0000
    14 N14    -10.4327 -55.2975 -14.7379   N.2       1 RES1   0.0000
    15 C15    -10.3611 -56.0494 -13.6497   C.2       1 RES1   0.0000
    16 N16    -10.9855 -57.3742 -13.6056   N.2       1 RES1   0.0000
    17 C17    -11.6300 -58.0086 -14.7703   C.2       1 RES1   0.0000
    18 C18    -12.4108 -59.1343 -14.5625   C.2       1 RES1   0.0000
    19 C19    -13.0461 -59.7585 -15.6449   C.2       1 RES1   0.0000
    20 C20    -12.8918 -59.2494 -16.9303   C.2       1 RES1   0.0000
    21 N21    -13.5693 -59.9282 -18.0631   N.pl3     1 RES1   0.0000
    22 C22    -13.7890 -61.3693 -18.1356   C.3       1 RES1   0.0000
    23 C23    -15.1118 -61.6575 -18.8021   C.3       1 RES1   0.0000
    24 N24    -15.1741 -61.0242 -20.1522   N.3       1 RES1   1.0000
    25 C25    -16.3057 -61.2835 -20.6918   C.2       1 RES1   0.0000
    26 C26    -14.8829 -59.5630 -20.0622   C.3       1 RES1   0.0000
    27 C27    -13.5563 -59.3203 -19.3869   C.3       1 RES1   0.0000
    28 C28    -12.1105 -58.1206 -17.1437   C.2       1 RES1   0.0000
    29 C29    -11.4812 -57.4964 -16.0587   C.2       1 RES1   0.0000
    30 N30     -9.7307 -55.6524 -12.5733   N.2       1 RES1   0.0000
    31 C31     -9.1346 -54.4680 -12.5144   C.2       1 RES1   0.0000
    32 C32     -9.1932 -53.6460 -13.6410   C.2       1 RES1   0.0000
    33 Cl33    -8.4037 -52.0565 -13.5882   Cl        1 RES1   0.0000
@<TRIPOS>BOND
     1     1     2    1
     2     2     3    1
     3     3     4    2
     4     3     5    1
     5     5     6    1
     6     6     7    2
     7     7     8    1
     8     8     9    2
     9     9    10    1
    10    10    11    2
    11    11    12    1
    12    12    13    1
    13    13    14    2
    14    14    15    1
    15    15    16    1
    16    16    17    1
    17    17    18    2
    18    18    19    1
    19    19    20    2
    20    20    21    1
    21    21    22    1
    22    22    23    1
    23    23    24    1
    24    24    25    1
    25    24    26    1
    26    26    27    1
    27    20    28    1
    28    28    29    2
    29    15    30    2
    30    30    31    1
    31    31    32    2
    32    32    33    1
    33    11     6    1
    34    32    13    1
    35    29    17    1
    36    27    21    1
@<TRIPOS>SUBSTRUCTURE
     1 RES1        1 GROUP             0 ****  ****    0  
@<TRIPOS>MOLECULE
ligand_22
    33    36     1     0     0
SMALL
USER_CHARGES
****
Generated from the CSD

@<TRIPOS>ATOM
     1 C1      -9.0990 -48.4967 -17.8360   C.3       1 RES1   0.0000
     2 C2      -8.4825 -49.8779 -18.0516   C.3       1 RES1   0.0000
     3 C3      -9.6153 -50.9052 -18.1144   C.2       1 RES1   0.0000
     4 O4     -10.7579 -50.6222 -17.9377   O.2       1 RES1   0.0000
     5 O5      -9.2085 -52.2320 -18.3974   O.3       1 RES1   0.0000
     6 C6     -10.2503 -53.2143 -18.4589   C.2       1 RES1   0.0000
     7 C7     -10.4891 -54.0455 -17.3624   C.2       1 RES1   0.0000
     8 C8     -11.5140 -55.0053 -17.4426   C.2       1 RES1   0.0000
     9 C9     -12.2700 -55.1116 -18.6225   C.2       1 RES1   0.0000
    10 C10    -12.0234 -54.2759 -19.7272   C.2       1 RES1   0.0000
    11 C11    -10.9983 -53.3189 -19.6467   C.2       1 RES1   0.0000
    12 N12    -10.7002 -52.4015 -20.7891   N.2       1 RES1   0.0000
    13 C13    -11.7216 -51.8933 -21.7126   C.2       1 RES1   0.0000
    14 N14    -13.0104 -52.2020 -21.5301   N.2       1 RES1   0.0000
    15 C15    -13.9355 -51.7441 -22.3602   C.2       1 RES1   0.0000
    16 N16    -15.3494 -52.0799 -22.1738   N.2       1 RES1   0.0000
    17 C17    -15.8591 -52.8404 -21.0177   C.2       1 RES1   0.0000
    18 C18    -17.1559 -53.3261 -21.0653   C.2       1 RES1   0.0000
    19 C19    -17.6709 -54.0610 -19.9884   C.2       1 RES1   0.0000
    20 C20    -16.8809 -54.3020 -18.8691   C.2       1 RES1   0.0000
    21 N21    -17.4471 -55.0783 -17.7378   N.pl3     1 RES1   0.0000
    22 C22    -18.8506 -55.0321 -17.3398   C.3       1 RES1   0.0000
    23 C23    -19.2981 -56.3927 -16.8649   C.3       1 RES1   0.0000
    24 N24    -18.4282 -56.8788 -15.7537   N.3       1 RES1   1.0000
    25 C25    -18.8294 -58.0334 -15.3733   C.2       1 RES1   0.0000
    26 C26    -16.9923 -56.8565 -16.1609   C.3       1 RES1   0.0000
    27 C27    -16.5889 -55.4816 -16.6319   C.3       1 RES1   0.0000
    28 C28    -15.5799 -53.8176 -18.8169   C.2       1 RES1   0.0000
    29 C29    -15.0667 -53.0879 -19.8973   C.2       1 RES1   0.0000
    30 N30    -13.6358 -50.9723 -23.3742   N.2       1 RES1   0.0000
    31 C31    -12.3833 -50.6136 -23.6278   C.2       1 RES1   0.0000
    32 C32    -11.3807 -51.0810 -22.7767   C.2       1 RES1   0.0000
    33 Cl33    -9.6968 -50.6154 -23.0938   Cl        1 RES1   0.0000
@<TRIPOS>BOND
     1     1     2    1
     2     2     3    1
     3     3     4    2
     4     3     5    1
     5     5     6    1
     6     6     7    2
     7     7     8    1
     8     8     9    2
     9     9    10    1
    10    10    11    2
    11    11    12    1
    12    12    13    1
    13    13    14    2
    14    14    15    1
    15    15    16    1
    16    16    17    1
    17    17    18    2
    18    18    19    1
    19    19    20    2
    20    20    21    1
    21    21    22    1
    22    22    23    1
    23    23    24    1
    24    24    25    1
    25    24    26    1
    26    26    27    1
    27    20    28    1
    28    28    29    2
    29    15    30    2
    30    30    31    1
    31    31    32    2
    32    32    33    1
    33    11     6    1
    34    32    13    1
    35    29    17    1
    36    27    21    1
@<TRIPOS>SUBSTRUCTURE
     1 RES1        1 GROUP             0 ****  ****    0  
@<TRIPOS>MOLECULE
ligand_23
    33    36     1     0     0
SMALL
USER_CHARGES
****
Generated from the CSD

@<TRIPOS>ATOM
     1 C1      -9.3165 -48.4701 -18.0583   C.3       1 RES1   0.0000
     2 C2      -8.6480 -49.8242 -18.2906   C.3       1 RES1   0.0000
     3 C3      -9.7262 -50.9088 -18.2311   C.2       1 RES1   0.0000
     4 O4     -10.8634 -50.6788 -17.9651   O.2       1 RES1   0.0000
     5 O5      -9.2750 -52.2212 -18.5141   O.3       1 RES1   0.0000
     6 C6     -10.2648 -53.2562 -18.4621   C.2       1 RES1   0.0000
     7 C7     -10.8621 -53.7082 -19.6406   C.2       1 RES1   0.0000
     8 C8     -11.8335 -54.7229 -19.5693   C.2       1 RES1   0.0000
     9 C9     -12.1859 -55.2549 -18.3171   C.2       1 RES1   0.0000
    10 C10    -11.5857 -54.7936 -17.1311   C.2       1 RES1   0.0000
    11 C11    -10.6171 -53.7788 -17.2034   C.2       1 RES1   0.0000
    12 N12     -9.9437 -53.2583 -15.9741   N.2       1 RES1   0.0000
    13 C13    -10.6120 -53.1263 -14.6741   C.2       1 RES1   0.0000
    14 N14    -11.9181 -53.3909 -14.5564   N.2       1 RES1   0.0000
    15 C15    -12.5248 -53.2747 -13.3846   C.2       1 RES1   0.0000
    16 N16    -13.9557 -53.5562 -13.2446   N.2       1 RES1   0.0000
    17 C17    -14.8458 -53.8327 -14.3874   C.2       1 RES1   0.0000
    18 C18    -16.1789 -54.1139 -14.1346   C.2       1 RES1   0.0000
    19 C19    -17.0562 -54.3726 -15.1969   C.2       1 RES1   0.0000
    20 C20    -16.5888 -54.3493 -16.5069   C.2       1 RES1   0.0000
    21 N21    -17.5333 -54.6307 -17.6168   N.pl3     1 RES1   0.0000
    22 C22    -18.6524 -55.5623 -17.5176   C.3       1 RES1   0.0000
    23 C23    -19.8261 -55.0466 -18.3136   C.3       1 RES1   0.0000
    24 N24    -19.4378 -54.8046 -19.7343   N.3       1 RES1   1.0000
    25 C25    -20.4505 -54.3669 -20.3835   C.2       1 RES1   0.0000
    26 C26    -18.2519 -53.9012 -19.8092   C.3       1 RES1   0.0000
    27 C27    -17.1056 -54.4511 -18.9977   C.3       1 RES1   0.0000
    28 C28    -15.2532 -54.0673 -16.7655   C.2       1 RES1   0.0000
    29 C29    -14.3805 -53.8041 -15.7016   C.2       1 RES1   0.0000
    30 N30    -11.8810 -52.9119 -12.3040   N.2       1 RES1   0.0000
    31 C31    -10.5835 -52.6336 -12.3289   C.2       1 RES1   0.0000
    32 C32     -9.9116 -52.7406 -13.5476   C.2       1 RES1   0.0000
    33 Cl33    -8.1753 -52.3740 -13.6078   Cl        1 RES1   0.0000
@<TRIPOS>BOND
     1     1     2    1
     2     2     3    1
     3     3     4    2
     4     3     5    1
     5     5     6    1
     6     6     7    2
     7     7     8    1
     8     8     9    2
     9     9    10    1
    10    10    11    2
    11    11    12    1
    12    12    13    1
    13    13    14    2
    14    14    15    1
    15    15    16    1
    16    16    17    1
    17    17    18    2
    18    18    19    1
    19    19    20    2
    20    20    21    1
    21    21    22    1
    22    22    23    1
    23    23    24    1
    24    24    25    1
    25    24    26    1
    26    26    27    1
    27    20    28    1
    28    28    29    2
    29    15    30    2
    30    30    31    1
    31    31    32    2
    32    32    33    1
    33    11     6    1
    34    32    13    1
    35    29    17    1
    36    27    21    1
@<TRIPOS>SUBSTRUCTURE
     1 RES1        1 GROUP             0 ****  ****    0  
@<TRIPOS>MOLECULE
ligand_24
    33    36     1     0     0
SMALL
USER_CHARGES
****
Generated from the CSD

@<TRIPOS>ATOM
     1 C1      -8.0812 -48.9053 -18.0598   C.3       1 RES1   0.0000
     2 C2      -7.7901 -50.3877 -18.2878   C.3       1 RES1   0.0000
     3 C3      -9.1161 -51.1505 -18.2405   C.2       1 RES1   0.0000
     4 O4     -10.1553 -50.6293 -17.9851   O.2       1 RES1   0.0000
     5 O5      -9.0231 -52.5356 -18.5212   O.3       1 RES1   0.0000
     6 C6     -10.2508 -53.2739 -18.4804   C.2       1 RES1   0.0000
     7 C7     -10.5732 -54.0269 -17.3494   C.2       1 RES1   0.0000
     8 C8     -11.7812 -54.7469 -17.3291   C.2       1 RES1   0.0000
     9 C9     -12.6330 -54.6987 -18.4458   C.2       1 RES1   0.0000
    10 C10    -12.3026 -53.9430 -19.5858   C.2       1 RES1   0.0000
    11 C11    -11.0950 -53.2257 -19.6058   C.2       1 RES1   0.0000
    12 N12    -10.7002 -52.4015 -20.7891   N.2       1 RES1   0.0000
    13 C13    -11.0078 -52.7694 -22.1763   C.2       1 RES1   0.0000
    14 N14    -11.5941 -53.9404 -22.4501   N.2       1 RES1   0.0000
    15 C15    -11.8749 -54.2756 -23.7004   C.2       1 RES1   0.0000
    16 N16    -12.5117 -55.5575 -24.0131   N.2       1 RES1   0.0000
    17 C17    -12.7445 -56.6154 -23.0124   C.2       1 RES1   0.0000
    18 C18    -13.3819 -57.7779 -23.4150   C.2       1 RES1   0.0000
    19 C19    -13.6119 -58.8086 -22.4932   C.2       1 RES1   0.0000
    20 C20    -13.2020 -58.6646 -21.1716   C.2       1 RES1   0.0000
    21 N21    -13.4595 -59.7660 -20.2106   N.pl3     1 RES1   0.0000
    22 C22    -14.6302 -60.6360 -20.2631   C.3       1 RES1   0.0000
    23 C23    -14.2529 -62.0359 -19.8446   C.3       1 RES1   0.0000
    24 N24    -13.6310 -62.0340 -18.4878   N.3       1 RES1   1.0000
    25 C25    -13.3202 -63.2320 -18.1607   C.2       1 RES1   0.0000
    26 C26    -12.4762 -61.0894 -18.4394   C.3       1 RES1   0.0000
    27 C27    -12.8957 -59.7058 -18.8687   C.3       1 RES1   0.0000
    28 C28    -12.5619 -57.5012 -20.7633   C.2       1 RES1   0.0000
    29 C29    -12.3291 -56.4753 -21.6886   C.2       1 RES1   0.0000
    30 N30    -11.6053 -53.4837 -24.7073   N.2       1 RES1   0.0000
    31 C31    -11.0276 -52.3024 -24.5268   C.2       1 RES1   0.0000
    32 C32    -10.7127 -51.9173 -23.2227   C.2       1 RES1   0.0000
    33 Cl33    -9.9395 -50.3416 -22.9540   Cl        1 RES1   0.0000
@<TRIPOS>BOND
     1     1     2    1
     2     2     3    1
     3     3     4    2
     4     3     5    1
     5     5     6    1
     6     6     7    2
     7     7     8    1
     8     8     9    2
     9     9    10    1
    10    10    11    2
    11    11    12    1
    12    12    13    1
    13    13    14    2
    14    14    15    1
    15    15    16    1
    16    16    17    1
    17    17    18    2
    18    18    19    1
    19    19    20    2
    20    20    21    1
    21    21    22    1
    22    22    23    1
    23    23    24    1
    24    24    25    1
    25    24    26    1
    26    26    27    1
    27    20    28    1
    28    28    29    2
    29    15    30    2
    30    30    31    1
    31    31    32    2
    32    32    33    1
    33    11     6    1
    34    32    13    1
    35    29    17    1
    36    27    21    1
@<TRIPOS>SUBSTRUCTURE
     1 RES1        1 GROUP             0 ****  ****    0  
@<TRIPOS>MOLECULE
ligand_25
    33    36     1     0     0
SMALL
USER_CHARGES
****
Generated from the CSD

@<TRIPOS>ATOM
     1 C1      -8.5592 -48.6157 -18.0342   C.3       1 RES1   0.0000
     2 C2      -8.0871 -50.0566 -18.2218   C.3       1 RES1   0.0000
     3 C3      -9.3164 -50.9683 -18.2257   C.2       1 RES1   0.0000
     4 O4     -10.4206 -50.5690 -18.0303   O.2       1 RES1   0.0000
     5 O5      -9.0495 -52.3363 -18.4774   O.3       1 RES1   0.0000
     6 C6     -10.1819 -53.2146 -18.4683   C.2       1 RES1   0.0000
     7 C7     -10.9575 -53.3388 -17.3138   C.2       1 RES1   0.0000
     8 C8     -12.0634 -54.2078 -17.3232   C.2       1 RES1   0.0000
     9 C9     -12.3604 -54.9351 -18.4885   C.2       1 RES1   0.0000
    10 C10    -11.5738 -54.8114 -19.6485   C.2       1 RES1   0.0000
    11 C11    -10.4684 -53.9446 -19.6373   C.2       1 RES1   0.0000
    12 N12     -9.6047 -53.7710 -20.8454   N.2       1 RES1   0.0000
    13 C13     -9.8118 -54.4958 -22.1048   C.2       1 RES1   0.0000
    14 N14    -10.8126 -55.3759 -22.2206   N.2       1 RES1   0.0000
    15 C15    -11.0040 -56.0309 -23.3559   C.2       1 RES1   0.0000
    16 N16    -12.0931 -57.0013 -23.4928   N.2       1 RES1   0.0000
    17 C17    -12.3929 -57.7156 -24.7476   C.2       1 RES1   0.0000
    18 C18    -12.8620 -59.0172 -24.6719   C.2       1 RES1   0.0000
    19 C19    -13.1661 -59.7239 -25.8437   C.2       1 RES1   0.0000
    20 C20    -12.9952 -59.1196 -27.0850   C.2       1 RES1   0.0000
    21 N21    -13.3185 -59.8871 -28.3135   N.pl3     1 RES1   0.0000
    22 C22    -12.7586 -59.5929 -29.6289   C.3       1 RES1   0.0000
    23 C23    -12.5298 -60.8747 -30.3916   C.3       1 RES1   0.0000
    24 N24    -13.7937 -61.6617 -30.4967   N.3       1 RES1   1.0000
    25 C25    -13.5693 -62.7421 -31.1456   C.2       1 RES1   0.0000
    26 C26    -14.3824 -61.8951 -29.1450   C.3       1 RES1   0.0000
    27 C27    -14.5899 -60.5907 -28.4169   C.3       1 RES1   0.0000
    28 C28    -12.5257 -57.8146 -27.1661   C.2       1 RES1   0.0000
    29 C29    -12.2278 -57.1096 -25.9926   C.2       1 RES1   0.0000
    30 N30    -10.2409 -55.8410 -24.4025   N.2       1 RES1   0.0000
    31 C31     -9.2275 -54.9844 -24.3771   C.2       1 RES1   0.0000
    32 C32     -8.9924 -54.2793 -23.1956   C.2       1 RES1   0.0000
    33 Cl33    -7.6428 -53.1269 -23.1356   Cl        1 RES1   0.0000
@<TRIPOS>BOND
     1     1     2    1
     2     2     3    1
     3     3     4    2
     4     3     5    1
     5     5     6    1
     6     6     7    2
     7     7     8    1
     8     8     9    2
     9     9    10    1
    10    10    11    2
    11    11    12    1
    12    12    13    1
    13    13    14    2
    14    14    15    1
    15    15    16    1
    16    16    17    1
    17    17    18    2
    18    18    19    1
    19    19    20    2
    20    20    21    1
    21    21    22    1
    22    22    23    1
    23    23    24    1
    24    24    25    1
    25    24    26    1
    26    26    27    1
    27    20    28    1
    28    28    29    2
    29    15    30    2
    30    30    31    1
    31    31    32    2
    32    32    33    1
    33    11     6    1
    34    32    13    1
    35    29    17    1
    36    27    21    1
@<TRIPOS>SUBSTRUCTURE
     1 RES1        1 GROUP             0 ****  ****    0  
@<TRIPOS>MOLECULE
ligand_26
    33    36     1     0     0
SMALL
USER_CHARGES
****
Generated from the CSD

@<TRIPOS>ATOM
     1 C1      -8.9909 -48.4868 -17.9713   C.3       1 RES1   0.0000
     2 C2      -8.4069 -49.8767 -18.2193   C.3       1 RES1   0.0000
     3 C3      -9.5522 -50.8914 -18.1891   C.2       1 RES1   0.0000
     4 O4     -10.6755 -50.5941 -17.9311   O.2       1 RES1   0.0000
     5 O5      -9.1817 -52.2251 -18.4893   O.3       1 RES1   0.0000
     6 C6     -10.2356 -53.1959 -18.4649   C.2       1 RES1   0.0000
     7 C7     -10.8468 -53.5902 -19.6570   C.2       1 RES1   0.0000
     8 C8     -11.8812 -54.5422 -19.6127   C.2       1 RES1   0.0000
     9 C9     -12.2809 -55.0707 -18.3733   C.2       1 RES1   0.0000
    10 C10    -11.6663 -54.6675 -17.1736   C.2       1 RES1   0.0000
    11 C11    -10.6346 -53.7153 -17.2189   C.2       1 RES1   0.0000
    12 N12     -9.9437 -53.2583 -15.9741   N.2       1 RES1   0.0000
    13 C13    -10.6120 -53.1263 -14.6741   C.2       1 RES1   0.0000
    14 N14    -11.9181 -53.3909 -14.5564   N.2       1 RES1   0.0000
    15 C15    -12.5248 -53.2747 -13.3846   C.2       1 RES1   0.0000
    16 N16    -13.9557 -53.5562 -13.2446   N.2       1 RES1   0.0000
    17 C17    -14.7033 -53.3638 -11.9881   C.2       1 RES1   0.0000
    18 C18    -14.3722 -52.2883 -11.1796   C.2       1 RES1   0.0000
    19 C19    -15.0676 -52.0689  -9.9824   C.2       1 RES1   0.0000
    20 C20    -16.0902 -52.9324  -9.6033   C.2       1 RES1   0.0000
    21 N21    -16.8107 -52.6849  -8.3294   N.pl3     1 RES1   0.0000
    22 C22    -18.2333 -52.9462  -8.1341   C.3       1 RES1   0.0000
    23 C23    -18.4803 -53.4368  -6.7286   C.3       1 RES1   0.0000
    24 N24    -17.9590 -52.4605  -5.7271   N.3       1 RES1   1.0000
    25 C25    -18.1804 -52.9032  -4.5465   C.2       1 RES1   0.0000
    26 C26    -16.5201 -52.1591  -5.9854   C.3       1 RES1   0.0000
    27 C27    -16.3178 -51.6771  -7.4002   C.3       1 RES1   0.0000
    28 C28    -16.4263 -54.0117 -10.4108   C.2       1 RES1   0.0000
    29 C29    -15.7326 -54.2249 -11.6093   C.2       1 RES1   0.0000
    30 N30    -11.8810 -52.9119 -12.3040   N.2       1 RES1   0.0000
    31 C31    -10.5835 -52.6336 -12.3289   C.2       1 RES1   0.0000
    32 C32     -9.9116 -52.7406 -13.5476   C.2       1 RES1   0.0000
    33 Cl33    -8.1753 -52.3740 -13.6078   Cl        1 RES1   0.0000
@<TRIPOS>BOND
     1     1     2    1
     2     2     3    1
     3     3     4    2
     4     3     5    1
     5     5     6    1
     6     6     7    2
     7     7     8    1
     8     8     9    2
     9     9    10    1
    10    10    11    2
    11    11    12    1
    12    12    13    1
    13    13    14    2
    14    14    15    1
    15    15    16    1
    16    16    17    1
    17    17    18    2
    18    18    19    1
    19    19    20    2
    20    20    21    1
    21    21    22    1
    22    22    23    1
    23    23    24    1
    24    24    25    1
    25    24    26    1
    26    26    27    1
    27    20    28    1
    28    28    29    2
    29    15    30    2
    30    30    31    1
    31    31    32    2
    32    32    33    1
    33    11     6    1
    34    32    13    1
    35    29    17    1
    36    27    21    1
@<TRIPOS>SUBSTRUCTURE
     1 RES1        1 GROUP             0 ****  ****    0  
@<TRIPOS>MOLECULE
ligand_27
    33    36     1     0     0
SMALL
USER_CHARGES
****
Generated from the CSD

@<TRIPOS>ATOM
     1 C1      -8.3067 -48.7594 -18.0435   C.3       1 RES1   0.0000
     2 C2      -7.9197 -50.2179 -18.2828   C.3       1 RES1   0.0000
     3 C3      -9.1925 -51.0665 -18.2367   C.2       1 RES1   0.0000
     4 O4     -10.2628 -50.6165 -17.9745   O.2       1 RES1   0.0000
     5 O5      -9.0098 -52.4406 -18.5275   O.3       1 RES1   0.0000
     6 C6     -10.1861 -53.2582 -18.4881   C.2       1 RES1   0.0000
     7 C7     -10.4543 -54.0384 -17.3614   C.2       1 RES1   0.0000
     8 C8     -11.6123 -54.8364 -17.3423   C.2       1 RES1   0.0000
     9 C9     -12.4695 -54.8366 -18.4560   C.2       1 RES1   0.0000
    10 C10    -12.1936 -54.0531 -19.5916   C.2       1 RES1   0.0000
    11 C11    -11.0358 -53.2579 -19.6104   C.2       1 RES1   0.0000
    12 N12    -10.7002 -52.4015 -20.7891   N.2       1 RES1   0.0000
    13 C13    -11.0078 -52.7694 -22.1763   C.2       1 RES1   0.0000
    14 N14    -11.5941 -53.9404 -22.4501   N.2       1 RES1   0.0000
    15 C15    -11.8749 -54.2756 -23.7004   C.2       1 RES1   0.0000
    16 N16    -12.5117 -55.5575 -24.0131   N.2       1 RES1   0.0000
    17 C17    -12.7715 -56.0225 -25.3882   C.2       1 RES1   0.0000
    18 C18    -11.8432 -55.7259 -26.3732   C.2       1 RES1   0.0000
    19 C19    -12.0526 -56.1595 -27.6897   C.2       1 RES1   0.0000
    20 C20    -13.1944 -56.8870 -28.0094   C.2       1 RES1   0.0000
    21 N21    -13.3993 -57.3326 -29.4103   N.pl3     1 RES1   0.0000
    22 C22    -14.0265 -58.5978 -29.7793   C.3       1 RES1   0.0000
    23 C23    -14.8464 -58.4215 -31.0338   C.3       1 RES1   0.0000
    24 N24    -14.0076 -57.8806 -32.1436   N.3       1 RES1   1.0000
    25 C25    -14.7285 -57.7401 -33.1921   C.2       1 RES1   0.0000
    26 C26    -13.3252 -56.6217 -31.7221   C.3       1 RES1   0.0000
    27 C27    -12.5221 -56.8412 -30.4645   C.3       1 RES1   0.0000
    28 C28    -14.1278 -57.1875 -27.0252   C.2       1 RES1   0.0000
    29 C29    -13.9126 -56.7568 -25.7095   C.2       1 RES1   0.0000
    30 N30    -11.6053 -53.4837 -24.7073   N.2       1 RES1   0.0000
    31 C31    -11.0276 -52.3024 -24.5268   C.2       1 RES1   0.0000
    32 C32    -10.7127 -51.9173 -23.2227   C.2       1 RES1   0.0000
    33 Cl33    -9.9395 -50.3416 -22.9540   Cl        1 RES1   0.0000
@<TRIPOS>BOND
     1     1     2    1
     2     2     3    1
     3     3     4    2
     4     3     5    1
     5     5     6    1
     6     6     7    2
     7     7     8    1
     8     8     9    2
     9     9    10    1
    10    10    11    2
    11    11    12    1
    12    12    13    1
    13    13    14    2
    14    14    15    1
    15    15    16    1
    16    16    17    1
    17    17    18    2
    18    18    19    1
    19    19    20    2
    20    20    21    1
    21    21    22    1
    22    22    23    1
    23    23    24    1
    24    24    25    1
    25    24    26    1
    26    26    27    1
    27    20    28    1
    28    28    29    2
    29    15    30    2
    30    30    31    1
    31    31    32    2
    32    32    33    1
    33    11     6    1
    34    32    13    1
    35    29    17    1
    36    27    21    1
@<TRIPOS>SUBSTRUCTURE
     1 RES1        1 GROUP             0 ****  ****    0  
@<TRIPOS>MOLECULE
ligand_28
    33    36     1     0     0
SMALL
USER_CHARGES
****
Generated from the CSD

@<TRIPOS>ATOM
     1 C1      -9.0269 -48.4892 -17.8864   C.3       1 RES1   0.0000
     2 C2      -8.4295 -49.8801 -18.0933   C.3       1 RES1   0.0000
     3 C3      -9.5756 -50.8934 -18.1375   C.2       1 RES1   0.0000
     4 O4     -10.7132 -50.5943 -17.9547   O.2       1 RES1   0.0000
     5 O5      -9.1879 -52.2280 -18.4107   O.3       1 RES1   0.0000
     6 C6     -10.2424 -53.1975 -18.4546   C.2       1 RES1   0.0000
     7 C7     -10.4831 -54.0150 -17.3484   C.2       1 RES1   0.0000
     8 C8     -11.5207 -54.9625 -17.4113   C.2       1 RES1   0.0000
     9 C9     -12.2872 -55.0706 -18.5843   C.2       1 RES1   0.0000
    10 C10    -12.0386 -54.2487 -19.6989   C.2       1 RES1   0.0000
    11 C11    -11.0009 -53.3040 -19.6356   C.2       1 RES1   0.0000
    12 N12    -10.7002 -52.4015 -20.7891   N.2       1 RES1   0.0000
    13 C13    -11.7216 -51.8933 -21.7126   C.2       1 RES1   0.0000
    14 N14    -13.0104 -52.2020 -21.5301   N.2       1 RES1   0.0000
    15 C15    -13.9355 -51.7441 -22.3602   C.2       1 RES1   0.0000
    16 N16    -15.3494 -52.0799 -22.1738   N.2       1 RES1   0.0000
    17 C17    -16.4127 -51.6714 -23.1104   C.2       1 RES1   0.0000
    18 C18    -16.1274 -51.6497 -24.4662   C.2       1 RES1   0.0000
    19 C19    -17.1163 -51.2752 -25.3865   C.2       1 RES1   0.0000
    20 C20    -18.3855 -50.9228 -24.9393   C.2       1 RES1   0.0000
    21 N21    -19.4167 -50.5250 -25.9300   N.pl3     1 RES1   0.0000
    22 C22    -20.8371 -50.8325 -25.7955   C.3       1 RES1   0.0000
    23 C23    -21.6658 -49.6953 -26.3404   C.3       1 RES1   0.0000
    24 N24    -21.2992 -49.4038 -27.7576   N.3       1 RES1   1.0000
    25 C25    -22.0154 -48.4357 -28.1918   C.2       1 RES1   0.0000
    26 C26    -19.8324 -49.1561 -27.8815   C.3       1 RES1   0.0000
    27 C27    -19.0431 -50.3131 -27.3220   C.3       1 RES1   0.0000
    28 C28    -18.6766 -50.9437 -23.5810   C.2       1 RES1   0.0000
    29 C29    -17.6873 -51.3234 -22.6646   C.2       1 RES1   0.0000
    30 N30    -13.6358 -50.9723 -23.3742   N.2       1 RES1   0.0000
    31 C31    -12.3833 -50.6136 -23.6278   C.2       1 RES1   0.0000
    32 C32    -11.3807 -51.0810 -22.7767   C.2       1 RES1   0.0000
    33 Cl33    -9.6968 -50.6154 -23.0938   Cl        1 RES1   0.0000
@<TRIPOS>BOND
     1     1     2    1
     2     2     3    1
     3     3     4    2
     4     3     5    1
     5     5     6    1
     6     6     7    2
     7     7     8    1
     8     8     9    2
     9     9    10    1
    10    10    11    2
    11    11    12    1
    12    12    13    1
    13    13    14    2
    14    14    15    1
    15    15    16    1
    16    16    17    1
    17    17    18    2
    18    18    19    1
    19    19    20    2
    20    20    21    1
    21    21    22    1
    22    22    23    1
    23    23    24    1
    24    24    25    1
    25    24    26    1
    26    26    27    1
    27    20    28    1
    28    28    29    2
    29    15    30    2
    30    30    31    1
    31    31    32    2
    32    32    33    1
    33    11     6    1
    34    32    13    1
    35    29    17    1
    36    27    21    1
@<TRIPOS>SUBSTRUCTURE
     1 RES1        1 GROUP             0 ****  ****    0  
@<TRIPOS>MOLECULE
ligand_29
    33    36     1     0     0
SMALL
USER_CHARGES
****
Generated from the CSD

@<TRIPOS>ATOM
     1 C1      -8.9888 -48.4873 -17.9716   C.3       1 RES1   0.0000
     2 C2      -8.4053 -49.8775 -18.2194   C.3       1 RES1   0.0000
     3 C3      -9.5510 -50.8918 -18.1892   C.2       1 RES1   0.0000
     4 O4     -10.6742 -50.5939 -17.9314   O.2       1 RES1   0.0000
     5 O5      -9.1810 -52.2256 -18.4893   O.3       1 RES1   0.0000
     6 C6     -10.2353 -53.1960 -18.4650   C.2       1 RES1   0.0000
     7 C7     -10.8465 -53.5901 -19.6571   C.2       1 RES1   0.0000
     8 C8     -11.8813 -54.5417 -19.6128   C.2       1 RES1   0.0000
     9 C9     -12.2813 -55.0700 -18.3735   C.2       1 RES1   0.0000
    10 C10    -11.6667 -54.6669 -17.1737   C.2       1 RES1   0.0000
    11 C11    -10.6346 -53.7151 -17.2189   C.2       1 RES1   0.0000
    12 N12     -9.9437 -53.2583 -15.9741   N.2       1 RES1   0.0000
    13 C13    -10.6120 -53.1263 -14.6741   C.2       1 RES1   0.0000
    14 N14    -11.9181 -53.3909 -14.5564   N.2       1 RES1   0.0000
    15 C15    -12.5248 -53.2747 -13.3846   C.2       1 RES1   0.0000
    16 N16    -13.9557 -53.5562 -13.2446   N.2       1 RES1   0.0000
    17 C17    -14.6731 -53.5020 -11.9573   C.2       1 RES1   0.0000
    18 C18    -15.9898 -53.0706 -11.9516   C.2       1 RES1   0.0000
    19 C19    -16.7058 -53.0148 -10.7477   C.2       1 RES1   0.0000
    20 C20    -16.0942 -53.3909  -9.5562   C.2       1 RES1   0.0000
    21 N21    -16.8685 -53.3199  -8.2920   N.pl3     1 RES1   0.0000
    22 C22    -17.8886 -52.3129  -8.0170   C.3       1 RES1   0.0000
    23 C23    -19.0089 -52.9196  -7.2083   C.3       1 RES1   0.0000
    24 N24    -18.4850 -53.5279  -5.9500   N.3       1 RES1   1.0000
    25 C25    -19.4553 -54.0353  -5.2867   C.2       1 RES1   0.0000
    26 C26    -17.3989 -54.5067  -6.2510   C.3       1 RES1   0.0000
    27 C27    -16.3040 -53.8611  -7.0630   C.3       1 RES1   0.0000
    28 C28    -14.7744 -53.8248  -9.5569   C.2       1 RES1   0.0000
    29 C29    -14.0636 -53.8842 -10.7628   C.2       1 RES1   0.0000
    30 N30    -11.8810 -52.9119 -12.3040   N.2       1 RES1   0.0000
    31 C31    -10.5835 -52.6336 -12.3289   C.2       1 RES1   0.0000
    32 C32     -9.9116 -52.7406 -13.5476   C.2       1 RES1   0.0000
    33 Cl33    -8.1753 -52.3740 -13.6078   Cl        1 RES1   0.0000
@<TRIPOS>BOND
     1     1     2    1
     2     2     3    1
     3     3     4    2
     4     3     5    1
     5     5     6    1
     6     6     7    2
     7     7     8    1
     8     8     9    2
     9     9    10    1
    10    10    11    2
    11    11    12    1
    12    12    13    1
    13    13    14    2
    14    14    15    1
    15    15    16    1
    16    16    17    1
    17    17    18    2
    18    18    19    1
    19    19    20    2
    20    20    21    1
    21    21    22    1
    22    22    23    1
    23    23    24    1
    24    24    25    1
    25    24    26    1
    26    26    27    1
    27    20    28    1
    28    28    29    2
    29    15    30    2
    30    30    31    1
    31    31    32    2
    32    32    33    1
    33    11     6    1
    34    32    13    1
    35    29    17    1
    36    27    21    1
@<TRIPOS>SUBSTRUCTURE
     1 RES1        1 GROUP             0 ****  ****    0  
@<TRIPOS>MOLECULE
ligand_30
    33    36     1     0     0
SMALL
USER_CHARGES
****
Generated from the CSD

@<TRIPOS>ATOM
     1 C1      -9.0242 -48.4889 -17.8883   C.3       1 RES1   0.0000
     2 C2      -8.4275 -49.8803 -18.0948   C.3       1 RES1   0.0000
     3 C3      -9.5742 -50.8930 -18.1383   C.2       1 RES1   0.0000
     4 O4     -10.7115 -50.5933 -17.9554   O.2       1 RES1   0.0000
     5 O5      -9.1871 -52.2279 -18.4112   O.3       1 RES1   0.0000
     6 C6     -10.2421 -53.1969 -18.4545   C.2       1 RES1   0.0000
     7 C7     -10.4829 -54.0139 -17.3479   C.2       1 RES1   0.0000
     8 C8     -11.5209 -54.9609 -17.4102   C.2       1 RES1   0.0000
     9 C9     -12.2878 -55.0690 -18.5829   C.2       1 RES1   0.0000
    10 C10    -12.0392 -54.2477 -19.6979   C.2       1 RES1   0.0000
    11 C11    -11.0010 -53.3035 -19.6352   C.2       1 RES1   0.0000
    12 N12    -10.7002 -52.4015 -20.7891   N.2       1 RES1   0.0000
    13 C13    -11.7216 -51.8933 -21.7126   C.2       1 RES1   0.0000
    14 N14    -13.0104 -52.2020 -21.5301   N.2       1 RES1   0.0000
    15 C15    -13.9355 -51.7441 -22.3602   C.2       1 RES1   0.0000
    16 N16    -15.3494 -52.0799 -22.1738   N.2       1 RES1   0.0000
    17 C17    -16.4298 -51.5536 -23.0284   C.2       1 RES1   0.0000
    18 C18    -17.5179 -52.3686 -23.2961   C.2       1 RES1   0.0000
    19 C19    -18.5679 -51.8985 -24.0971   C.2       1 RES1   0.0000
    20 C20    -18.5178 -50.6129 -24.6262   C.2       1 RES1   0.0000
    21 N21    -19.6377 -50.1363 -25.4756   N.pl3     1 RES1   0.0000
    22 C22    -20.4103 -50.9987 -26.3643   C.3       1 RES1   0.0000
    23 C23    -21.8527 -50.5562 -26.3884   C.3       1 RES1   0.0000
    24 N24    -21.9605 -49.1215 -26.7856   N.3       1 RES1   1.0000
    25 C25    -23.1926 -48.7743 -26.7955   C.2       1 RES1   0.0000
    26 C26    -21.1122 -48.2662 -25.9042   C.3       1 RES1   0.0000
    27 C27    -19.6821 -48.7453 -25.9059   C.3       1 RES1   0.0000
    28 C28    -17.4292 -49.7917 -24.3601   C.2       1 RES1   0.0000
    29 C29    -16.3841 -50.2631 -23.5549   C.2       1 RES1   0.0000
    30 N30    -13.6358 -50.9723 -23.3742   N.2       1 RES1   0.0000
    31 C31    -12.3833 -50.6136 -23.6278   C.2       1 RES1   0.0000
    32 C32    -11.3807 -51.0810 -22.7767   C.2       1 RES1   0.0000
    33 Cl33    -9.6968 -50.6154 -23.0938   Cl        1 RES1   0.0000
@<TRIPOS>BOND
     1     1     2    1
     2     2     3    1
     3     3     4    2
     4     3     5    1
     5     5     6    1
     6     6     7    2
     7     7     8    1
     8     8     9    2
     9     9    10    1
    10    10    11    2
    11    11    12    1
    12    12    13    1
    13    13    14    2
    14    14    15    1
    15    15    16    1
    16    16    17    1
    17    17    18    2
    18    18    19    1
    19    19    20    2
    20    20    21    1
    21    21    22    1
    22    22    23    1
    23    23    24    1
    24    24    25    1
    25    24    26    1
    26    26    27    1
    27    20    28    1
    28    28    29    2
    29    15    30    2
    30    30    31    1
    31    31    32    2
    32    32    33    1
    33    11     6    1
    34    32    13    1
    35    29    17    1
    36    27    21    1
@<TRIPOS>SUBSTRUCTURE
     1 RES1        1 GROUP             0 ****  ****    0  
@<TRIPOS>MOLECULE
ligand_31
    33    36     1     0     0
SMALL
USER_CHARGES
****
Generated from the CSD

@<TRIPOS>ATOM
     1 C1      -7.9985 -48.8559 -18.6301   C.3       1 RES1   0.0000
     2 C2      -7.7291 -50.3527 -18.7763   C.3       1 RES1   0.0000
     3 C3      -9.0380 -51.1036 -18.5210   C.2       1 RES1   0.0000
     4 O4     -10.0437 -50.5597 -18.1898   O.2       1 RES1   0.0000
     5 O5      -8.9719 -52.5064 -18.7044   O.3       1 RES1   0.0000
     6 C6     -10.1883 -53.2319 -18.4852   C.2       1 RES1   0.0000
     7 C7     -11.3235 -52.9322 -19.2411   C.2       1 RES1   0.0000
     8 C8     -12.5088 -53.6531 -19.0098   C.2       1 RES1   0.0000
     9 C9     -12.5278 -54.6526 -18.0220   C.2       1 RES1   0.0000
    10 C10    -11.3835 -54.9485 -17.2587   C.2       1 RES1   0.0000
    11 C11    -10.2007 -54.2266 -17.4893   C.2       1 RES1   0.0000
    12 N12     -8.9551 -54.5067 -16.7112   N.2       1 RES1   0.0000
    13 C13     -8.8233 -55.6141 -15.7570   C.2       1 RES1   0.0000
    14 N14     -9.8038 -56.5153 -15.6289   N.2       1 RES1   0.0000
    15 C15     -9.6882 -57.5172 -14.7702   C.2       1 RES1   0.0000
    16 N16    -10.7576 -58.5069 -14.6171   N.2       1 RES1   0.0000
    17 C17    -11.9886 -58.5062 -15.4290   C.2       1 RES1   0.0000
    18 C18    -13.1841 -58.8489 -14.8179   C.2       1 RES1   0.0000
    19 C19    -14.3756 -58.8503 -15.5563   C.2       1 RES1   0.0000
    20 C20    -14.3590 -58.5094 -16.9049   C.2       1 RES1   0.0000
    21 N21    -15.6310 -58.5219 -17.6697   N.3       1 RES1   0.0000
    22 C22    -15.4459 -57.9819 -19.0290   C.3       1 RES1   0.0000
    23 C23    -16.7313 -58.0156 -19.8166   C.3       1 RES1   0.0000
    24 N24    -17.7539 -57.1924 -19.1009   N.3       1 RES1   1.0000
    25 C25    -18.8293 -57.0457 -19.7797   C.2       1 RES1   0.0000
    26 C26    -17.9831 -57.8105 -17.7609   C.3       1 RES1   0.0000
    27 C27    -16.6956 -57.7914 -16.9709   C.3       1 RES1   0.0000
    28 C28    -13.1630 -58.1645 -17.5219   C.2       1 RES1   0.0000
    29 C29    -11.9749 -58.1592 -16.7795   C.2       1 RES1   0.0000
    30 N30     -8.6213 -57.6740 -14.0280   N.2       1 RES1   0.0000
    31 C31     -7.5996 -56.8293 -14.0928   C.2       1 RES1   0.0000
    32 C32     -7.6880 -55.7582 -14.9834   C.2       1 RES1   0.0000
    33 Cl33    -6.3345 -54.6137 -15.0895   Cl        1 RES1   0.0000
@<TRIPOS>BOND
     1     1     2    1
     2     2     3    1
     3     3     4    2
     4     3     5    1
     5     5     6    1
     6     6     7    2
     7     7     8    1
     8     8     9    2
     9     9    10    1
    10    10    11    2
    11    11    12    1
    12    12    13    1
    13    13    14    2
    14    14    15    1
    15    15    16    1
    16    16    17    1
    17    17    18    2
    18    18    19    1
    19    19    20    2
    20    20    21    1
    21    21    22    1
    22    22    23    1
    23    23    24    1
    24    24    25    1
    25    24    26    1
    26    26    27    1
    27    20    28    1
    28    28    29    2
    29    15    30    2
    30    30    31    1
    31    31    32    2
    32    32    33    1
    33    11     6    1
    34    32    13    1
    35    29    17    1
    36    27    21    1
@<TRIPOS>SUBSTRUCTURE
     1 RES1        1 GROUP             0 ****  ****    0  
@<TRIPOS>MOLECULE
ligand_32
    33    36     1     0     0
SMALL
USER_CHARGES
****
Generated from the CSD

@<TRIPOS>ATOM
     1 C1      -8.5833 -48.6056 -18.0416   C.3       1 RES1   0.0000
     2 C2      -8.1041 -50.0442 -18.2291   C.3       1 RES1   0.0000
     3 C3      -9.3286 -50.9623 -18.2293   C.2       1 RES1   0.0000
     4 O4     -10.4344 -50.5685 -18.0317   O.2       1 RES1   0.0000
     5 O5      -9.0551 -52.3291 -18.4804   O.3       1 RES1   0.0000
     6 C6     -10.1830 -53.2132 -18.4690   C.2       1 RES1   0.0000
     7 C7     -10.9572 -53.3392 -17.3136   C.2       1 RES1   0.0000
     8 C8     -12.0586 -54.2138 -17.3206   C.2       1 RES1   0.0000
     9 C9     -12.3527 -54.9448 -18.4844   C.2       1 RES1   0.0000
    10 C10    -11.5675 -54.8192 -19.6451   C.2       1 RES1   0.0000
    11 C11    -10.4666 -53.9468 -19.6364   C.2       1 RES1   0.0000
    12 N12     -9.6047 -53.7710 -20.8454   N.2       1 RES1   0.0000
    13 C13     -9.8118 -54.4958 -22.1048   C.2       1 RES1   0.0000
    14 N14    -10.8126 -55.3759 -22.2206   N.2       1 RES1   0.0000
    15 C15    -11.0040 -56.0309 -23.3559   C.2       1 RES1   0.0000
    16 N16    -12.0931 -57.0013 -23.4928   N.2       1 RES1   0.0000
    17 C17    -12.3332 -57.7869 -24.7175   C.2       1 RES1   0.0000
    18 C18    -13.6420 -58.0160 -25.1104   C.2       1 RES1   0.0000
    19 C19    -13.9081 -58.7509 -26.2741   C.2       1 RES1   0.0000
    20 C20    -12.8576 -59.2531 -27.0353   C.2       1 RES1   0.0000
    21 N21    -13.1612 -60.0326 -28.2614   N.3       1 RES1   0.0000
    22 C22    -14.6105 -60.2597 -28.4085   C.3       1 RES1   0.0000
    23 C23    -14.9240 -61.0307 -29.6659   C.3       1 RES1   0.0000
    24 N24    -14.2280 -62.3525 -29.6040   N.3       1 RES1   1.0000
    25 C25    -14.5626 -63.1295 -30.5648   C.2       1 RES1   0.0000
    26 C26    -12.7585 -62.0937 -29.5406   C.3       1 RES1   0.0000
    27 C27    -12.4389 -61.3103 -28.2891   C.3       1 RES1   0.0000
    28 C28    -11.5436 -59.0255 -26.6459   C.2       1 RES1   0.0000
    29 C29    -11.2815 -58.2861 -25.4851   C.2       1 RES1   0.0000
    30 N30    -10.2409 -55.8410 -24.4025   N.2       1 RES1   0.0000
    31 C31     -9.2275 -54.9844 -24.3771   C.2       1 RES1   0.0000
    32 C32     -8.9924 -54.2793 -23.1956   C.2       1 RES1   0.0000
    33 Cl33    -7.6428 -53.1269 -23.1356   Cl        1 RES1   0.0000
@<TRIPOS>BOND
     1     1     2    1
     2     2     3    1
     3     3     4    2
     4     3     5    1
     5     5     6    1
     6     6     7    2
     7     7     8    1
     8     8     9    2
     9     9    10    1
    10    10    11    2
    11    11    12    1
    12    12    13    1
    13    13    14    2
    14    14    15    1
    15    15    16    1
    16    16    17    1
    17    17    18    2
    18    18    19    1
    19    19    20    2
    20    20    21    1
    21    21    22    1
    22    22    23    1
    23    23    24    1
    24    24    25    1
    25    24    26    1
    26    26    27    1
    27    20    28    1
    28    28    29    2
    29    15    30    2
    30    30    31    1
    31    31    32    2
    32    32    33    1
    33    11     6    1
    34    32    13    1
    35    29    17    1
    36    27    21    1
@<TRIPOS>SUBSTRUCTURE
     1 RES1        1 GROUP             0 ****  ****    0  
@<TRIPOS>MOLECULE
ligand_33
    33    36     1     0     0
SMALL
USER_CHARGES
****
Generated from the CSD

@<TRIPOS>ATOM
     1 C1      -7.8990 -48.9637 -17.7533   C.3       1 RES1   0.0000
     2 C2      -7.6430 -50.4500 -17.9981   C.3       1 RES1   0.0000
     3 C3      -8.9947 -51.1627 -18.0832   C.2       1 RES1   0.0000
     4 O4     -10.0325 -50.6089 -17.9008   O.2       1 RES1   0.0000
     5 O5      -8.9281 -52.5428 -18.3943   O.3       1 RES1   0.0000
     6 C6     -10.1796 -53.2378 -18.4625   C.2       1 RES1   0.0000
     7 C7     -11.0076 -53.2928 -17.3393   C.2       1 RES1   0.0000
     8 C8     -12.2308 -53.9818 -17.4247   C.2       1 RES1   0.0000
     9 C9     -12.5904 -54.6036 -18.6327   C.2       1 RES1   0.0000
    10 C10    -11.7514 -54.5505 -19.7609   C.2       1 RES1   0.0000
    11 C11    -10.5292 -53.8637 -19.6739   C.2       1 RES1   0.0000
    12 N12     -9.6047 -53.7710 -20.8454   N.2       1 RES1   0.0000
    13 C13     -9.8118 -54.4958 -22.1048   C.2       1 RES1   0.0000
    14 N14    -10.8126 -55.3759 -22.2206   N.2       1 RES1   0.0000
    15 C15    -11.0040 -56.0309 -23.3559   C.2       1 RES1   0.0000
    16 N16    -12.0931 -57.0013 -23.4928   N.2       1 RES1   0.0000
    17 C17    -12.9979 -57.3695 -22.3881   C.2       1 RES1   0.0000
    18 C18    -12.4679 -57.4997 -21.1145   C.2       1 RES1   0.0000
    19 C19    -13.2996 -57.8396 -20.0386   C.2       1 RES1   0.0000
    20 C20    -14.6588 -58.0488 -20.2487   C.2       1 RES1   0.0000
    21 N21    -15.5210 -58.4126 -19.0966   N.3       1 RES1   0.0000
    22 C22    -16.9451 -58.4353 -19.4775   C.3       1 RES1   0.0000
    23 C23    -17.8216 -58.8281 -18.3152   C.3       1 RES1   0.0000
    24 N24    -17.6284 -57.8370 -17.2125   N.3       1 RES1   1.0000
    25 C25    -18.4482 -58.0125 -16.2450   C.2       1 RES1   0.0000
    26 C26    -16.1973 -57.8956 -16.7897   C.3       1 RES1   0.0000
    27 C27    -15.3126 -57.5153 -17.9536   C.3       1 RES1   0.0000
    28 C28    -15.1950 -57.9188 -21.5237   C.2       1 RES1   0.0000
    29 C29    -14.3616 -57.5739 -22.5957   C.2       1 RES1   0.0000
    30 N30    -10.2409 -55.8410 -24.4025   N.2       1 RES1   0.0000
    31 C31     -9.2275 -54.9844 -24.3771   C.2       1 RES1   0.0000
    32 C32     -8.9924 -54.2793 -23.1956   C.2       1 RES1   0.0000
    33 Cl33    -7.6428 -53.1269 -23.1356   Cl        1 RES1   0.0000
@<TRIPOS>BOND
     1     1     2    1
     2     2     3    1
     3     3     4    2
     4     3     5    1
     5     5     6    1
     6     6     7    2
     7     7     8    1
     8     8     9    2
     9     9    10    1
    10    10    11    2
    11    11    12    1
    12    12    13    1
    13    13    14    2
    14    14    15    1
    15    15    16    1
    16    16    17    1
    17    17    18    2
    18    18    19    1
    19    19    20    2
    20    20    21    1
    21    21    22    1
    22    22    23    1
    23    23    24    1
    24    24    25    1
    25    24    26    1
    26    26    27    1
    27    20    28    1
    28    28    29    2
    29    15    30    2
    30    30    31    1
    31    31    32    2
    32    32    33    1
    33    11     6    1
    34    32    13    1
    35    29    17    1
    36    27    21    1
@<TRIPOS>SUBSTRUCTURE
     1 RES1        1 GROUP             0 ****  ****    0  
@<TRIPOS>MOLECULE
ligand_34
    33    36     1     0     0
SMALL
USER_CHARGES
****
Generated from the CSD

@<TRIPOS>ATOM
     1 C1      -8.3128 -48.7559 -18.0429   C.3       1 RES1   0.0000
     2 C2      -7.9237 -50.2140 -18.2818   C.3       1 RES1   0.0000
     3 C3      -9.1955 -51.0642 -18.2362   C.2       1 RES1   0.0000
     4 O4     -10.2665 -50.6156 -17.9745   O.2       1 RES1   0.0000
     5 O5      -9.0108 -52.4381 -18.5267   O.3       1 RES1   0.0000
     6 C6     -10.1861 -53.2572 -18.4877   C.2       1 RES1   0.0000
     7 C7     -10.4538 -54.0376 -17.3611   C.2       1 RES1   0.0000
     8 C8     -11.6108 -54.8372 -17.3424   C.2       1 RES1   0.0000
     9 C9     -12.4674 -54.8386 -18.4565   C.2       1 RES1   0.0000
    10 C10    -12.1920 -54.0549 -19.5921   C.2       1 RES1   0.0000
    11 C11    -11.0352 -53.2582 -19.6104   C.2       1 RES1   0.0000
    12 N12    -10.7002 -52.4015 -20.7891   N.2       1 RES1   0.0000
    13 C13    -11.0078 -52.7694 -22.1763   C.2       1 RES1   0.0000
    14 N14    -11.5941 -53.9404 -22.4501   N.2       1 RES1   0.0000
    15 C15    -11.8749 -54.2756 -23.7004   C.2       1 RES1   0.0000
    16 N16    -12.5117 -55.5575 -24.0131   N.2       1 RES1   0.0000
    17 C17    -12.8987 -55.9620 -25.3773   C.2       1 RES1   0.0000
    18 C18    -13.4536 -55.0097 -26.2171   C.2       1 RES1   0.0000
    19 C19    -13.8252 -55.3560 -27.5237   C.2       1 RES1   0.0000
    20 C20    -13.6389 -56.6574 -27.9785   C.2       1 RES1   0.0000
    21 N21    -14.0434 -57.0042 -29.3638   N.pl3     1 RES1   0.0000
    22 C22    -13.3262 -57.9545 -30.2081   C.3       1 RES1   0.0000
    23 C23    -14.3020 -58.7245 -31.0635   C.3       1 RES1   0.0000
    24 N24    -15.1435 -57.7961 -31.8745   N.3       1 RES1   1.0000
    25 C25    -15.9613 -58.4759 -32.5872   C.2       1 RES1   0.0000
    26 C26    -15.8162 -56.7932 -30.9971   C.3       1 RES1   0.0000
    27 C27    -14.8067 -56.0508 -30.1578   C.3       1 RES1   0.0000
    28 C28    -13.0822 -57.6155 -27.1404   C.2       1 RES1   0.0000
    29 C29    -12.7074 -57.2645 -25.8369   C.2       1 RES1   0.0000
    30 N30    -11.6053 -53.4837 -24.7073   N.2       1 RES1   0.0000
    31 C31    -11.0276 -52.3024 -24.5268   C.2       1 RES1   0.0000
    32 C32    -10.7127 -51.9173 -23.2227   C.2       1 RES1   0.0000
    33 Cl33    -9.9395 -50.3416 -22.9540   Cl        1 RES1   0.0000
@<TRIPOS>BOND
     1     1     2    1
     2     2     3    1
     3     3     4    2
     4     3     5    1
     5     5     6    1
     6     6     7    2
     7     7     8    1
     8     8     9    2
     9     9    10    1
    10    10    11    2
    11    11    12    1
    12    12    13    1
    13    13    14    2
    14    14    15    1
    15    15    16    1
    16    16    17    1
    17    17    18    2
    18    18    19    1
    19    19    20    2
    20    20    21    1
    21    21    22    1
    22    22    23    1
    23    23    24    1
    24    24    25    1
    25    24    26    1
    26    26    27    1
    27    20    28    1
    28    28    29    2
    29    15    30    2
    30    30    31    1
    31    31    32    2
    32    32    33    1
    33    11     6    1
    34    32    13    1
    35    29    17    1
    36    27    21    1
@<TRIPOS>SUBSTRUCTURE
     1 RES1        1 GROUP             0 ****  ****    0  
@<TRIPOS>MOLECULE
ligand_35
    33    36     1     0     0
SMALL
USER_CHARGES
****
Generated from the CSD

@<TRIPOS>ATOM
     1 C1      -8.2792 -48.7699 -18.1531   C.3       1 RES1   0.0000
     2 C2      -7.8989 -50.2393 -18.3283   C.3       1 RES1   0.0000
     3 C3      -9.1794 -51.0761 -18.2796   C.2       1 RES1   0.0000
     4 O4     -10.2517 -50.6086 -18.0592   O.2       1 RES1   0.0000
     5 O5      -9.0015 -52.4615 -18.5141   O.3       1 RES1   0.0000
     6 C6     -10.1852 -53.2683 -18.4711   C.2       1 RES1   0.0000
     7 C7     -10.8286 -53.6244 -19.6582   C.2       1 RES1   0.0000
     8 C8     -11.9905 -54.4145 -19.5956   C.2       1 RES1   0.0000
     9 C9     -12.4816 -54.8228 -18.3437   C.2       1 RES1   0.0000
    10 C10    -11.8336 -54.4580 -17.1493   C.2       1 RES1   0.0000
    11 C11    -10.6743 -53.6673 -17.2129   C.2       1 RES1   0.0000
    12 N12     -9.9437 -53.2583 -15.9741   N.2       1 RES1   0.0000
    13 C13     -9.8634 -54.0872 -14.7655   C.2       1 RES1   0.0000
    14 N14    -10.4327 -55.2975 -14.7379   N.2       1 RES1   0.0000
    15 C15    -10.3611 -56.0494 -13.6497   C.2       1 RES1   0.0000
    16 N16    -10.9855 -57.3742 -13.6056   N.2       1 RES1   0.0000
    17 C17    -10.8924 -58.2787 -12.4447   C.2       1 RES1   0.0000
    18 C18     -9.6847 -58.3690 -11.7715   C.2       1 RES1   0.0000
    19 C19     -9.5620 -59.2117 -10.6581   C.2       1 RES1   0.0000
    20 C20    -10.6528 -59.9605 -10.2285   C.2       1 RES1   0.0000
    21 N21    -10.5002 -60.8502  -9.0503   N.pl3     1 RES1   0.0000
    22 C22    -11.5554 -61.0945  -8.0719   C.3       1 RES1   0.0000
    23 C23    -11.4938 -62.5236  -7.5915   C.3       1 RES1   0.0000
    24 N24    -10.1453 -62.8380  -7.0344   N.3       1 RES1   1.0000
    25 C25    -10.1222 -64.0548  -6.6374   C.2       1 RES1   0.0000
    26 C26     -9.0780 -62.5199  -8.0282   C.3       1 RES1   0.0000
    27 C27     -9.1788 -61.0858  -8.4842   C.3       1 RES1   0.0000
    28 C28    -11.8660 -59.8730 -10.8997   C.2       1 RES1   0.0000
    29 C29    -11.9864 -59.0257 -12.0090   C.2       1 RES1   0.0000
    30 N30     -9.7307 -55.6524 -12.5733   N.2       1 RES1   0.0000
    31 C31     -9.1346 -54.4680 -12.5144   C.2       1 RES1   0.0000
    32 C32     -9.1932 -53.6460 -13.6410   C.2       1 RES1   0.0000
    33 Cl33    -8.4037 -52.0565 -13.5882   Cl        1 RES1   0.0000
@<TRIPOS>BOND
     1     1     2    1
     2     2     3    1
     3     3     4    2
     4     3     5    1
     5     5     6    1
     6     6     7    2
     7     7     8    1
     8     8     9    2
     9     9    10    1
    10    10    11    2
    11    11    12    1
    12    12    13    1
    13    13    14    2
    14    14    15    1
    15    15    16    1
    16    16    17    1
    17    17    18    2
    18    18    19    1
    19    19    20    2
    20    20    21    1
    21    21    22    1
    22    22    23    1
    23    23    24    1
    24    24    25    1
    25    24    26    1
    26    26    27    1
    27    20    28    1
    28    28    29    2
    29    15    30    2
    30    30    31    1
    31    31    32    2
    32    32    33    1
    33    11     6    1
    34    32    13    1
    35    29    17    1
    36    27    21    1
@<TRIPOS>SUBSTRUCTURE
     1 RES1        1 GROUP             0 ****  ****    0  
@<TRIPOS>MOLECULE
ligand_36
    33    36     1     0     0
SMALL
USER_CHARGES
****
Generated from the CSD

@<TRIPOS>ATOM
     1 C1      -9.1549 -48.4545 -18.1789   C.3       1 RES1   0.0000
     2 C2      -8.5233 -49.8378 -18.3266   C.3       1 RES1   0.0000
     3 C3      -9.6423 -50.8816 -18.3049   C.2       1 RES1   0.0000
     4 O4     -10.7850 -50.6037 -18.1204   O.2       1 RES1   0.0000
     5 O5      -9.2227 -52.2174 -18.5185   O.3       1 RES1   0.0000
     6 C6     -10.2492 -53.2168 -18.4852   C.2       1 RES1   0.0000
     7 C7     -11.0101 -53.3951 -17.3279   C.2       1 RES1   0.0000
     8 C8     -12.0113 -54.3828 -17.3133   C.2       1 RES1   0.0000
     9 C9     -12.2205 -55.1712 -18.4578   C.2       1 RES1   0.0000
    10 C10    -11.4487 -54.9923 -19.6205   C.2       1 RES1   0.0000
    11 C11    -10.4478 -54.0067 -19.6333   C.2       1 RES1   0.0000
    12 N12     -9.6047 -53.7710 -20.8454   N.2       1 RES1   0.0000
    13 C13    -10.0905 -53.9401 -22.2200   C.2       1 RES1   0.0000
    14 N14    -11.3657 -54.2733 -22.4492   N.2       1 RES1   0.0000
    15 C15    -11.8087 -54.4252 -23.6883   C.2       1 RES1   0.0000
    16 N16    -13.2016 -54.7955 -23.9516   N.2       1 RES1   0.0000
    17 C17    -14.2243 -54.9167 -22.8961   C.2       1 RES1   0.0000
    18 C18    -15.4319 -55.5186 -23.2113   C.2       1 RES1   0.0000
    19 C19    -16.4239 -55.6593 -22.2310   C.2       1 RES1   0.0000
    20 C20    -16.1978 -55.1927 -20.9401   C.2       1 RES1   0.0000
    21 N21    -17.2632 -55.3473 -19.9183   N.pl3     1 RES1   0.0000
    22 C22    -17.0056 -55.6173 -18.5073   C.3       1 RES1   0.0000
    23 C23    -18.0212 -54.9020 -17.6505   C.3       1 RES1   0.0000
    24 N24    -19.4093 -55.2895 -18.0389   N.3       1 RES1   1.0000
    25 C25    -20.2477 -54.6672 -17.2982   C.2       1 RES1   0.0000
    26 C26    -19.6295 -55.0655 -19.4982   C.3       1 RES1   0.0000
    27 C27    -18.5919 -55.7931 -20.3159   C.3       1 RES1   0.0000
    28 C28    -14.9884 -54.5891 -20.6190   C.2       1 RES1   0.0000
    29 C29    -13.9973 -54.4549 -21.6001   C.2       1 RES1   0.0000
    30 N30    -11.0332 -54.2482 -24.7280   N.2       1 RES1   0.0000
    31 C31     -9.7560 -53.9132 -24.5930   C.2       1 RES1   0.0000
    32 C32     -9.2526 -53.7489 -23.3015   C.2       1 RES1   0.0000
    33 Cl33    -7.5472 -53.3006 -23.0935   Cl        1 RES1   0.0000
@<TRIPOS>BOND
     1     1     2    1
     2     2     3    1
     3     3     4    2
     4     3     5    1
     5     5     6    1
     6     6     7    2
     7     7     8    1
     8     8     9    2
     9     9    10    1
    10    10    11    2
    11    11    12    1
    12    12    13    1
    13    13    14    2
    14    14    15    1
    15    15    16    1
    16    16    17    1
    17    17    18    2
    18    18    19    1
    19    19    20    2
    20    20    21    1
    21    21    22    1
    22    22    23    1
    23    23    24    1
    24    24    25    1
    25    24    26    1
    26    26    27    1
    27    20    28    1
    28    28    29    2
    29    15    30    2
    30    30    31    1
    31    31    32    2
    32    32    33    1
    33    11     6    1
    34    32    13    1
    35    29    17    1
    36    27    21    1
@<TRIPOS>SUBSTRUCTURE
     1 RES1        1 GROUP             0 ****  ****    0  
@<TRIPOS>MOLECULE
ligand_37
    33    36     1     0     0
SMALL
USER_CHARGES
****
Generated from the CSD

@<TRIPOS>ATOM
     1 C1      -9.2739 -48.3918 -17.8873   C.3       1 RES1   0.0000
     2 C2      -8.6162 -49.7604 -18.0574   C.3       1 RES1   0.0000
     3 C3      -9.7197 -50.8188 -18.1238   C.2       1 RES1   0.0000
     4 O4     -10.8733 -50.5629 -17.9803   O.2       1 RES1   0.0000
     5 O5      -9.2714 -52.1400 -18.3675   O.3       1 RES1   0.0000
     6 C6     -10.2851 -53.1511 -18.4314   C.2       1 RES1   0.0000
     7 C7     -10.5282 -53.9644 -17.3226   C.2       1 RES1   0.0000
     8 C8     -11.5252 -54.9530 -17.4052   C.2       1 RES1   0.0000
     9 C9     -12.2496 -55.1052 -18.5998   C.2       1 RES1   0.0000
    10 C10    -11.9986 -54.2873 -19.7168   C.2       1 RES1   0.0000
    11 C11    -11.0014 -53.3016 -19.6338   C.2       1 RES1   0.0000
    12 N12    -10.7002 -52.4015 -20.7891   N.2       1 RES1   0.0000
    13 C13    -11.7216 -51.8933 -21.7126   C.2       1 RES1   0.0000
    14 N14    -13.0104 -52.2020 -21.5301   N.2       1 RES1   0.0000
    15 C15    -13.9355 -51.7441 -22.3602   C.2       1 RES1   0.0000
    16 N16    -15.3494 -52.0799 -22.1738   N.2       1 RES1   0.0000
    17 C17    -15.8300 -53.0471 -21.1697   C.2       1 RES1   0.0000
    18 C18    -17.0068 -52.7685 -20.4932   C.2       1 RES1   0.0000
    19 C19    -17.4986 -53.6693 -19.5384   C.2       1 RES1   0.0000
    20 C20    -16.8044 -54.8439 -19.2673   C.2       1 RES1   0.0000
    21 N21    -17.3400 -55.7819 -18.2493   N.3       1 RES1   0.0000
    22 C22    -17.4325 -55.1414 -16.9246   C.3       1 RES1   0.0000
    23 C23    -17.9991 -56.0845 -15.8934   C.3       1 RES1   0.0000
    24 N24    -17.1062 -57.2798 -15.7949   N.3       1 RES1   1.0000
    25 C25    -17.4340 -58.0601 -14.8345   C.2       1 RES1   0.0000
    26 C26    -17.0979 -57.9560 -17.1263   C.3       1 RES1   0.0000
    27 C27    -16.5430 -57.0120 -18.1670   C.3       1 RES1   0.0000
    28 C28    -15.6245 -55.1280 -19.9434   C.2       1 RES1   0.0000
    29 C29    -15.1386 -54.2278 -20.9007   C.2       1 RES1   0.0000
    30 N30    -13.6358 -50.9723 -23.3742   N.2       1 RES1   0.0000
    31 C31    -12.3833 -50.6136 -23.6278   C.2       1 RES1   0.0000
    32 C32    -11.3807 -51.0810 -22.7767   C.2       1 RES1   0.0000
    33 Cl33    -9.6968 -50.6154 -23.0938   Cl        1 RES1   0.0000
@<TRIPOS>BOND
     1     1     2    1
     2     2     3    1
     3     3     4    2
     4     3     5    1
     5     5     6    1
     6     6     7    2
     7     7     8    1
     8     8     9    2
     9     9    10    1
    10    10    11    2
    11    11    12    1
    12    12    13    1
    13    13    14    2
    14    14    15    1
    15    15    16    1
    16    16    17    1
    17    17    18    2
    18    18    19    1
    19    19    20    2
    20    20    21    1
    21    21    22    1
    22    22    23    1
    23    23    24    1
    24    24    25    1
    25    24    26    1
    26    26    27    1
    27    20    28    1
    28    28    29    2
    29    15    30    2
    30    30    31    1
    31    31    32    2
    32    32    33    1
    33    11     6    1
    34    32    13    1
    35    29    17    1
    36    27    21    1
@<TRIPOS>SUBSTRUCTURE
     1 RES1        1 GROUP             0 ****  ****    0  
@<TRIPOS>MOLECULE
ligand_38
    33    36     1     0     0
SMALL
USER_CHARGES
****
Generated from the CSD

@<TRIPOS>ATOM
     1 C1      -8.2758 -48.7719 -18.1545   C.3       1 RES1   0.0000
     2 C2      -7.8965 -50.2416 -18.3292   C.3       1 RES1   0.0000
     3 C3      -9.1776 -51.0775 -18.2803   C.2       1 RES1   0.0000
     4 O4     -10.2495 -50.6091 -18.0602   O.2       1 RES1   0.0000
     5 O5      -9.0006 -52.4631 -18.5143   O.3       1 RES1   0.0000
     6 C6     -10.1849 -53.2690 -18.4711   C.2       1 RES1   0.0000
     7 C7     -10.8284 -53.6251 -19.6581   C.2       1 RES1   0.0000
     8 C8     -11.9909 -54.4143 -19.5955   C.2       1 RES1   0.0000
     9 C9     -12.4824 -54.8219 -18.3435   C.2       1 RES1   0.0000
    10 C10    -11.8343 -54.4571 -17.1491   C.2       1 RES1   0.0000
    11 C11    -10.6744 -53.6672 -17.2128   C.2       1 RES1   0.0000
    12 N12     -9.9437 -53.2583 -15.9741   N.2       1 RES1   0.0000
    13 C13     -9.8634 -54.0872 -14.7655   C.2       1 RES1   0.0000
    14 N14    -10.4327 -55.2975 -14.7379   N.2       1 RES1   0.0000
    15 C15    -10.3611 -56.0494 -13.6497   C.2       1 RES1   0.0000
    16 N16    -10.9855 -57.3742 -13.6056   N.2       1 RES1   0.0000
    17 C17    -11.0122 -58.2207 -12.3984   C.2       1 RES1   0.0000
    18 C18    -11.1623 -57.6086 -11.1645   C.2       1 RES1   0.0000
    19 C19    -11.2012 -58.3824  -9.9962   C.2       1 RES1   0.0000
    20 C20    -11.0871 -59.7666 -10.0742   C.2       1 RES1   0.0000
    21 N21    -11.1260 -60.5670  -8.8249   N.3       1 RES1   0.0000
    22 C22    -10.0268 -60.1962  -7.9149   C.3       1 RES1   0.0000
    23 C23    -10.0780 -60.9908  -6.6344   C.3       1 RES1   0.0000
    24 N24     -9.9653 -62.4441  -6.9670   N.3       1 RES1   1.0000
    25 C25     -9.8495 -63.1790  -5.9252   C.2       1 RES1   0.0000
    26 C26    -11.1356 -62.8108  -7.8192   C.3       1 RES1   0.0000
    27 C27    -11.0975 -62.0089  -9.0988   C.3       1 RES1   0.0000
    28 C28    -10.9372 -60.3851 -11.3092   C.2       1 RES1   0.0000
    29 C29    -10.9039 -59.6089 -12.4751   C.2       1 RES1   0.0000
    30 N30     -9.7307 -55.6524 -12.5733   N.2       1 RES1   0.0000
    31 C31     -9.1346 -54.4680 -12.5144   C.2       1 RES1   0.0000
    32 C32     -9.1932 -53.6460 -13.6410   C.2       1 RES1   0.0000
    33 Cl33    -8.4037 -52.0565 -13.5882   Cl        1 RES1   0.0000
@<TRIPOS>BOND
     1     1     2    1
     2     2     3    1
     3     3     4    2
     4     3     5    1
     5     5     6    1
     6     6     7    2
     7     7     8    1
     8     8     9    2
     9     9    10    1
    10    10    11    2
    11    11    12    1
    12    12    13    1
    13    13    14    2
    14    14    15    1
    15    15    16    1
    16    16    17    1
    17    17    18    2
    18    18    19    1
    19    19    20    2
    20    20    21    1
    21    21    22    1
    22    22    23    1
    23    23    24    1
    24    24    25    1
    25    24    26    1
    26    26    27    1
    27    20    28    1
    28    28    29    2
    29    15    30    2
    30    30    31    1
    31    31    32    2
    32    32    33    1
    33    11     6    1
    34    32    13    1
    35    29    17    1
    36    27    21    1
@<TRIPOS>SUBSTRUCTURE
     1 RES1        1 GROUP             0 ****  ****    0  
@<TRIPOS>MOLECULE
ligand_39
    33    36     1     0     0
SMALL
USER_CHARGES
****
Generated from the CSD

@<TRIPOS>ATOM
     1 C1      -8.2175 -48.8072 -18.1813   C.3       1 RES1   0.0000
     2 C2      -7.8637 -50.2835 -18.3537   C.3       1 RES1   0.0000
     3 C3      -9.1581 -51.0980 -18.2930   C.2       1 RES1   0.0000
     4 O4     -10.2206 -50.6113 -18.0670   O.2       1 RES1   0.0000
     5 O5      -9.0056 -52.4871 -18.5235   O.3       1 RES1   0.0000
     6 C6     -10.2027 -53.2732 -18.4693   C.2       1 RES1   0.0000
     7 C7     -10.8604 -53.6225 -19.6506   C.2       1 RES1   0.0000
     8 C8     -12.0352 -54.3923 -19.5771   C.2       1 RES1   0.0000
     9 C9     -12.5245 -54.7875 -18.3203   C.2       1 RES1   0.0000
    10 C10    -11.8621 -54.4295 -17.1317   C.2       1 RES1   0.0000
    11 C11    -10.6898 -53.6592 -17.2063   C.2       1 RES1   0.0000
    12 N12     -9.9437 -53.2583 -15.9741   N.2       1 RES1   0.0000
    13 C13     -9.8634 -54.0872 -14.7655   C.2       1 RES1   0.0000
    14 N14    -10.4327 -55.2975 -14.7379   N.2       1 RES1   0.0000
    15 C15    -10.3611 -56.0494 -13.6497   C.2       1 RES1   0.0000
    16 N16    -10.9855 -57.3742 -13.6056   N.2       1 RES1   0.0000
    17 C17    -11.6301 -58.0086 -14.7703   C.2       1 RES1   0.0000
    18 C18    -12.4117 -59.1336 -14.5623   C.2       1 RES1   0.0000
    19 C19    -13.0472 -59.7578 -15.6447   C.2       1 RES1   0.0000
    20 C20    -12.8922 -59.2492 -16.9302   C.2       1 RES1   0.0000
    21 N21    -13.5698 -59.9279 -18.0630   N.pl3     1 RES1   0.0000
    22 C22    -13.1352 -59.8243 -19.4524   C.3       1 RES1   0.0000
    23 C23    -13.3585 -61.1367 -20.1629   C.3       1 RES1   0.0000
    24 N24    -14.7876 -61.5562 -20.0647   N.3       1 RES1   1.0000
    25 C25    -14.9464 -62.6711 -20.6734   C.2       1 RES1   0.0000
    26 C26    -15.2286 -61.5927 -18.6392   C.3       1 RES1   0.0000
    27 C27    -14.9838 -60.2650 -17.9669   C.3       1 RES1   0.0000
    28 C28    -12.1101 -58.1210 -17.1438   C.2       1 RES1   0.0000
    29 C29    -11.4807 -57.4968 -16.0588   C.2       1 RES1   0.0000
    30 N30     -9.7307 -55.6524 -12.5733   N.2       1 RES1   0.0000
    31 C31     -9.1346 -54.4680 -12.5144   C.2       1 RES1   0.0000
    32 C32     -9.1932 -53.6460 -13.6410   C.2       1 RES1   0.0000
    33 Cl33    -8.4037 -52.0565 -13.5882   Cl        1 RES1   0.0000
@<TRIPOS>BOND
     1     1     2    1
     2     2     3    1
     3     3     4    2
     4     3     5    1
     5     5     6    1
     6     6     7    2
     7     7     8    1
     8     8     9    2
     9     9    10    1
    10    10    11    2
    11    11    12    1
    12    12    13    1
    13    13    14    2
    14    14    15    1
    15    15    16    1
    16    16    17    1
    17    17    18    2
    18    18    19    1
    19    19    20    2
    20    20    21    1
    21    21    22    1
    22    22    23    1
    23    23    24    1
    24    24    25    1
    25    24    26    1
    26    26    27    1
    27    20    28    1
    28    28    29    2
    29    15    30    2
    30    30    31    1
    31    31    32    2
    32    32    33    1
    33    11     6    1
    34    32    13    1
    35    29    17    1
    36    27    21    1
@<TRIPOS>SUBSTRUCTURE
     1 RES1        1 GROUP             0 ****  ****    0  
@<TRIPOS>MOLECULE
ligand_40
    33    36     1     0     0
SMALL
USER_CHARGES
****
Generated from the CSD

@<TRIPOS>ATOM
     1 C1      -9.3148 -48.4714 -18.0607   C.3       1 RES1   0.0000
     2 C2      -8.6466 -49.8258 -18.2921   C.3       1 RES1   0.0000
     3 C3      -9.7251 -50.9100 -18.2323   C.2       1 RES1   0.0000
     4 O4     -10.8623 -50.6797 -17.9667   O.2       1 RES1   0.0000
     5 O5      -9.2742 -52.2227 -18.5145   O.3       1 RES1   0.0000
     6 C6     -10.2643 -53.2575 -18.4622   C.2       1 RES1   0.0000
     7 C7     -10.8614 -53.7100 -19.6406   C.2       1 RES1   0.0000
     8 C8     -11.8330 -54.7244 -19.5689   C.2       1 RES1   0.0000
     9 C9     -12.1859 -55.2556 -18.3166   C.2       1 RES1   0.0000
    10 C10    -11.5859 -54.7938 -17.1307   C.2       1 RES1   0.0000
    11 C11    -10.6169 -53.7793 -17.2033   C.2       1 RES1   0.0000
    12 N12     -9.9437 -53.2583 -15.9741   N.2       1 RES1   0.0000
    13 C13    -10.6120 -53.1263 -14.6741   C.2       1 RES1   0.0000
    14 N14    -11.9181 -53.3909 -14.5564   N.2       1 RES1   0.0000
    15 C15    -12.5248 -53.2747 -13.3846   C.2       1 RES1   0.0000
    16 N16    -13.9557 -53.5562 -13.2446   N.2       1 RES1   0.0000
    17 C17    -14.8459 -53.8324 -14.3874   C.2       1 RES1   0.0000
    18 C18    -16.1790 -54.1133 -14.1347   C.2       1 RES1   0.0000
    19 C19    -17.0563 -54.3718 -15.1970   C.2       1 RES1   0.0000
    20 C20    -16.5890 -54.3485 -16.5070   C.2       1 RES1   0.0000
    21 N21    -17.5335 -54.6296 -17.6169   N.pl3     1 RES1   0.0000
    22 C22    -17.1238 -55.1059 -18.9343   C.3       1 RES1   0.0000
    23 C23    -18.1526 -56.0656 -19.4797   C.3       1 RES1   0.0000
    24 N24    -19.5020 -55.4289 -19.5215   N.3       1 RES1   1.0000
    25 C25    -20.3528 -56.2652 -19.9856   C.2       1 RES1   0.0000
    26 C26    -19.8724 -54.8920 -18.1788   C.3       1 RES1   0.0000
    27 C27    -18.8169 -53.9424 -17.6701   C.3       1 RES1   0.0000
    28 C28    -15.2534 -54.0667 -16.7656   C.2       1 RES1   0.0000
    29 C29    -14.3805 -53.8038 -15.7017   C.2       1 RES1   0.0000
    30 N30    -11.8810 -52.9119 -12.3040   N.2       1 RES1   0.0000
    31 C31    -10.5835 -52.6336 -12.3289   C.2       1 RES1   0.0000
    32 C32     -9.9116 -52.7406 -13.5476   C.2       1 RES1   0.0000
    33 Cl33    -8.1753 -52.3740 -13.6078   Cl        1 RES1   0.0000
@<TRIPOS>BOND
     1     1     2    1
     2     2     3    1
     3     3     4    2
     4     3     5    1
     5     5     6    1
     6     6     7    2
     7     7     8    1
     8     8     9    2
     9     9    10    1
    10    10    11    2
    11    11    12    1
    12    12    13    1
    13    13    14    2
    14    14    15    1
    15    15    16    1
    16    16    17    1
    17    17    18    2
    18    18    19    1
    19    19    20    2
    20    20    21    1
    21    21    22    1
    22    22    23    1
    23    23    24    1
    24    24    25    1
    25    24    26    1
    26    26    27    1
    27    20    28    1
    28    28    29    2
    29    15    30    2
    30    30    31    1
    31    31    32    2
    32    32    33    1
    33    11     6    1
    34    32    13    1
    35    29    17    1
    36    27    21    1
@<TRIPOS>SUBSTRUCTURE
     1 RES1        1 GROUP             0 ****  ****    0  
@<TRIPOS>MOLECULE
ligand_41
    33    36     1     0     0
SMALL
USER_CHARGES
****
Generated from the CSD

@<TRIPOS>ATOM
     1 C1      -8.0839 -48.9036 -18.0594   C.3       1 RES1   0.0000
     2 C2      -7.7921 -50.3859 -18.2869   C.3       1 RES1   0.0000
     3 C3      -9.1178 -51.1493 -18.2400   C.2       1 RES1   0.0000
     4 O4     -10.1573 -50.6284 -17.9853   O.2       1 RES1   0.0000
     5 O5      -9.0241 -52.5344 -18.5204   O.3       1 RES1   0.0000
     6 C6     -10.2515 -53.2732 -18.4800   C.2       1 RES1   0.0000
     7 C7     -10.5742 -54.0260 -17.3490   C.2       1 RES1   0.0000
     8 C8     -11.7819 -54.7465 -17.3290   C.2       1 RES1   0.0000
     9 C9     -12.6332 -54.6989 -18.4462   C.2       1 RES1   0.0000
    10 C10    -12.3026 -53.9434 -19.5862   C.2       1 RES1   0.0000
    11 C11    -11.0953 -53.2256 -19.6058   C.2       1 RES1   0.0000
    12 N12    -10.7002 -52.4015 -20.7891   N.2       1 RES1   0.0000
    13 C13    -11.0078 -52.7694 -22.1763   C.2       1 RES1   0.0000
    14 N14    -11.5941 -53.9404 -22.4501   N.2       1 RES1   0.0000
    15 C15    -11.8749 -54.2756 -23.7004   C.2       1 RES1   0.0000
    16 N16    -12.5117 -55.5575 -24.0131   N.2       1 RES1   0.0000
    17 C17    -12.7444 -56.6154 -23.0124   C.2       1 RES1   0.0000
    18 C18    -13.3814 -57.7782 -23.4151   C.2       1 RES1   0.0000
    19 C19    -13.6113 -58.8089 -22.4933   C.2       1 RES1   0.0000
    20 C20    -13.2019 -58.6647 -21.1717   C.2       1 RES1   0.0000
    21 N21    -13.4592 -59.7661 -20.2106   N.pl3     1 RES1   0.0000
    22 C22    -13.5356 -59.5842 -18.7645   C.3       1 RES1   0.0000
    23 C23    -14.5755 -60.5093 -18.1815   C.3       1 RES1   0.0000
    24 N24    -14.2841 -61.9283 -18.5415   N.3       1 RES1   1.0000
    25 C25    -15.1818 -62.6882 -18.0361   C.2       1 RES1   0.0000
    26 C26    -14.1463 -62.0785 -20.0202   C.3       1 RES1   0.0000
    27 C27    -13.1019 -61.1342 -20.5610   C.3       1 RES1   0.0000
    28 C28    -12.5623 -57.5010 -20.7632   C.2       1 RES1   0.0000
    29 C29    -12.3295 -56.4751 -21.6885   C.2       1 RES1   0.0000
    30 N30    -11.6053 -53.4837 -24.7073   N.2       1 RES1   0.0000
    31 C31    -11.0276 -52.3024 -24.5268   C.2       1 RES1   0.0000
    32 C32    -10.7127 -51.9173 -23.2227   C.2       1 RES1   0.0000
    33 Cl33    -9.9395 -50.3416 -22.9540   Cl        1 RES1   0.0000
@<TRIPOS>BOND
     1     1     2    1
     2     2     3    1
     3     3     4    2
     4     3     5    1
     5     5     6    1
     6     6     7    2
     7     7     8    1
     8     8     9    2
     9     9    10    1
    10    10    11    2
    11    11    12    1
    12    12    13    1
    13    13    14    2
    14    14    15    1
    15    15    16    1
    16    16    17    1
    17    17    18    2
    18    18    19    1
    19    19    20    2
    20    20    21    1
    21    21    22    1
    22    22    23    1
    23    23    24    1
    24    24    25    1
    25    24    26    1
    26    26    27    1
    27    20    28    1
    28    28    29    2
    29    15    30    2
    30    30    31    1
    31    31    32    2
    32    32    33    1
    33    11     6    1
    34    32    13    1
    35    29    17    1
    36    27    21    1
@<TRIPOS>SUBSTRUCTURE
     1 RES1        1 GROUP             0 ****  ****    0  
@<TRIPOS>MOLECULE
ligand_42
    33    36     1     0     0
SMALL
USER_CHARGES
****
Generated from the CSD

@<TRIPOS>ATOM
     1 C1      -8.1053 -48.8728 -18.2216   C.3       1 RES1   0.0000
     2 C2      -7.7727 -50.3573 -18.3633   C.3       1 RES1   0.0000
     3 C3      -9.0811 -51.1496 -18.3131   C.2       1 RES1   0.0000
     4 O4     -10.1394 -50.6422 -18.1145   O.2       1 RES1   0.0000
     5 O5      -8.9473 -52.5446 -18.5182   O.3       1 RES1   0.0000
     6 C6     -10.1578 -53.3104 -18.4730   C.2       1 RES1   0.0000
     7 C7     -10.7997 -53.6686 -19.6603   C.2       1 RES1   0.0000
     8 C8     -11.9882 -54.4180 -19.5958   C.2       1 RES1   0.0000
     9 C9     -12.5065 -54.7845 -18.3419   C.2       1 RES1   0.0000
    10 C10    -11.8598 -54.4175 -17.1474   C.2       1 RES1   0.0000
    11 C11    -10.6739 -53.6675 -17.2130   C.2       1 RES1   0.0000
    12 N12     -9.9437 -53.2583 -15.9741   N.2       1 RES1   0.0000
    13 C13     -9.8634 -54.0872 -14.7655   C.2       1 RES1   0.0000
    14 N14    -10.4327 -55.2975 -14.7379   N.2       1 RES1   0.0000
    15 C15    -10.3611 -56.0494 -13.6497   C.2       1 RES1   0.0000
    16 N16    -10.9855 -57.3742 -13.6056   N.2       1 RES1   0.0000
    17 C17    -11.8164 -57.9183 -14.6956   C.2       1 RES1   0.0000
    18 C18    -12.7351 -57.0811 -15.3080   C.2       1 RES1   0.0000
    19 C19    -13.5356 -57.5615 -16.3537   C.2       1 RES1   0.0000
    20 C20    -13.4099 -58.8807 -16.7768   C.2       1 RES1   0.0000
    21 N21    -14.2704 -59.3705 -17.8825   N.3       1 RES1   0.0000
    22 C22    -15.6998 -59.2704 -17.5356   C.3       1 RES1   0.0000
    23 C23    -16.5773 -59.7449 -18.6664   C.3       1 RES1   0.0000
    24 N24    -16.2472 -61.1727 -18.9630   N.3       1 RES1   1.0000
    25 C25    -17.0511 -61.6972 -19.8099   C.2       1 RES1   0.0000
    26 C26    -14.8181 -61.2326 -19.3923   C.3       1 RES1   0.0000
    27 C27    -13.9339 -60.7465 -18.2681   C.3       1 RES1   0.0000
    28 C28    -12.4898 -59.7237 -16.1664   C.2       1 RES1   0.0000
    29 C29    -11.6878 -59.2387 -15.1251   C.2       1 RES1   0.0000
    30 N30     -9.7307 -55.6524 -12.5733   N.2       1 RES1   0.0000
    31 C31     -9.1346 -54.4680 -12.5144   C.2       1 RES1   0.0000
    32 C32     -9.1932 -53.6460 -13.6410   C.2       1 RES1   0.0000
    33 Cl33    -8.4037 -52.0565 -13.5882   Cl        1 RES1   0.0000
@<TRIPOS>BOND
     1     1     2    1
     2     2     3    1
     3     3     4    2
     4     3     5    1
     5     5     6    1
     6     6     7    2
     7     7     8    1
     8     8     9    2
     9     9    10    1
    10    10    11    2
    11    11    12    1
    12    12    13    1
    13    13    14    2
    14    14    15    1
    15    15    16    1
    16    16    17    1
    17    17    18    2
    18    18    19    1
    19    19    20    2
    20    20    21    1
    21    21    22    1
    22    22    23    1
    23    23    24    1
    24    24    25    1
    25    24    26    1
    26    26    27    1
    27    20    28    1
    28    28    29    2
    29    15    30    2
    30    30    31    1
    31    31    32    2
    32    32    33    1
    33    11     6    1
    34    32    13    1
    35    29    17    1
    36    27    21    1
@<TRIPOS>SUBSTRUCTURE
     1 RES1        1 GROUP             0 ****  ****    0  
@<TRIPOS>MOLECULE
ligand_43
    33    36     1     0     0
SMALL
USER_CHARGES
****
Generated from the CSD

@<TRIPOS>ATOM
     1 C1      -8.1925 -49.3056 -17.8078   C.3       1 RES1   0.0000
     2 C2      -7.9842 -50.7934 -18.0861   C.3       1 RES1   0.0000
     3 C3      -9.3565 -51.4690 -18.1388   C.2       1 RES1   0.0000
     4 O4      -9.4989 -52.6506 -18.1159   O.2       1 RES1   0.0000
     5 O5     -10.4594 -50.5842 -18.2207   O.3       1 RES1   0.0000
     6 C6     -11.7562 -51.1919 -18.2744   C.2       1 RES1   0.0000
     7 C7     -12.5238 -51.2983 -17.1128   C.2       1 RES1   0.0000
     8 C8     -13.7930 -51.9002 -17.1848   C.2       1 RES1   0.0000
     9 C9     -14.2582 -52.3856 -18.4189   C.2       1 RES1   0.0000
    10 C10    -13.4801 -52.2812 -19.5864   C.2       1 RES1   0.0000
    11 C11    -12.2119 -51.6816 -19.5130   C.2       1 RES1   0.0000
    12 N12    -11.3482 -51.5392 -20.7252   N.2       1 RES1   0.0000
    13 C13    -11.6619 -52.1468 -22.0239   C.2       1 RES1   0.0000
    14 N14    -12.7042 -52.9764 -22.1470   N.2       1 RES1   0.0000
    15 C15    -12.9918 -53.5256 -23.3176   C.2       1 RES1   0.0000
    16 N16    -14.1273 -54.4399 -23.4635   N.2       1 RES1   0.0000
    17 C17    -14.9714 -54.8747 -22.3352   C.2       1 RES1   0.0000
    18 C18    -16.3161 -55.1140 -22.5690   C.2       1 RES1   0.0000
    19 C19    -17.1469 -55.5372 -21.5223   C.2       1 RES1   0.0000
    20 C20    -16.6225 -55.7158 -20.2463   C.2       1 RES1   0.0000
    21 N21    -17.5205 -56.1600 -19.1511   N.pl3     1 RES1   0.0000
    22 C22    -17.1086 -57.0505 -18.0706   C.3       1 RES1   0.0000
    23 C23    -17.7937 -56.6550 -16.7855   C.3       1 RES1   0.0000
    24 N24    -19.2765 -56.6479 -16.9558   N.3       1 RES1   1.0000
    25 C25    -19.8297 -56.3078 -15.8526   C.2       1 RES1   0.0000
    26 C26    -19.6701 -55.7821 -18.1063   C.3       1 RES1   0.0000
    27 C27    -18.9603 -56.2086 -19.3669   C.3       1 RES1   0.0000
    28 C28    -15.2749 -55.4779 -20.0070   C.2       1 RES1   0.0000
    29 C29    -14.4464 -55.0599 -21.0567   C.2       1 RES1   0.0000
    30 N30    -12.2864 -53.2764 -24.3918   N.2       1 RES1   0.0000
    31 C31    -11.2380 -52.4631 -24.3613   C.2       1 RES1   0.0000
    32 C32    -10.9019 -51.8695 -23.1436   C.2       1 RES1   0.0000
    33 Cl33    -9.5038 -50.7771 -23.0759   Cl        1 RES1   0.0000
@<TRIPOS>BOND
     1     1     2    1
     2     2     3    1
     3     3     4    2
     4     3     5    1
     5     5     6    1
     6     6     7    2
     7     7     8    1
     8     8     9    2
     9     9    10    1
    10    10    11    2
    11    11    12    1
    12    12    13    1
    13    13    14    2
    14    14    15    1
    15    15    16    1
    16    16    17    1
    17    17    18    2
    18    18    19    1
    19    19    20    2
    20    20    21    1
    21    21    22    1
    22    22    23    1
    23    23    24    1
    24    24    25    1
    25    24    26    1
    26    26    27    1
    27    20    28    1
    28    28    29    2
    29    15    30    2
    30    30    31    1
    31    31    32    2
    32    32    33    1
    33    11     6    1
    34    32    13    1
    35    29    17    1
    36    27    21    1
@<TRIPOS>SUBSTRUCTURE
     1 RES1        1 GROUP             0 ****  ****    0  
@<TRIPOS>MOLECULE
ligand_44
    33    36     1     0     0
SMALL
USER_CHARGES
****
Generated from the CSD

@<TRIPOS>ATOM
     1 C1      -9.2391 -48.0069 -17.9382   C.3       1 RES1   0.0000
     2 C2      -8.4712 -49.3018 -18.1990   C.3       1 RES1   0.0000
     3 C3      -9.4709 -50.4606 -18.2030   C.2       1 RES1   0.0000
     4 O4      -9.1397 -51.6030 -18.1577   O.2       1 RES1   0.0000
     5 O5     -10.8333 -50.0790 -18.2679   O.3       1 RES1   0.0000
     6 C6     -11.7902 -51.1458 -18.2760   C.2       1 RES1   0.0000
     7 C7     -12.3596 -51.5613 -19.4815   C.2       1 RES1   0.0000
     8 C8     -13.2989 -52.6081 -19.4691   C.2       1 RES1   0.0000
     9 C9     -13.6481 -53.2082 -18.2472   C.2       1 RES1   0.0000
    10 C10    -13.0762 -52.7838 -17.0338   C.2       1 RES1   0.0000
    11 C11    -12.1396 -51.7370 -17.0472   C.2       1 RES1   0.0000
    12 N12    -11.4969 -51.2531 -15.7869   N.2       1 RES1   0.0000
    13 C13    -11.8997 -51.6948 -14.4464   C.2       1 RES1   0.0000
    14 N14    -12.9699 -52.4819 -14.2881   N.2       1 RES1   0.0000
    15 C15    -13.3359 -52.8841 -13.0802   C.2       1 RES1   0.0000
    16 N16    -14.5092 -53.7414 -12.8938   N.2       1 RES1   0.0000
    17 C17    -15.4009 -54.1503 -13.9949   C.2       1 RES1   0.0000
    18 C18    -15.9943 -55.4010 -13.9357   C.2       1 RES1   0.0000
    19 C19    -16.8548 -55.8198 -14.9600   C.2       1 RES1   0.0000
    20 C20    -17.1126 -54.9804 -16.0390   C.2       1 RES1   0.0000
    21 N21    -18.0230 -55.4449 -17.1152   N.pl3     1 RES1   0.0000
    22 C22    -18.9384 -54.5706 -17.8418   C.3       1 RES1   0.0000
    23 C23    -19.0403 -55.0110 -19.2814   C.3       1 RES1   0.0000
    24 N24    -19.4605 -56.4405 -19.3700   N.3       1 RES1   1.0000
    25 C25    -19.5365 -56.7861 -20.6002   C.2       1 RES1   0.0000
    26 C26    -18.5485 -57.3078 -18.5674   C.3       1 RES1   0.0000
    27 C27    -18.4725 -56.8304 -17.1387   C.3       1 RES1   0.0000
    28 C28    -16.5205 -53.7252 -16.1025   C.2       1 RES1   0.0000
    29 C29    -15.6651 -53.3080 -15.0744   C.2       1 RES1   0.0000
    30 N30    -12.6707 -52.5436 -12.0054   N.2       1 RES1   0.0000
    31 C31    -11.5952 -51.7686 -12.0704   C.2       1 RES1   0.0000
    32 C32    -11.1823 -51.3214 -13.3265   C.2       1 RES1   0.0000
    33 Cl33    -9.7462 -50.2835 -13.4409   Cl        1 RES1   0.0000
@<TRIPOS>BOND
     1     1     2    1
     2     2     3    1
     3     3     4    2
     4     3     5    1
     5     5     6    1
     6     6     7    2
     7     7     8    1
     8     8     9    2
     9     9    10    1
    10    10    11    2
    11    11    12    1
    12    12    13    1
    13    13    14    2
    14    14    15    1
    15    15    16    1
    16    16    17    1
    17    17    18    2
    18    18    19    1
    19    19    20    2
    20    20    21    1
    21    21    22    1
    22    22    23    1
    23    23    24    1
    24    24    25    1
    25    24    26    1
    26    26    27    1
    27    20    28    1
    28    28    29    2
    29    15    30    2
    30    30    31    1
    31    31    32    2
    32    32    33    1
    33    11     6    1
    34    32    13    1
    35    29    17    1
    36    27    21    1
@<TRIPOS>SUBSTRUCTURE
     1 RES1        1 GROUP             0 ****  ****    0  
@<TRIPOS>MOLECULE
ligand_45
    33    36     1     0     0
SMALL
USER_CHARGES
****
Generated from the CSD

@<TRIPOS>ATOM
     1 C1      -8.5895 -48.6404 -17.9966   C.3       1 RES1   0.0000
     2 C2      -8.1181 -50.0761 -18.2224   C.3       1 RES1   0.0000
     3 C3      -9.3439 -50.9924 -18.2062   C.2       1 RES1   0.0000
     4 O4      -9.2665 -52.1779 -18.1325   O.2       1 RES1   0.0000
     5 O5     -10.5921 -50.3281 -18.2888   O.3       1 RES1   0.0000
     6 C6     -11.7562 -51.1639 -18.2786   C.2       1 RES1   0.0000
     7 C7     -12.4642 -51.3571 -17.0905   C.2       1 RES1   0.0000
     8 C8     -13.6027 -52.1829 -17.0996   C.2       1 RES1   0.0000
     9 C9     -13.9993 -52.7993 -18.2988   C.2       1 RES1   0.0000
    10 C10    -13.2807 -52.6065 -19.4929   C.2       1 RES1   0.0000
    11 C11    -12.1428 -51.7829 -19.4823   C.2       1 RES1   0.0000
    12 N12    -11.3482 -51.5392 -20.7252   N.2       1 RES1   0.0000
    13 C13    -11.6619 -52.1468 -22.0239   C.2       1 RES1   0.0000
    14 N14    -12.7042 -52.9764 -22.1470   N.2       1 RES1   0.0000
    15 C15    -12.9918 -53.5256 -23.3176   C.2       1 RES1   0.0000
    16 N16    -14.1273 -54.4399 -23.4635   N.2       1 RES1   0.0000
    17 C17    -14.5322 -55.0348 -24.7506   C.2       1 RES1   0.0000
    18 C18    -15.0505 -56.3198 -24.7514   C.2       1 RES1   0.0000
    19 C19    -15.4544 -56.9139 -25.9552   C.2       1 RES1   0.0000
    20 C20    -15.3333 -56.2144 -27.1515   C.2       1 RES1   0.0000
    21 N21    -15.7624 -56.8635 -28.4154   N.pl3     1 RES1   0.0000
    22 C22    -16.3822 -56.1504 -29.5278   C.3       1 RES1   0.0000
    23 C23    -15.9276 -56.7431 -30.8390   C.3       1 RES1   0.0000
    24 N24    -16.2240 -58.2051 -30.8910   N.3       1 RES1   1.0000
    25 C25    -15.8265 -58.6801 -32.0113   C.2       1 RES1   0.0000
    26 C26    -15.6355 -58.9037 -29.7104   C.3       1 RES1   0.0000
    27 C27    -16.1117 -58.2777 -28.4234   C.3       1 RES1   0.0000
    28 C28    -14.8147 -54.9255 -27.1558   C.2       1 RES1   0.0000
    29 C29    -14.4170 -54.3330 -25.9501   C.2       1 RES1   0.0000
    30 N30    -12.2864 -53.2764 -24.3918   N.2       1 RES1   0.0000
    31 C31    -11.2380 -52.4631 -24.3613   C.2       1 RES1   0.0000
    32 C32    -10.9019 -51.8695 -23.1436   C.2       1 RES1   0.0000
    33 Cl33    -9.5038 -50.7771 -23.0759   Cl        1 RES1   0.0000
@<TRIPOS>BOND
     1     1     2    1
     2     2     3    1
     3     3     4    2
     4     3     5    1
     5     5     6    1
     6     6     7    2
     7     7     8    1
     8     8     9    2
     9     9    10    1
    10    10    11    2
    11    11    12    1
    12    12    13    1
    13    13    14    2
    14    14    15    1
    15    15    16    1
    16    16    17    1
    17    17    18    2
    18    18    19    1
    19    19    20    2
    20    20    21    1
    21    21    22    1
    22    22    23    1
    23    23    24    1
    24    24    25    1
    25    24    26    1
    26    26    27    1
    27    20    28    1
    28    28    29    2
    29    15    30    2
    30    30    31    1
    31    31    32    2
    32    32    33    1
    33    11     6    1
    34    32    13    1
    35    29    17    1
    36    27    21    1
@<TRIPOS>SUBSTRUCTURE
     1 RES1        1 GROUP             0 ****  ****    0  
@<TRIPOS>MOLECULE
ligand_46
    33    36     1     0     0
SMALL
USER_CHARGES
****
Generated from the CSD

@<TRIPOS>ATOM
     1 C1      -8.6677 -48.5434 -18.0044   C.3       1 RES1   0.0000
     2 C2      -8.1569 -49.9656 -18.2297   C.3       1 RES1   0.0000
     3 C3      -9.3567 -50.9156 -18.2109   C.2       1 RES1   0.0000
     4 O4      -9.2463 -52.0984 -18.1363   O.2       1 RES1   0.0000
     5 O5     -10.6230 -50.2864 -18.2921   O.3       1 RES1   0.0000
     6 C6     -11.7634 -51.1542 -18.2793   C.2       1 RES1   0.0000
     7 C7     -12.4001 -51.4848 -19.4774   C.2       1 RES1   0.0000
     8 C8     -13.5195 -52.3358 -19.4445   C.2       1 RES1   0.0000
     9 C9     -13.9761 -52.8292 -18.2104   C.2       1 RES1   0.0000
    10 C10    -13.3352 -52.4900 -17.0046   C.2       1 RES1   0.0000
    11 C11    -12.2185 -51.6386 -17.0384   C.2       1 RES1   0.0000
    12 N12    -11.4969 -51.2531 -15.7869   N.2       1 RES1   0.0000
    13 C13    -11.8997 -51.6948 -14.4464   C.2       1 RES1   0.0000
    14 N14    -12.9699 -52.4819 -14.2881   N.2       1 RES1   0.0000
    15 C15    -13.3359 -52.8841 -13.0802   C.2       1 RES1   0.0000
    16 N16    -14.5092 -53.7414 -12.8938   N.2       1 RES1   0.0000
    17 C17    -14.9309 -54.2690 -11.5829   C.2       1 RES1   0.0000
    18 C18    -16.2859 -54.4176 -11.3345   C.2       1 RES1   0.0000
    19 C19    -16.7232 -54.9246 -10.1029   C.2       1 RES1   0.0000
    20 C20    -15.7966 -55.2777  -9.1272   C.2       1 RES1   0.0000
    21 N21    -16.2808 -55.8083  -7.8284   N.pl3     1 RES1   0.0000
    22 C22    -15.5886 -56.8383  -7.0601   C.3       1 RES1   0.0000
    23 C23    -15.7363 -56.5680  -5.5829   C.3       1 RES1   0.0000
    24 N24    -17.1766 -56.4746  -5.2026   N.3       1 RES1   1.0000
    25 C25    -17.2709 -56.2434  -3.9470   C.2       1 RES1   0.0000
    26 C26    -17.8787 -55.4616  -6.0446   C.3       1 RES1   0.0000
    27 C27    -17.7020 -55.7666  -7.5111   C.3       1 RES1   0.0000
    28 C28    -14.4369 -55.1313  -9.3718   C.2       1 RES1   0.0000
    29 C29    -14.0034 -54.6290 -10.6058   C.2       1 RES1   0.0000
    30 N30    -12.6707 -52.5436 -12.0054   N.2       1 RES1   0.0000
    31 C31    -11.5952 -51.7686 -12.0704   C.2       1 RES1   0.0000
    32 C32    -11.1823 -51.3214 -13.3265   C.2       1 RES1   0.0000
    33 Cl33    -9.7462 -50.2835 -13.4409   Cl        1 RES1   0.0000
@<TRIPOS>BOND
     1     1     2    1
     2     2     3    1
     3     3     4    2
     4     3     5    1
     5     5     6    1
     6     6     7    2
     7     7     8    1
     8     8     9    2
     9     9    10    1
    10    10    11    2
    11    11    12    1
    12    12    13    1
    13    13    14    2
    14    14    15    1
    15    15    16    1
    16    16    17    1
    17    17    18    2
    18    18    19    1
    19    19    20    2
    20    20    21    1
    21    21    22    1
    22    22    23    1
    23    23    24    1
    24    24    25    1
    25    24    26    1
    26    26    27    1
    27    20    28    1
    28    28    29    2
    29    15    30    2
    30    30    31    1
    31    31    32    2
    32    32    33    1
    33    11     6    1
    34    32    13    1
    35    29    17    1
    36    27    21    1
@<TRIPOS>SUBSTRUCTURE
     1 RES1        1 GROUP             0 ****  ****    0  
@<TRIPOS>MOLECULE
ligand_47
    33    36     1     0     0
SMALL
USER_CHARGES
****
Generated from the CSD

@<TRIPOS>ATOM
     1 C1      -9.1006 -48.4951 -17.8373   C.3       1 RES1   0.0000
     2 C2      -8.4837 -49.8763 -18.0521   C.3       1 RES1   0.0000
     3 C3      -9.6163 -50.9038 -18.1148   C.2       1 RES1   0.0000
     4 O4     -10.7590 -50.6210 -17.9385   O.2       1 RES1   0.0000
     5 O5      -9.2092 -52.2307 -18.3971   O.3       1 RES1   0.0000
     6 C6     -10.2507 -53.2132 -18.4584   C.2       1 RES1   0.0000
     7 C7     -10.4896 -54.0440 -17.3617   C.2       1 RES1   0.0000
     8 C8     -11.5143 -55.0041 -17.4417   C.2       1 RES1   0.0000
     9 C9     -12.2700 -55.1111 -18.6217   C.2       1 RES1   0.0000
    10 C10    -12.0233 -54.2758 -19.7267   C.2       1 RES1   0.0000
    11 C11    -10.9984 -53.3185 -19.6464   C.2       1 RES1   0.0000
    12 N12    -10.7002 -52.4015 -20.7891   N.2       1 RES1   0.0000
    13 C13    -11.7216 -51.8933 -21.7126   C.2       1 RES1   0.0000
    14 N14    -13.0104 -52.2020 -21.5301   N.2       1 RES1   0.0000
    15 C15    -13.9355 -51.7441 -22.3602   C.2       1 RES1   0.0000
    16 N16    -15.3494 -52.0799 -22.1738   N.2       1 RES1   0.0000
    17 C17    -15.8591 -52.8404 -21.0177   C.2       1 RES1   0.0000
    18 C18    -17.1556 -53.3270 -21.0657   C.2       1 RES1   0.0000
    19 C19    -17.6706 -54.0619 -19.9888   C.2       1 RES1   0.0000
    20 C20    -16.8809 -54.3020 -18.8691   C.2       1 RES1   0.0000
    21 N21    -17.4471 -55.0784 -17.7378   N.3       1 RES1   0.0000
    22 C22    -16.4217 -55.3686 -16.7190   C.3       1 RES1   0.0000
    23 C23    -16.9995 -56.1364 -15.5569   C.3       1 RES1   0.0000
    24 N24    -17.5594 -57.4263 -16.0653   N.3       1 RES1   1.0000
    25 C25    -17.9350 -58.2049 -15.1212   C.2       1 RES1   0.0000
    26 C26    -18.6514 -57.1024 -17.0311   C.3       1 RES1   0.0000
    27 C27    -18.0816 -56.3218 -18.1921   C.3       1 RES1   0.0000
    28 C28    -15.5802 -53.8168 -18.8165   C.2       1 RES1   0.0000
    29 C29    -15.0670 -53.0871 -19.8969   C.2       1 RES1   0.0000
    30 N30    -13.6358 -50.9723 -23.3742   N.2       1 RES1   0.0000
    31 C31    -12.3833 -50.6136 -23.6278   C.2       1 RES1   0.0000
    32 C32    -11.3807 -51.0810 -22.7767   C.2       1 RES1   0.0000
    33 Cl33    -9.6968 -50.6154 -23.0938   Cl        1 RES1   0.0000
@<TRIPOS>BOND
     1     1     2    1
     2     2     3    1
     3     3     4    2
     4     3     5    1
     5     5     6    1
     6     6     7    2
     7     7     8    1
     8     8     9    2
     9     9    10    1
    10    10    11    2
    11    11    12    1
    12    12    13    1
    13    13    14    2
    14    14    15    1
    15    15    16    1
    16    16    17    1
    17    17    18    2
    18    18    19    1
    19    19    20    2
    20    20    21    1
    21    21    22    1
    22    22    23    1
    23    23    24    1
    24    24    25    1
    25    24    26    1
    26    26    27    1
    27    20    28    1
    28    28    29    2
    29    15    30    2
    30    30    31    1
    31    31    32    2
    32    32    33    1
    33    11     6    1
    34    32    13    1
    35    29    17    1
    36    27    21    1
@<TRIPOS>SUBSTRUCTURE
     1 RES1        1 GROUP             0 ****  ****    0  
@<TRIPOS>MOLECULE
ligand_48
    33    36     1     0     0
SMALL
USER_CHARGES
****
Generated from the CSD

@<TRIPOS>ATOM
     1 C1      -8.1664 -48.8921 -18.8057   C.3       1 RES1   0.0000
     2 C2      -7.8447 -50.3828 -18.8987   C.3       1 RES1   0.0000
     3 C3      -9.1306 -51.1693 -18.6338   C.2       1 RES1   0.0000
     4 O4     -10.1583 -50.6496 -18.3326   O.2       1 RES1   0.0000
     5 O5      -9.0147 -52.5743 -18.7695   O.3       1 RES1   0.0000
     6 C6     -10.2085 -53.3334 -18.5402   C.2       1 RES1   0.0000
     7 C7     -11.3438 -53.0975 -19.3184   C.2       1 RES1   0.0000
     8 C8     -12.5068 -53.8506 -19.0768   C.2       1 RES1   0.0000
     9 C9     -12.5042 -54.8174 -18.0568   C.2       1 RES1   0.0000
    10 C10    -11.3602 -55.0489 -17.2712   C.2       1 RES1   0.0000
    11 C11    -10.1997 -54.2949 -17.5122   C.2       1 RES1   0.0000
    12 N12     -8.9551 -54.5067 -16.7112   N.2       1 RES1   0.0000
    13 C13     -8.4951 -55.8237 -16.2551   C.2       1 RES1   0.0000
    14 N14     -9.1524 -56.9312 -16.6173   N.2       1 RES1   0.0000
    15 C15     -8.7396 -58.1218 -16.2093   C.2       1 RES1   0.0000
    16 N16     -9.4546 -59.3412 -16.5947   N.2       1 RES1   0.0000
    17 C17    -10.7174 -59.3372 -17.3562   C.2       1 RES1   0.0000
    18 C18    -10.9169 -60.3208 -18.3116   C.2       1 RES1   0.0000
    19 C19    -12.1090 -60.3535 -19.0482   C.2       1 RES1   0.0000
    20 C20    -13.0932 -59.3967 -18.8223   C.2       1 RES1   0.0000
    21 N21    -14.3462 -59.4466 -19.6164   N.pl3     1 RES1   0.0000
    22 C22    -15.6592 -59.0875 -19.0898   C.3       1 RES1   0.0000
    23 C23    -16.4799 -58.4150 -20.1628   C.3       1 RES1   0.0000
    24 N24    -16.5921 -59.2869 -21.3690   N.3       1 RES1   1.0000
    25 C25    -17.2905 -58.6909 -22.2612   C.2       1 RES1   0.0000
    26 C26    -15.2395 -59.6942 -21.8516   C.3       1 RES1   0.0000
    27 C27    -14.4528 -60.3571 -20.7485   C.3       1 RES1   0.0000
    28 C28    -12.8983 -58.4089 -17.8650   C.2       1 RES1   0.0000
    29 C29    -11.7076 -58.3824 -17.1270   C.2       1 RES1   0.0000
    30 N30     -7.6802 -58.2666 -15.4541   N.2       1 RES1   0.0000
    31 C31     -6.9666 -57.2227 -15.0509   C.2       1 RES1   0.0000
    32 C32     -7.3745 -55.9513 -15.4575   C.2       1 RES1   0.0000
    33 Cl33    -6.4369 -54.5380 -14.9318   Cl        1 RES1   0.0000
@<TRIPOS>BOND
     1     1     2    1
     2     2     3    1
     3     3     4    2
     4     3     5    1
     5     5     6    1
     6     6     7    2
     7     7     8    1
     8     8     9    2
     9     9    10    1
    10    10    11    2
    11    11    12    1
    12    12    13    1
    13    13    14    2
    14    14    15    1
    15    15    16    1
    16    16    17    1
    17    17    18    2
    18    18    19    1
    19    19    20    2
    20    20    21    1
    21    21    22    1
    22    22    23    1
    23    23    24    1
    24    24    25    1
    25    24    26    1
    26    26    27    1
    27    20    28    1
    28    28    29    2
    29    15    30    2
    30    30    31    1
    31    31    32    2
    32    32    33    1
    33    11     6    1
    34    32    13    1
    35    29    17    1
    36    27    21    1
@<TRIPOS>SUBSTRUCTURE
     1 RES1        1 GROUP             0 ****  ****    0  
@<TRIPOS>MOLECULE
ligand_49
    33    36     1     0     0
SMALL
USER_CHARGES
****
Generated from the CSD

@<TRIPOS>ATOM
     1 C1      -8.3565 -48.7569 -17.8653   C.3       1 RES1   0.0000
     2 C2      -7.9492 -50.2117 -18.0930   C.3       1 RES1   0.0000
     3 C3      -9.2191 -51.0649 -18.1374   C.2       1 RES1   0.0000
     4 O4     -10.3058 -50.6209 -17.9405   O.2       1 RES1   0.0000
     5 O5      -9.0126 -52.4354 -18.4288   O.3       1 RES1   0.0000
     6 C6     -10.1844 -53.2600 -18.4588   C.2       1 RES1   0.0000
     7 C7     -10.9788 -53.3827 -17.3169   C.2       1 RES1   0.0000
     8 C8     -12.1234 -54.1986 -17.3648   C.2       1 RES1   0.0000
     9 C9     -12.4395 -54.8760 -18.5549   C.2       1 RES1   0.0000
    10 C10    -11.6340 -54.7542 -19.7020   C.2       1 RES1   0.0000
    11 C11    -10.4901 -53.9405 -19.6525   C.2       1 RES1   0.0000
    12 N12     -9.6047 -53.7710 -20.8454   N.2       1 RES1   0.0000
    13 C13     -9.3523 -54.8311 -21.8287   C.2       1 RES1   0.0000
    14 N14     -9.9009 -56.0412 -21.6727   N.2       1 RES1   0.0000
    15 C15     -9.6770 -57.0001 -22.5586   C.2       1 RES1   0.0000
    16 N16    -10.2676 -58.3310 -22.3955   N.2       1 RES1   0.0000
    17 C17    -10.1033 -59.4195 -23.3767   C.2       1 RES1   0.0000
    18 C18    -10.0256 -60.7226 -22.9122   C.2       1 RES1   0.0000
    19 C19     -9.8784 -61.7834 -23.8165   C.2       1 RES1   0.0000
    20 C20     -9.8081 -61.5289 -25.1823   C.2       1 RES1   0.0000
    21 N21     -9.6475 -62.6661 -26.1225   N.pl3     1 RES1   0.0000
    22 C22    -10.2556 -62.7192 -27.4483   C.3       1 RES1   0.0000
    23 C23     -9.3276 -63.4128 -28.4151   C.3       1 RES1   0.0000
    24 N24     -8.9689 -64.7748 -27.9210   N.3       1 RES1   1.0000
    25 C25     -8.1811 -65.3374 -28.7586   C.2       1 RES1   0.0000
    26 C26     -8.4090 -64.7028 -26.5391   C.3       1 RES1   0.0000
    27 C27     -9.3649 -63.9995 -25.6083   C.3       1 RES1   0.0000
    28 C28     -9.8862 -60.2242 -25.6531   C.2       1 RES1   0.0000
    29 C29    -10.0385 -59.1669 -24.7466   C.2       1 RES1   0.0000
    30 N30     -8.9294 -56.8063 -23.6156   N.2       1 RES1   0.0000
    31 C31     -8.3490 -55.6360 -23.8508   C.2       1 RES1   0.0000
    32 C32     -8.5586 -54.6028 -22.9360   C.2       1 RES1   0.0000
    33 Cl33    -7.7935 -53.0273 -23.2277   Cl        1 RES1   0.0000
@<TRIPOS>BOND
     1     1     2    1
     2     2     3    1
     3     3     4    2
     4     3     5    1
     5     5     6    1
     6     6     7    2
     7     7     8    1
     8     8     9    2
     9     9    10    1
    10    10    11    2
    11    11    12    1
    12    12    13    1
    13    13    14    2
    14    14    15    1
    15    15    16    1
    16    16    17    1
    17    17    18    2
    18    18    19    1
    19    19    20    2
    20    20    21    1
    21    21    22    1
    22    22    23    1
    23    23    24    1
    24    24    25    1
    25    24    26    1
    26    26    27    1
    27    20    28    1
    28    28    29    2
    29    15    30    2
    30    30    31    1
    31    31    32    2
    32    32    33    1
    33    11     6    1
    34    32    13    1
    35    29    17    1
    36    27    21    1
@<TRIPOS>SUBSTRUCTURE
     1 RES1        1 GROUP             0 ****  ****    0  
@<TRIPOS>MOLECULE
ligand_50
    33    36     1     0     0
SMALL
USER_CHARGES
****
Generated from the CSD

@<TRIPOS>ATOM
     1 C1      -8.0749 -48.9565 -17.6743   C.3       1 RES1   0.0000
     2 C2      -7.7502 -50.4220 -17.9595   C.3       1 RES1   0.0000
     3 C3      -9.0662 -51.1998 -18.0344   C.2       1 RES1   0.0000
     4 O4     -10.1262 -50.7034 -17.8181   O.2       1 RES1   0.0000
     5 O5      -8.9373 -52.5674 -18.3796   O.3       1 RES1   0.0000
     6 C6     -10.1537 -53.3230 -18.4389   C.2       1 RES1   0.0000
     7 C7     -10.9533 -53.4457 -17.3007   C.2       1 RES1   0.0000
     8 C8     -12.1420 -54.1935 -17.3777   C.2       1 RES1   0.0000
     9 C9     -12.4963 -54.8045 -18.5927   C.2       1 RES1   0.0000
    10 C10    -11.6857 -54.6829 -19.7363   C.2       1 RES1   0.0000
    11 C11    -10.4977 -53.9374 -19.6578   C.2       1 RES1   0.0000
    12 N12     -9.6047 -53.7710 -20.8454   N.2       1 RES1   0.0000
    13 C13     -9.3523 -54.8311 -21.8287   C.2       1 RES1   0.0000
    14 N14     -9.9009 -56.0412 -21.6727   N.2       1 RES1   0.0000
    15 C15     -9.6770 -57.0001 -22.5586   C.2       1 RES1   0.0000
    16 N16    -10.2676 -58.3310 -22.3955   N.2       1 RES1   0.0000
    17 C17    -11.2478 -58.6625 -21.3448   C.2       1 RES1   0.0000
    18 C18    -12.2133 -57.7229 -21.0207   C.2       1 RES1   0.0000
    19 C19    -13.1668 -58.0070 -20.0333   C.2       1 RES1   0.0000
    20 C20    -13.1438 -59.2326 -19.3756   C.2       1 RES1   0.0000
    21 N21    -14.1596 -59.5115 -18.3300   N.pl3     1 RES1   0.0000
    22 C22    -14.7163 -58.4946 -17.4433   C.3       1 RES1   0.0000
    23 C23    -16.1705 -58.7889 -17.1684   C.3       1 RES1   0.0000
    24 N24    -16.3362 -60.1603 -16.6029   N.3       1 RES1   1.0000
    25 C25    -17.5774 -60.3822 -16.3820   C.2       1 RES1   0.0000
    26 C26    -15.7032 -61.1769 -17.4939   C.3       1 RES1   0.0000
    27 C27    -14.2542 -60.8426 -17.7458   C.3       1 RES1   0.0000
    28 C28    -12.1781 -60.1782 -19.6975   C.2       1 RES1   0.0000
    29 C29    -11.2299 -59.8928 -20.6885   C.2       1 RES1   0.0000
    30 N30     -8.9294 -56.8063 -23.6156   N.2       1 RES1   0.0000
    31 C31     -8.3490 -55.6360 -23.8508   C.2       1 RES1   0.0000
    32 C32     -8.5586 -54.6028 -22.9360   C.2       1 RES1   0.0000
    33 Cl33    -7.7935 -53.0273 -23.2277   Cl        1 RES1   0.0000
@<TRIPOS>BOND
     1     1     2    1
     2     2     3    1
     3     3     4    2
     4     3     5    1
     5     5     6    1
     6     6     7    2
     7     7     8    1
     8     8     9    2
     9     9    10    1
    10    10    11    2
    11    11    12    1
    12    12    13    1
    13    13    14    2
    14    14    15    1
    15    15    16    1
    16    16    17    1
    17    17    18    2
    18    18    19    1
    19    19    20    2
    20    20    21    1
    21    21    22    1
    22    22    23    1
    23    23    24    1
    24    24    25    1
    25    24    26    1
    26    26    27    1
    27    20    28    1
    28    28    29    2
    29    15    30    2
    30    30    31    1
    31    31    32    2
    32    32    33    1
    33    11     6    1
    34    32    13    1
    35    29    17    1
    36    27    21    1
@<TRIPOS>SUBSTRUCTURE
     1 RES1        1 GROUP             0 ****  ****    0  
@<TRIPOS>MOLECULE
ligand_51
    33    36     1     0     0
SMALL
USER_CHARGES
****
Generated from the CSD

@<TRIPOS>ATOM
     1 C1      -9.2024 -48.0220 -18.1791   C.3       1 RES1   0.0000
     2 C2      -8.4486 -49.3384 -18.3616   C.3       1 RES1   0.0000
     3 C3      -9.4584 -50.4855 -18.2798   C.2       1 RES1   0.0000
     4 O4      -9.1368 -51.6255 -18.1628   O.2       1 RES1   0.0000
     5 O5     -10.8180 -50.0961 -18.3565   O.3       1 RES1   0.0000
     6 C6     -11.7843 -51.1521 -18.2853   C.2       1 RES1   0.0000
     7 C7     -12.4174 -51.4360 -17.0734   C.2       1 RES1   0.0000
     8 C8     -13.3608 -52.4779 -17.0225   C.2       1 RES1   0.0000
     9 C9     -13.6415 -53.2130 -18.1869   C.2       1 RES1   0.0000
    10 C10    -12.9981 -52.9276 -19.4052   C.2       1 RES1   0.0000
    11 C11    -12.0546 -51.8880 -19.4544   C.2       1 RES1   0.0000
    12 N12    -11.3482 -51.5392 -20.7252   N.2       1 RES1   0.0000
    13 C13    -11.6619 -52.1468 -22.0239   C.2       1 RES1   0.0000
    14 N14    -12.7042 -52.9764 -22.1470   N.2       1 RES1   0.0000
    15 C15    -12.9918 -53.5256 -23.3176   C.2       1 RES1   0.0000
    16 N16    -14.1273 -54.4399 -23.4635   N.2       1 RES1   0.0000
    17 C17    -15.0562 -54.7647 -22.3652   C.2       1 RES1   0.0000
    18 C18    -15.5317 -56.0621 -22.2630   C.2       1 RES1   0.0000
    19 C19    -16.4092 -56.4093 -21.2264   C.2       1 RES1   0.0000
    20 C20    -16.8055 -55.4506 -20.2996   C.2       1 RES1   0.0000
    21 N21    -17.7389 -55.8380 -19.2126   N.pl3     1 RES1   0.0000
    22 C22    -17.6845 -55.2935 -17.8595   C.3       1 RES1   0.0000
    23 C23    -19.0803 -55.1444 -17.3060   C.3       1 RES1   0.0000
    24 N24    -19.8078 -56.4471 -17.3444   N.3       1 RES1   1.0000
    25 C25    -20.9870 -56.2899 -16.8715   C.2       1 RES1   0.0000
    26 C26    -19.7952 -57.0164 -18.7242   C.3       1 RES1   0.0000
    27 C27    -18.3835 -57.1441 -19.2397   C.3       1 RES1   0.0000
    28 C28    -16.3310 -54.1486 -20.3975   C.2       1 RES1   0.0000
    29 C29    -15.4500 -53.8064 -21.4318   C.2       1 RES1   0.0000
    30 N30    -12.2864 -53.2764 -24.3918   N.2       1 RES1   0.0000
    31 C31    -11.2380 -52.4631 -24.3613   C.2       1 RES1   0.0000
    32 C32    -10.9019 -51.8695 -23.1436   C.2       1 RES1   0.0000
    33 Cl33    -9.5038 -50.7771 -23.0759   Cl        1 RES1   0.0000
@<TRIPOS>BOND
     1     1     2    1
     2     2     3    1
     3     3     4    2
     4     3     5    1
     5     5     6    1
     6     6     7    2
     7     7     8    1
     8     8     9    2
     9     9    10    1
    10    10    11    2
    11    11    12    1
    12    12    13    1
    13    13    14    2
    14    14    15    1
    15    15    16    1
    16    16    17    1
    17    17    18    2
    18    18    19    1
    19    19    20    2
    20    20    21    1
    21    21    22    1
    22    22    23    1
    23    23    24    1
    24    24    25    1
    25    24    26    1
    26    26    27    1
    27    20    28    1
    28    28    29    2
    29    15    30    2
    30    30    31    1
    31    31    32    2
    32    32    33    1
    33    11     6    1
    34    32    13    1
    35    29    17    1
    36    27    21    1
@<TRIPOS>SUBSTRUCTURE
     1 RES1        1 GROUP             0 ****  ****    0  
@<TRIPOS>MOLECULE
ligand_52
    33    36     1     0     0
SMALL
USER_CHARGES
****
Generated from the CSD

@<TRIPOS>ATOM
     1 C1      -8.1865 -49.2680 -18.1031   C.3       1 RES1   0.0000
     2 C2      -7.9847 -50.7722 -18.2797   C.3       1 RES1   0.0000
     3 C3      -9.3556 -51.4505 -18.2253   C.2       1 RES1   0.0000
     4 O4      -9.4928 -52.6272 -18.1097   O.2       1 RES1   0.0000
     5 O5     -10.4641 -50.5746 -18.3260   O.3       1 RES1   0.0000
     6 C6     -11.7599 -51.1851 -18.2807   C.2       1 RES1   0.0000
     7 C7     -12.4624 -51.4162 -19.4653   C.2       1 RES1   0.0000
     8 C8     -13.7338 -52.0140 -19.4006   C.2       1 RES1   0.0000
     9 C9     -14.2717 -52.3596 -18.1490   C.2       1 RES1   0.0000
    10 C10    -13.5633 -52.1207 -16.9571   C.2       1 RES1   0.0000
    11 C11    -12.2943 -51.5220 -17.0228   C.2       1 RES1   0.0000
    12 N12    -11.4969 -51.2531 -15.7869   N.2       1 RES1   0.0000
    13 C13    -11.8997 -51.6948 -14.4464   C.2       1 RES1   0.0000
    14 N14    -12.9699 -52.4819 -14.2881   N.2       1 RES1   0.0000
    15 C15    -13.3359 -52.8841 -13.0802   C.2       1 RES1   0.0000
    16 N16    -14.5092 -53.7414 -12.8938   N.2       1 RES1   0.0000
    17 C17    -15.3190 -54.2655 -14.0093   C.2       1 RES1   0.0000
    18 C18    -16.6928 -54.3464 -13.8484   C.2       1 RES1   0.0000
    19 C19    -17.4951 -54.8310 -14.8907   C.2       1 RES1   0.0000
    20 C20    -16.9124 -55.2337 -16.0880   C.2       1 RES1   0.0000
    21 N21    -17.7794 -55.7482 -17.1772   N.pl3     1 RES1   0.0000
    22 C22    -17.5267 -55.5197 -18.5964   C.3       1 RES1   0.0000
    23 C23    -17.9323 -56.7337 -19.3956   C.3       1 RES1   0.0000
    24 N24    -19.3613 -57.0822 -19.1418   N.3       1 RES1   1.0000
    25 C25    -19.6760 -58.1147 -19.8300   C.2       1 RES1   0.0000
    26 C26    -19.6110 -57.2478 -17.6794   C.3       1 RES1   0.0000
    27 C27    -19.1880 -56.0155 -16.9194   C.3       1 RES1   0.0000
    28 C28    -15.5354 -55.1539 -16.2543   C.2       1 RES1   0.0000
    29 C29    -14.7372 -54.6641 -15.2123   C.2       1 RES1   0.0000
    30 N30    -12.6707 -52.5436 -12.0054   N.2       1 RES1   0.0000
    31 C31    -11.5952 -51.7686 -12.0704   C.2       1 RES1   0.0000
    32 C32    -11.1823 -51.3214 -13.3265   C.2       1 RES1   0.0000
    33 Cl33    -9.7462 -50.2835 -13.4409   Cl        1 RES1   0.0000
@<TRIPOS>BOND
     1     1     2    1
     2     2     3    1
     3     3     4    2
     4     3     5    1
     5     5     6    1
     6     6     7    2
     7     7     8    1
     8     8     9    2
     9     9    10    1
    10    10    11    2
    11    11    12    1
    12    12    13    1
    13    13    14    2
    14    14    15    1
    15    15    16    1
    16    16    17    1
    17    17    18    2
    18    18    19    1
    19    19    20    2
    20    20    21    1
    21    21    22    1
    22    22    23    1
    23    23    24    1
    24    24    25    1
    25    24    26    1
    26    26    27    1
    27    20    28    1
    28    28    29    2
    29    15    30    2
    30    30    31    1
    31    31    32    2
    32    32    33    1
    33    11     6    1
    34    32    13    1
    35    29    17    1
    36    27    21    1
@<TRIPOS>SUBSTRUCTURE
     1 RES1        1 GROUP             0 ****  ****    0  
@<TRIPOS>MOLECULE
ligand_53
    33    36     1     0     0
SMALL
USER_CHARGES
****
Generated from the CSD

@<TRIPOS>ATOM
     1 C1      -8.5923 -48.6369 -17.9976   C.3       1 RES1   0.0000
     2 C2      -8.1194 -50.0721 -18.2231   C.3       1 RES1   0.0000
     3 C3      -9.3443 -50.9896 -18.2065   C.2       1 RES1   0.0000
     4 O4      -9.2657 -52.1750 -18.1325   O.2       1 RES1   0.0000
     5 O5     -10.5931 -50.3267 -18.2892   O.3       1 RES1   0.0000
     6 C6     -11.7564 -51.1636 -18.2786   C.2       1 RES1   0.0000
     7 C7     -12.4641 -51.3572 -17.0905   C.2       1 RES1   0.0000
     8 C8     -13.6017 -52.1842 -17.0993   C.2       1 RES1   0.0000
     9 C9     -13.9978 -52.8013 -18.2982   C.2       1 RES1   0.0000
    10 C10    -13.2795 -52.6081 -19.4925   C.2       1 RES1   0.0000
    11 C11    -12.1424 -51.7834 -19.4821   C.2       1 RES1   0.0000
    12 N12    -11.3482 -51.5392 -20.7252   N.2       1 RES1   0.0000
    13 C13    -11.6619 -52.1468 -22.0239   C.2       1 RES1   0.0000
    14 N14    -12.7042 -52.9764 -22.1470   N.2       1 RES1   0.0000
    15 C15    -12.9918 -53.5256 -23.3176   C.2       1 RES1   0.0000
    16 N16    -14.1273 -54.4399 -23.4635   N.2       1 RES1   0.0000
    17 C17    -14.4741 -55.1102 -24.7304   C.2       1 RES1   0.0000
    18 C18    -15.8128 -55.2564 -25.0564   C.2       1 RES1   0.0000
    19 C19    -16.1797 -55.8804 -26.2569   C.2       1 RES1   0.0000
    20 C20    -15.1995 -56.3556 -27.1220   C.2       1 RES1   0.0000
    21 N21    -15.6094 -57.0173 -28.3858   N.pl3     1 RES1   0.0000
    22 C22    -14.8724 -56.9049 -29.6405   C.3       1 RES1   0.0000
    23 C23    -14.9392 -58.2085 -30.3977   C.3       1 RES1   0.0000
    24 N24    -16.3566 -58.6154 -30.6284   N.3       1 RES1   1.0000
    25 C25    -16.3821 -59.7231 -31.2696   C.2       1 RES1   0.0000
    26 C26    -17.1076 -58.6611 -29.3391   C.3       1 RES1   0.0000
    27 C27    -17.0110 -57.3420 -28.6142   C.3       1 RES1   0.0000
    28 C28    -13.8558 -56.2107 -26.7999   C.2       1 RES1   0.0000
    29 C29    -13.4929 -55.5820 -25.6017   C.2       1 RES1   0.0000
    30 N30    -12.2864 -53.2764 -24.3918   N.2       1 RES1   0.0000
    31 C31    -11.2380 -52.4631 -24.3613   C.2       1 RES1   0.0000
    32 C32    -10.9019 -51.8695 -23.1436   C.2       1 RES1   0.0000
    33 Cl33    -9.5038 -50.7771 -23.0759   Cl        1 RES1   0.0000
@<TRIPOS>BOND
     1     1     2    1
     2     2     3    1
     3     3     4    2
     4     3     5    1
     5     5     6    1
     6     6     7    2
     7     7     8    1
     8     8     9    2
     9     9    10    1
    10    10    11    2
    11    11    12    1
    12    12    13    1
    13    13    14    2
    14    14    15    1
    15    15    16    1
    16    16    17    1
    17    17    18    2
    18    18    19    1
    19    19    20    2
    20    20    21    1
    21    21    22    1
    22    22    23    1
    23    23    24    1
    24    24    25    1
    25    24    26    1
    26    26    27    1
    27    20    28    1
    28    28    29    2
    29    15    30    2
    30    30    31    1
    31    31    32    2
    32    32    33    1
    33    11     6    1
    34    32    13    1
    35    29    17    1
    36    27    21    1
@<TRIPOS>SUBSTRUCTURE
     1 RES1        1 GROUP             0 ****  ****    0  
@<TRIPOS>MOLECULE
ligand_54
    33    36     1     0     0
SMALL
USER_CHARGES
****
Generated from the CSD

@<TRIPOS>ATOM
     1 C1      -8.6648 -48.5468 -18.0048   C.3       1 RES1   0.0000
     2 C2      -8.1555 -49.9696 -18.2299   C.3       1 RES1   0.0000
     3 C3      -9.3562 -50.9184 -18.2109   C.2       1 RES1   0.0000
     4 O4      -9.2470 -52.1013 -18.1360   O.2       1 RES1   0.0000
     5 O5     -10.6219 -50.2878 -18.2922   O.3       1 RES1   0.0000
     6 C6     -11.7632 -51.1545 -18.2794   C.2       1 RES1   0.0000
     7 C7     -12.4002 -51.4847 -19.4774   C.2       1 RES1   0.0000
     8 C8     -13.5205 -52.3345 -19.4444   C.2       1 RES1   0.0000
     9 C9     -13.9776 -52.8271 -18.2101   C.2       1 RES1   0.0000
    10 C10    -13.3364 -52.4883 -17.0044   C.2       1 RES1   0.0000
    11 C11    -12.2188 -51.6381 -17.0384   C.2       1 RES1   0.0000
    12 N12    -11.4969 -51.2531 -15.7869   N.2       1 RES1   0.0000
    13 C13    -11.8997 -51.6948 -14.4464   C.2       1 RES1   0.0000
    14 N14    -12.9699 -52.4819 -14.2881   N.2       1 RES1   0.0000
    15 C15    -13.3359 -52.8841 -13.0802   C.2       1 RES1   0.0000
    16 N16    -14.5092 -53.7414 -12.8938   N.2       1 RES1   0.0000
    17 C17    -14.9869 -54.1902 -11.5728   C.2       1 RES1   0.0000
    18 C18    -15.4737 -55.4815 -11.4491   C.2       1 RES1   0.0000
    19 C19    -15.9278 -55.9454 -10.2067   C.2       1 RES1   0.0000
    20 C20    -15.8921 -55.1086  -9.0960   C.2       1 RES1   0.0000
    21 N21    -16.3821 -55.6179  -7.7909   N.pl3     1 RES1   0.0000
    22 C22    -15.7981 -55.2547  -6.5035   C.3       1 RES1   0.0000
    23 C23    -16.8791 -55.1549  -5.4554   C.3       1 RES1   0.0000
    24 N24    -17.6516 -56.4290  -5.3677   N.3       1 RES1   1.0000
    25 C25    -18.5608 -56.3145  -4.4738   C.2       1 RES1   0.0000
    26 C26    -18.1848 -56.8145  -6.7075   C.3       1 RES1   0.0000
    27 C27    -17.0738 -56.8982  -7.7241   C.3       1 RES1   0.0000
    28 C28    -15.4044 -53.8132  -9.2148   C.2       1 RES1   0.0000
    29 C29    -14.9465 -53.3547 -10.4570   C.2       1 RES1   0.0000
    30 N30    -12.6707 -52.5436 -12.0054   N.2       1 RES1   0.0000
    31 C31    -11.5952 -51.7686 -12.0704   C.2       1 RES1   0.0000
    32 C32    -11.1823 -51.3214 -13.3265   C.2       1 RES1   0.0000
    33 Cl33    -9.7462 -50.2835 -13.4409   Cl        1 RES1   0.0000
@<TRIPOS>BOND
     1     1     2    1
     2     2     3    1
     3     3     4    2
     4     3     5    1
     5     5     6    1
     6     6     7    2
     7     7     8    1
     8     8     9    2
     9     9    10    1
    10    10    11    2
    11    11    12    1
    12    12    13    1
    13    13    14    2
    14    14    15    1
    15    15    16    1
    16    16    17    1
    17    17    18    2
    18    18    19    1
    19    19    20    2
    20    20    21    1
    21    21    22    1
    22    22    23    1
    23    23    24    1
    24    24    25    1
    25    24    26    1
    26    26    27    1
    27    20    28    1
    28    28    29    2
    29    15    30    2
    30    30    31    1
    31    31    32    2
    32    32    33    1
    33    11     6    1
    34    32    13    1
    35    29    17    1
    36    27    21    1
@<TRIPOS>SUBSTRUCTURE
     1 RES1        1 GROUP             0 ****  ****    0  
@<TRIPOS>MOLECULE
ligand_55
    33    36     1     0     0
SMALL
USER_CHARGES
****
Generated from the CSD

@<TRIPOS>ATOM
     1 C1      -8.9872 -48.4875 -17.9712   C.3       1 RES1   0.0000
     2 C2      -8.4041 -49.8778 -18.2191   C.3       1 RES1   0.0000
     3 C3      -9.5501 -50.8918 -18.1891   C.2       1 RES1   0.0000
     4 O4     -10.6733 -50.5936 -17.9313   O.2       1 RES1   0.0000
     5 O5      -9.1806 -52.2257 -18.4892   O.3       1 RES1   0.0000
     6 C6     -10.2352 -53.1958 -18.4650   C.2       1 RES1   0.0000
     7 C7     -10.8464 -53.5897 -19.6571   C.2       1 RES1   0.0000
     8 C8     -11.8815 -54.5409 -19.6130   C.2       1 RES1   0.0000
     9 C9     -12.2818 -55.0691 -18.3737   C.2       1 RES1   0.0000
    10 C10    -11.6671 -54.6663 -17.1739   C.2       1 RES1   0.0000
    11 C11    -10.6347 -53.7148 -17.2190   C.2       1 RES1   0.0000
    12 N12     -9.9437 -53.2583 -15.9741   N.2       1 RES1   0.0000
    13 C13    -10.6120 -53.1263 -14.6741   C.2       1 RES1   0.0000
    14 N14    -11.9181 -53.3909 -14.5564   N.2       1 RES1   0.0000
    15 C15    -12.5248 -53.2747 -13.3846   C.2       1 RES1   0.0000
    16 N16    -13.9557 -53.5562 -13.2446   N.2       1 RES1   0.0000
    17 C17    -14.7032 -53.3642 -11.9880   C.2       1 RES1   0.0000
    18 C18    -14.3725 -52.2886 -11.1795   C.2       1 RES1   0.0000
    19 C19    -15.0678 -52.0697  -9.9821   C.2       1 RES1   0.0000
    20 C20    -16.0900 -52.9337  -9.6029   C.2       1 RES1   0.0000
    21 N21    -16.8103 -52.6866  -8.3289   N.pl3     1 RES1   0.0000
    22 C22    -16.8834 -51.3844  -7.6737   C.3       1 RES1   0.0000
    23 C23    -18.2325 -51.2094  -7.0209   C.3       1 RES1   0.0000
    24 N24    -18.5065 -52.3214  -6.0638   N.3       1 RES1   1.0000
    25 C25    -19.6560 -52.1478  -5.5278   C.2       1 RES1   0.0000
    26 C26    -18.3630 -53.6447  -6.7394   C.3       1 RES1   0.0000
    27 C27    -17.0043 -53.7756  -7.3811   C.3       1 RES1   0.0000
    28 C28    -16.4256 -54.0131 -10.4105   C.2       1 RES1   0.0000
    29 C29    -15.7320 -54.2259 -11.6090   C.2       1 RES1   0.0000
    30 N30    -11.8810 -52.9119 -12.3040   N.2       1 RES1   0.0000
    31 C31    -10.5835 -52.6336 -12.3289   C.2       1 RES1   0.0000
    32 C32     -9.9116 -52.7406 -13.5476   C.2       1 RES1   0.0000
    33 Cl33    -8.1753 -52.3740 -13.6078   Cl        1 RES1   0.0000
@<TRIPOS>BOND
     1     1     2    1
     2     2     3    1
     3     3     4    2
     4     3     5    1
     5     5     6    1
     6     6     7    2
     7     7     8    1
     8     8     9    2
     9     9    10    1
    10    10    11    2
    11    11    12    1
    12    12    13    1
    13    13    14    2
    14    14    15    1
    15    15    16    1
    16    16    17    1
    17    17    18    2
    18    18    19    1
    19    19    20    2
    20    20    21    1
    21    21    22    1
    22    22    23    1
    23    23    24    1
    24    24    25    1
    25    24    26    1
    26    26    27    1
    27    20    28    1
    28    28    29    2
    29    15    30    2
    30    30    31    1
    31    31    32    2
    32    32    33    1
    33    11     6    1
    34    32    13    1
    35    29    17    1
    36    27    21    1
@<TRIPOS>SUBSTRUCTURE
     1 RES1        1 GROUP             0 ****  ****    0  
@<TRIPOS>MOLECULE
ligand_56
    33    36     1     0     0
SMALL
USER_CHARGES
****
Generated from the CSD

@<TRIPOS>ATOM
     1 C1      -8.3097 -48.7577 -18.0432   C.3       1 RES1   0.0000
     2 C2      -7.9216 -50.2160 -18.2825   C.3       1 RES1   0.0000
     3 C3      -9.1938 -51.0654 -18.2365   C.2       1 RES1   0.0000
     4 O4     -10.2645 -50.6162 -17.9744   O.2       1 RES1   0.0000
     5 O5      -9.0101 -52.4394 -18.5272   O.3       1 RES1   0.0000
     6 C6     -10.1859 -53.2578 -18.4880   C.2       1 RES1   0.0000
     7 C7     -10.4537 -54.0382 -17.3613   C.2       1 RES1   0.0000
     8 C8     -11.6111 -54.8370 -17.3424   C.2       1 RES1   0.0000
     9 C9     -12.4681 -54.8378 -18.4562   C.2       1 RES1   0.0000
    10 C10    -12.1926 -54.0542 -19.5918   C.2       1 RES1   0.0000
    11 C11    -11.0354 -53.2582 -19.6104   C.2       1 RES1   0.0000
    12 N12    -10.7002 -52.4015 -20.7891   N.2       1 RES1   0.0000
    13 C13    -11.0078 -52.7694 -22.1763   C.2       1 RES1   0.0000
    14 N14    -11.5941 -53.9404 -22.4501   N.2       1 RES1   0.0000
    15 C15    -11.8749 -54.2756 -23.7004   C.2       1 RES1   0.0000
    16 N16    -12.5117 -55.5575 -24.0131   N.2       1 RES1   0.0000
    17 C17    -12.7719 -56.0223 -25.3882   C.2       1 RES1   0.0000
    18 C18    -11.8436 -55.7261 -26.3733   C.2       1 RES1   0.0000
    19 C19    -12.0534 -56.1596 -27.6897   C.2       1 RES1   0.0000
    20 C20    -13.1957 -56.8864 -28.0094   C.2       1 RES1   0.0000
    21 N21    -13.4009 -57.3318 -29.4103   N.pl3     1 RES1   0.0000
    22 C22    -12.3215 -57.4990 -30.3784   C.3       1 RES1   0.0000
    23 C23    -12.6138 -58.6725 -31.2808   C.3       1 RES1   0.0000
    24 N24    -13.9350 -58.5065 -31.9551   N.3       1 RES1   1.0000
    25 C25    -14.1566 -59.5156 -32.7110   C.2       1 RES1   0.0000
    26 C26    -15.0134 -58.2726 -30.9498   C.3       1 RES1   0.0000
    27 C27    -14.6793 -57.0958 -30.0677   C.3       1 RES1   0.0000
    28 C28    -14.1290 -57.1865 -27.0251   C.2       1 RES1   0.0000
    29 C29    -13.9134 -56.7560 -25.7094   C.2       1 RES1   0.0000
    30 N30    -11.6053 -53.4837 -24.7073   N.2       1 RES1   0.0000
    31 C31    -11.0276 -52.3024 -24.5268   C.2       1 RES1   0.0000
    32 C32    -10.7127 -51.9173 -23.2227   C.2       1 RES1   0.0000
    33 Cl33    -9.9395 -50.3416 -22.9540   Cl        1 RES1   0.0000
@<TRIPOS>BOND
     1     1     2    1
     2     2     3    1
     3     3     4    2
     4     3     5    1
     5     5     6    1
     6     6     7    2
     7     7     8    1
     8     8     9    2
     9     9    10    1
    10    10    11    2
    11    11    12    1
    12    12    13    1
    13    13    14    2
    14    14    15    1
    15    15    16    1
    16    16    17    1
    17    17    18    2
    18    18    19    1
    19    19    20    2
    20    20    21    1
    21    21    22    1
    22    22    23    1
    23    23    24    1
    24    24    25    1
    25    24    26    1
    26    26    27    1
    27    20    28    1
    28    28    29    2
    29    15    30    2
    30    30    31    1
    31    31    32    2
    32    32    33    1
    33    11     6    1
    34    32    13    1
    35    29    17    1
    36    27    21    1
@<TRIPOS>SUBSTRUCTURE
     1 RES1        1 GROUP             0 ****  ****    0  
@<TRIPOS>MOLECULE
ligand_57
    33    36     1     0     0
SMALL
USER_CHARGES
****
Generated from the CSD

@<TRIPOS>ATOM
     1 C1      -9.0240 -48.4894 -17.8877   C.3       1 RES1   0.0000
     2 C2      -8.4274 -49.8807 -18.0945   C.3       1 RES1   0.0000
     3 C3      -9.5741 -50.8935 -18.1381   C.2       1 RES1   0.0000
     4 O4     -10.7114 -50.5938 -17.9551   O.2       1 RES1   0.0000
     5 O5      -9.1871 -52.2283 -18.4112   O.3       1 RES1   0.0000
     6 C6     -10.2420 -53.1973 -18.4546   C.2       1 RES1   0.0000
     7 C7     -10.4828 -54.0145 -17.3481   C.2       1 RES1   0.0000
     8 C8     -11.5208 -54.9614 -17.4105   C.2       1 RES1   0.0000
     9 C9     -12.2878 -55.0694 -18.5833   C.2       1 RES1   0.0000
    10 C10    -12.0392 -54.2478 -19.6981   C.2       1 RES1   0.0000
    11 C11    -11.0010 -53.3037 -19.6354   C.2       1 RES1   0.0000
    12 N12    -10.7002 -52.4015 -20.7891   N.2       1 RES1   0.0000
    13 C13    -11.7216 -51.8933 -21.7126   C.2       1 RES1   0.0000
    14 N14    -13.0104 -52.2020 -21.5301   N.2       1 RES1   0.0000
    15 C15    -13.9355 -51.7441 -22.3602   C.2       1 RES1   0.0000
    16 N16    -15.3494 -52.0799 -22.1738   N.2       1 RES1   0.0000
    17 C17    -16.4127 -51.6710 -23.1102   C.2       1 RES1   0.0000
    18 C18    -16.1278 -51.6496 -24.4660   C.2       1 RES1   0.0000
    19 C19    -17.1167 -51.2748 -25.3861   C.2       1 RES1   0.0000
    20 C20    -18.3857 -50.9218 -24.9387   C.2       1 RES1   0.0000
    21 N21    -19.4169 -50.5237 -25.9291   N.pl3     1 RES1   0.0000
    22 C22    -19.3892 -50.9134 -27.3354   C.3       1 RES1   0.0000
    23 C23    -20.7936 -51.1513 -27.8334   C.3       1 RES1   0.0000
    24 N24    -21.6450 -49.9449 -27.6150   N.3       1 RES1   1.0000
    25 C25    -22.8286 -50.1761 -28.0444   C.2       1 RES1   0.0000
    26 C26    -21.6069 -49.5262 -26.1827   C.3       1 RES1   0.0000
    27 C27    -20.1869 -49.3039 -25.7256   C.3       1 RES1   0.0000
    28 C28    -18.6765 -50.9424 -23.5803   C.2       1 RES1   0.0000
    29 C29    -17.6871 -51.3224 -22.6641   C.2       1 RES1   0.0000
    30 N30    -13.6358 -50.9723 -23.3742   N.2       1 RES1   0.0000
    31 C31    -12.3833 -50.6136 -23.6278   C.2       1 RES1   0.0000
    32 C32    -11.3807 -51.0810 -22.7767   C.2       1 RES1   0.0000
    33 Cl33    -9.6968 -50.6154 -23.0938   Cl        1 RES1   0.0000
@<TRIPOS>BOND
     1     1     2    1
     2     2     3    1
     3     3     4    2
     4     3     5    1
     5     5     6    1
     6     6     7    2
     7     7     8    1
     8     8     9    2
     9     9    10    1
    10    10    11    2
    11    11    12    1
    12    12    13    1
    13    13    14    2
    14    14    15    1
    15    15    16    1
    16    16    17    1
    17    17    18    2
    18    18    19    1
    19    19    20    2
    20    20    21    1
    21    21    22    1
    22    22    23    1
    23    23    24    1
    24    24    25    1
    25    24    26    1
    26    26    27    1
    27    20    28    1
    28    28    29    2
    29    15    30    2
    30    30    31    1
    31    31    32    2
    32    32    33    1
    33    11     6    1
    34    32    13    1
    35    29    17    1
    36    27    21    1
@<TRIPOS>SUBSTRUCTURE
     1 RES1        1 GROUP             0 ****  ****    0  
@<TRIPOS>MOLECULE
ligand_58
    33    36     1     0     0
SMALL
USER_CHARGES
****
Generated from the CSD

@<TRIPOS>ATOM
     1 C1      -8.9842 -48.4880 -17.9709   C.3       1 RES1   0.0000
     2 C2      -8.4019 -49.8786 -18.2188   C.3       1 RES1   0.0000
     3 C3      -9.5485 -50.8919 -18.1889   C.2       1 RES1   0.0000
     4 O4     -10.6715 -50.5931 -17.9313   O.2       1 RES1   0.0000
     5 O5      -9.1797 -52.2260 -18.4891   O.3       1 RES1   0.0000
     6 C6     -10.2348 -53.1955 -18.4650   C.2       1 RES1   0.0000
     7 C7     -10.8462 -53.5890 -19.6573   C.2       1 RES1   0.0000
     8 C8     -11.8818 -54.5397 -19.6133   C.2       1 RES1   0.0000
     9 C9     -12.2825 -55.0677 -18.3740   C.2       1 RES1   0.0000
    10 C10    -11.6678 -54.6653 -17.1741   C.2       1 RES1   0.0000
    11 C11    -10.6348 -53.7144 -17.2191   C.2       1 RES1   0.0000
    12 N12     -9.9437 -53.2583 -15.9741   N.2       1 RES1   0.0000
    13 C13    -10.6120 -53.1263 -14.6741   C.2       1 RES1   0.0000
    14 N14    -11.9181 -53.3909 -14.5564   N.2       1 RES1   0.0000
    15 C15    -12.5248 -53.2747 -13.3846   C.2       1 RES1   0.0000
    16 N16    -13.9557 -53.5562 -13.2446   N.2       1 RES1   0.0000
    17 C17    -14.6732 -53.5014 -11.9574   C.2       1 RES1   0.0000
    18 C18    -15.9895 -53.0686 -11.9518   C.2       1 RES1   0.0000
    19 C19    -16.7056 -53.0122 -10.7480   C.2       1 RES1   0.0000
    20 C20    -16.0945 -53.3890  -9.5565   C.2       1 RES1   0.0000
    21 N21    -16.8690 -53.3173  -8.2924   N.pl3     1 RES1   0.0000
    22 C22    -16.2614 -53.2085  -6.9698   C.3       1 RES1   0.0000
    23 C23    -17.1130 -52.3367  -6.0800   C.3       1 RES1   0.0000
    24 N24    -18.5080 -52.8618  -6.0016   N.3       1 RES1   1.0000
    25 C25    -19.2062 -52.1027  -5.2433   C.2       1 RES1   0.0000
    26 C26    -19.0862 -53.0258  -7.3679   C.3       1 RES1   0.0000
    27 C27    -18.2029 -53.8989  -8.2237   C.3       1 RES1   0.0000
    28 C28    -14.7752 -53.8243  -9.5571   C.2       1 RES1   0.0000
    29 C29    -14.0643 -53.8843 -10.7628   C.2       1 RES1   0.0000
    30 N30    -11.8810 -52.9119 -12.3040   N.2       1 RES1   0.0000
    31 C31    -10.5835 -52.6336 -12.3289   C.2       1 RES1   0.0000
    32 C32     -9.9116 -52.7406 -13.5476   C.2       1 RES1   0.0000
    33 Cl33    -8.1753 -52.3740 -13.6078   Cl        1 RES1   0.0000
@<TRIPOS>BOND
     1     1     2    1
     2     2     3    1
     3     3     4    2
     4     3     5    1
     5     5     6    1
     6     6     7    2
     7     7     8    1
     8     8     9    2
     9     9    10    1
    10    10    11    2
    11    11    12    1
    12    12    13    1
    13    13    14    2
    14    14    15    1
    15    15    16    1
    16    16    17    1
    17    17    18    2
    18    18    19    1
    19    19    20    2
    20    20    21    1
    21    21    22    1
    22    22    23    1
    23    23    24    1
    24    24    25    1
    25    24    26    1
    26    26    27    1
    27    20    28    1
    28    28    29    2
    29    15    30    2
    30    30    31    1
    31    31    32    2
    32    32    33    1
    33    11     6    1
    34    32    13    1
    35    29    17    1
    36    27    21    1
@<TRIPOS>SUBSTRUCTURE
     1 RES1        1 GROUP             0 ****  ****    0  
@<TRIPOS>MOLECULE
ligand_59
    33    36     1     0     0
SMALL
USER_CHARGES
****
Generated from the CSD

@<TRIPOS>ATOM
     1 C1      -8.2762 -48.7716 -18.1542   C.3       1 RES1   0.0000
     2 C2      -7.8966 -50.2412 -18.3288   C.3       1 RES1   0.0000
     3 C3      -9.1776 -51.0773 -18.2802   C.2       1 RES1   0.0000
     4 O4     -10.2497 -50.6092 -18.0603   O.2       1 RES1   0.0000
     5 O5      -9.0003 -52.4629 -18.5142   O.3       1 RES1   0.0000
     6 C6     -10.1844 -53.2691 -18.4711   C.2       1 RES1   0.0000
     7 C7     -10.8277 -53.6253 -19.6583   C.2       1 RES1   0.0000
     8 C8     -11.9900 -54.4148 -19.5958   C.2       1 RES1   0.0000
     9 C9     -12.4817 -54.8224 -18.3439   C.2       1 RES1   0.0000
    10 C10    -11.8339 -54.4574 -17.1494   C.2       1 RES1   0.0000
    11 C11    -10.6741 -53.6674 -17.2129   C.2       1 RES1   0.0000
    12 N12     -9.9437 -53.2583 -15.9741   N.2       1 RES1   0.0000
    13 C13     -9.8634 -54.0872 -14.7655   C.2       1 RES1   0.0000
    14 N14    -10.4327 -55.2975 -14.7379   N.2       1 RES1   0.0000
    15 C15    -10.3611 -56.0494 -13.6497   C.2       1 RES1   0.0000
    16 N16    -10.9855 -57.3742 -13.6056   N.2       1 RES1   0.0000
    17 C17    -10.8900 -58.2800 -12.4458   C.2       1 RES1   0.0000
    18 C18    -11.9743 -59.0895 -12.1478   C.2       1 RES1   0.0000
    19 C19    -11.9158 -59.9695 -11.0582   C.2       1 RES1   0.0000
    20 C20    -10.7690 -60.0297 -10.2731   C.2       1 RES1   0.0000
    21 N21    -10.7296 -60.9650  -9.1212   N.pl3     1 RES1   0.0000
    22 C22     -9.8469 -60.8029  -7.9702   C.3       1 RES1   0.0000
    23 C23    -10.5468 -61.2599  -6.7139   C.3       1 RES1   0.0000
    24 N24    -11.0159 -62.6702  -6.8515   N.3       1 RES1   1.0000
    25 C25    -11.6062 -63.0292  -5.7738   C.2       1 RES1   0.0000
    26 C26    -11.8636 -62.8263  -8.0702   C.3       1 RES1   0.0000
    27 C27    -11.1286 -62.3546  -9.2998   C.3       1 RES1   0.0000
    28 C28     -9.6790 -59.2206 -10.5682   C.2       1 RES1   0.0000
    29 C29     -9.7391 -58.3460 -11.6611   C.2       1 RES1   0.0000
    30 N30     -9.7307 -55.6524 -12.5733   N.2       1 RES1   0.0000
    31 C31     -9.1346 -54.4680 -12.5144   C.2       1 RES1   0.0000
    32 C32     -9.1932 -53.6460 -13.6410   C.2       1 RES1   0.0000
    33 Cl33    -8.4037 -52.0565 -13.5882   Cl        1 RES1   0.0000
@<TRIPOS>BOND
     1     1     2    1
     2     2     3    1
     3     3     4    2
     4     3     5    1
     5     5     6    1
     6     6     7    2
     7     7     8    1
     8     8     9    2
     9     9    10    1
    10    10    11    2
    11    11    12    1
    12    12    13    1
    13    13    14    2
    14    14    15    1
    15    15    16    1
    16    16    17    1
    17    17    18    2
    18    18    19    1
    19    19    20    2
    20    20    21    1
    21    21    22    1
    22    22    23    1
    23    23    24    1
    24    24    25    1
    25    24    26    1
    26    26    27    1
    27    20    28    1
    28    28    29    2
    29    15    30    2
    30    30    31    1
    31    31    32    2
    32    32    33    1
    33    11     6    1
    34    32    13    1
    35    29    17    1
    36    27    21    1
@<TRIPOS>SUBSTRUCTURE
     1 RES1        1 GROUP             0 ****  ****    0  
@<TRIPOS>MOLECULE
ligand_60
    33    36     1     0     0
SMALL
USER_CHARGES
****
Generated from the CSD

@<TRIPOS>ATOM
     1 C1      -9.0234 -48.4890 -17.8886   C.3       1 RES1   0.0000
     2 C2      -8.4270 -49.8805 -18.0951   C.3       1 RES1   0.0000
     3 C3      -9.5737 -50.8931 -18.1385   C.2       1 RES1   0.0000
     4 O4     -10.7110 -50.5932 -17.9555   O.2       1 RES1   0.0000
     5 O5      -9.1869 -52.2280 -18.4113   O.3       1 RES1   0.0000
     6 C6     -10.2420 -53.1969 -18.4545   C.2       1 RES1   0.0000
     7 C7     -10.4828 -54.0138 -17.3478   C.2       1 RES1   0.0000
     8 C8     -11.5210 -54.9607 -17.4100   C.2       1 RES1   0.0000
     9 C9     -12.2880 -55.0687 -18.5826   C.2       1 RES1   0.0000
    10 C10    -12.0394 -54.2474 -19.6977   C.2       1 RES1   0.0000
    11 C11    -11.0010 -53.3034 -19.6352   C.2       1 RES1   0.0000
    12 N12    -10.7002 -52.4015 -20.7891   N.2       1 RES1   0.0000
    13 C13    -11.7216 -51.8933 -21.7126   C.2       1 RES1   0.0000
    14 N14    -13.0104 -52.2020 -21.5301   N.2       1 RES1   0.0000
    15 C15    -13.9355 -51.7441 -22.3602   C.2       1 RES1   0.0000
    16 N16    -15.3494 -52.0799 -22.1738   N.2       1 RES1   0.0000
    17 C17    -16.4298 -51.5538 -23.0286   C.2       1 RES1   0.0000
    18 C18    -17.5180 -52.3688 -23.2959   C.2       1 RES1   0.0000
    19 C19    -18.5680 -51.8989 -24.0970   C.2       1 RES1   0.0000
    20 C20    -18.5177 -50.6136 -24.6267   C.2       1 RES1   0.0000
    21 N21    -19.6376 -50.1372 -25.4763   N.pl3     1 RES1   0.0000
    22 C22    -19.5164 -49.0630 -26.4570   C.3       1 RES1   0.0000
    23 C23    -20.3807 -49.3597 -27.6578   C.3       1 RES1   0.0000
    24 N24    -21.8005 -49.5724 -27.2495   N.3       1 RES1   1.0000
    25 C25    -22.5082 -49.8235 -28.2863   C.2       1 RES1   0.0000
    26 C26    -21.8936 -50.6296 -26.1999   C.3       1 RES1   0.0000
    27 C27    -21.0125 -50.2961 -25.0220   C.3       1 RES1   0.0000
    28 C28    -17.4290 -49.7924 -24.3610   C.2       1 RES1   0.0000
    29 C29    -16.3839 -50.2636 -23.5557   C.2       1 RES1   0.0000
    30 N30    -13.6358 -50.9723 -23.3742   N.2       1 RES1   0.0000
    31 C31    -12.3833 -50.6136 -23.6278   C.2       1 RES1   0.0000
    32 C32    -11.3807 -51.0810 -22.7767   C.2       1 RES1   0.0000
    33 Cl33    -9.6968 -50.6154 -23.0938   Cl        1 RES1   0.0000
@<TRIPOS>BOND
     1     1     2    1
     2     2     3    1
     3     3     4    2
     4     3     5    1
     5     5     6    1
     6     6     7    2
     7     7     8    1
     8     8     9    2
     9     9    10    1
    10    10    11    2
    11    11    12    1
    12    12    13    1
    13    13    14    2
    14    14    15    1
    15    15    16    1
    16    16    17    1
    17    17    18    2
    18    18    19    1
    19    19    20    2
    20    20    21    1
    21    21    22    1
    22    22    23    1
    23    23    24    1
    24    24    25    1
    25    24    26    1
    26    26    27    1
    27    20    28    1
    28    28    29    2
    29    15    30    2
    30    30    31    1
    31    31    32    2
    32    32    33    1
    33    11     6    1
    34    32    13    1
    35    29    17    1
    36    27    21    1
@<TRIPOS>SUBSTRUCTURE
     1 RES1        1 GROUP             0 ****  ****    0  
@<TRIPOS>MOLECULE
ligand_61
    33    36     1     0     0
SMALL
USER_CHARGES
****
Generated from the CSD

@<TRIPOS>ATOM
     1 C1      -8.5636 -48.6150 -18.0270   C.3       1 RES1   0.0000
     2 C2      -8.0920 -50.0513 -18.2485   C.3       1 RES1   0.0000
     3 C3      -9.3166 -50.9689 -18.2194   C.2       1 RES1   0.0000
     4 O4     -10.4149 -50.5773 -17.9801   O.2       1 RES1   0.0000
     5 O5      -9.0527 -52.3325 -18.4967   O.3       1 RES1   0.0000
     6 C6     -10.1825 -53.2138 -18.4728   C.2       1 RES1   0.0000
     7 C7     -10.4282 -54.0006 -17.3456   C.2       1 RES1   0.0000
     8 C8     -11.5404 -54.8615 -17.3418   C.2       1 RES1   0.0000
     9 C9     -12.3753 -54.9162 -18.4710   C.2       1 RES1   0.0000
    10 C10    -12.1220 -54.1258 -19.6071   C.2       1 RES1   0.0000
    11 C11    -11.0098 -53.2678 -19.6105   C.2       1 RES1   0.0000
    12 N12    -10.7002 -52.4015 -20.7891   N.2       1 RES1   0.0000
    13 C13    -11.4932 -52.3939 -22.0242   C.2       1 RES1   0.0000
    14 N14    -12.5573 -53.1952 -22.1482   N.2       1 RES1   0.0000
    15 C15    -13.2766 -53.1903 -23.2605   C.2       1 RES1   0.0000
    16 N16    -14.4406 -54.0674 -23.4102   N.2       1 RES1   0.0000
    17 C17    -15.4399 -53.9163 -24.4841   C.2       1 RES1   0.0000
    18 C18    -16.7790 -54.0840 -24.1698   C.2       1 RES1   0.0000
    19 C19    -17.7574 -53.9390 -25.1631   C.2       1 RES1   0.0000
    20 C20    -17.3849 -53.6284 -26.4669   C.2       1 RES1   0.0000
    21 N21    -18.4363 -53.4840 -27.5045   N.3       1 RES1   0.0000
    22 C22    -18.4214 -52.1355 -28.1003   C.3       1 RES1   0.0000
    23 C23    -19.4727 -51.9934 -29.1719   C.3       1 RES1   0.0000
    24 N24    -20.8153 -52.2413 -28.5623   N.3       1 RES1   1.0000
    25 C25    -21.7757 -51.9929 -29.3713   C.2       1 RES1   0.0000
    26 C26    -20.8306 -53.6412 -28.0423   C.3       1 RES1   0.0000
    27 C27    -19.7707 -53.7941 -26.9768   C.3       1 RES1   0.0000
    28 C28    -16.0436 -53.4587 -26.7868   C.2       1 RES1   0.0000
    29 C29    -15.0689 -53.5992 -25.7903   C.2       1 RES1   0.0000
    30 N30    -12.9892 -52.4055 -24.2681   N.2       1 RES1   0.0000
    31 C31    -11.9536 -51.5763 -24.2294   C.2       1 RES1   0.0000
    32 C32    -11.1696 -51.5573 -23.0747   C.2       1 RES1   0.0000
    33 Cl33    -9.7784 -50.4568 -22.9975   Cl        1 RES1   0.0000
@<TRIPOS>BOND
     1     1     2    1
     2     2     3    1
     3     3     4    2
     4     3     5    1
     5     5     6    1
     6     6     7    2
     7     7     8    1
     8     8     9    2
     9     9    10    1
    10    10    11    2
    11    11    12    1
    12    12    13    1
    13    13    14    2
    14    14    15    1
    15    15    16    1
    16    16    17    1
    17    17    18    2
    18    18    19    1
    19    19    20    2
    20    20    21    1
    21    21    22    1
    22    22    23    1
    23    23    24    1
    24    24    25    1
    25    24    26    1
    26    26    27    1
    27    20    28    1
    28    28    29    2
    29    15    30    2
    30    30    31    1
    31    31    32    2
    32    32    33    1
    33    11     6    1
    34    32    13    1
    35    29    17    1
    36    27    21    1
@<TRIPOS>SUBSTRUCTURE
     1 RES1        1 GROUP             0 ****  ****    0  
@<TRIPOS>MOLECULE
ligand_62
    33    36     1     0     0
SMALL
USER_CHARGES
****
Generated from the CSD

@<TRIPOS>ATOM
     1 C1     -10.1173 -48.3892 -17.6120   C.3       1 RES1   0.0000
     2 C2      -9.2186 -49.6058 -17.8277   C.3       1 RES1   0.0000
     3 C3     -10.1105 -50.8374 -18.0005   C.2       1 RES1   0.0000
     4 O4     -11.2955 -50.8001 -17.8941   O.2       1 RES1   0.0000
     5 O5      -9.4238 -52.0403 -18.2962   O.3       1 RES1   0.0000
     6 C6     -10.2361 -53.2096 -18.4600   C.2       1 RES1   0.0000
     7 C7     -10.3658 -54.1201 -17.4092   C.2       1 RES1   0.0000
     8 C8     -11.1652 -55.2631 -17.5897   C.2       1 RES1   0.0000
     9 C9     -11.8099 -55.4676 -18.8216   C.2       1 RES1   0.0000
    10 C10    -11.6730 -54.5507 -19.8800   C.2       1 RES1   0.0000
    11 C11    -10.8729 -53.4104 -19.6992   C.2       1 RES1   0.0000
    12 N12    -10.7002 -52.4015 -20.7891   N.2       1 RES1   0.0000
    13 C13    -11.4932 -52.3939 -22.0242   C.2       1 RES1   0.0000
    14 N14    -12.5573 -53.1952 -22.1482   N.2       1 RES1   0.0000
    15 C15    -13.2766 -53.1903 -23.2605   C.2       1 RES1   0.0000
    16 N16    -14.4406 -54.0674 -23.4102   N.2       1 RES1   0.0000
    17 C17    -14.7619 -55.1594 -22.4727   C.2       1 RES1   0.0000
    18 C18    -15.2199 -56.3609 -22.9889   C.2       1 RES1   0.0000
    19 C19    -15.5266 -57.4241 -22.1283   C.2       1 RES1   0.0000
    20 C20    -15.3733 -57.2734 -20.7539   C.2       1 RES1   0.0000
    21 N21    -15.7082 -58.4100 -19.8600   N.3       1 RES1   0.0000
    22 C22    -14.5382 -58.8348 -19.0699   C.3       1 RES1   0.0000
    23 C23    -14.8814 -59.9736 -18.1431   C.3       1 RES1   0.0000
    24 N24    -15.3620 -61.1293 -18.9610   N.3       1 RES1   1.0000
    25 C25    -15.5321 -62.1886 -18.2626   C.2       1 RES1   0.0000
    26 C26    -16.5947 -60.6969 -19.6847   C.3       1 RES1   0.0000
    27 C27    -16.2605 -59.5473 -20.6060   C.3       1 RES1   0.0000
    28 C28    -14.9138 -56.0709 -20.2316   C.2       1 RES1   0.0000
    29 C29    -14.6034 -55.0122 -21.0951   C.2       1 RES1   0.0000
    30 N30    -12.9892 -52.4055 -24.2681   N.2       1 RES1   0.0000
    31 C31    -11.9536 -51.5763 -24.2294   C.2       1 RES1   0.0000
    32 C32    -11.1696 -51.5573 -23.0747   C.2       1 RES1   0.0000
    33 Cl33    -9.7784 -50.4568 -22.9975   Cl        1 RES1   0.0000
@<TRIPOS>BOND
     1     1     2    1
     2     2     3    1
     3     3     4    2
     4     3     5    1
     5     5     6    1
     6     6     7    2
     7     7     8    1
     8     8     9    2
     9     9    10    1
    10    10    11    2
    11    11    12    1
    12    12    13    1
    13    13    14    2
    14    14    15    1
    15    15    16    1
    16    16    17    1
    17    17    18    2
    18    18    19    1
    19    19    20    2
    20    20    21    1
    21    21    22    1
    22    22    23    1
    23    23    24    1
    24    24    25    1
    25    24    26    1
    26    26    27    1
    27    20    28    1
    28    28    29    2
    29    15    30    2
    30    30    31    1
    31    31    32    2
    32    32    33    1
    33    11     6    1
    34    32    13    1
    35    29    17    1
    36    27    21    1
@<TRIPOS>SUBSTRUCTURE
     1 RES1        1 GROUP             0 ****  ****    0  
@<TRIPOS>MOLECULE
ligand_63
    33    36     1     0     0
SMALL
USER_CHARGES
****
Generated from the CSD

@<TRIPOS>ATOM
     1 C1      -8.6280 -48.5909 -18.0109   C.3       1 RES1   0.0000
     2 C2      -8.1370 -50.0209 -18.2309   C.3       1 RES1   0.0000
     3 C3      -9.3500 -50.9539 -18.2099   C.2       1 RES1   0.0000
     4 O4     -10.4546 -50.5765 -17.9768   O.2       1 RES1   0.0000
     5 O5      -9.0672 -52.3138 -18.4869   O.3       1 RES1   0.0000
     6 C6     -10.1859 -53.2094 -18.4705   C.2       1 RES1   0.0000
     7 C7     -10.8015 -53.5766 -19.6690   C.2       1 RES1   0.0000
     8 C8     -11.8997 -54.4545 -19.6326   C.2       1 RES1   0.0000
     9 C9     -12.3571 -54.9376 -18.3947   C.2       1 RES1   0.0000
    10 C10    -11.7378 -54.5615 -17.1886   C.2       1 RES1   0.0000
    11 C11    -10.6421 -53.6833 -17.2260   C.2       1 RES1   0.0000
    12 N12     -9.9437 -53.2583 -15.9741   N.2       1 RES1   0.0000
    13 C13     -8.6293 -53.7660 -15.5631   C.2       1 RES1   0.0000
    14 N14     -7.9840 -54.6603 -16.3204   N.2       1 RES1   0.0000
    15 C15     -6.7969 -55.1198 -15.9539   C.2       1 RES1   0.0000
    16 N16     -6.0832 -56.1035 -16.7721   N.2       1 RES1   0.0000
    17 C17     -6.5834 -56.6004 -18.0673   C.2       1 RES1   0.0000
    18 C18     -5.9432 -57.6806 -18.6532   C.2       1 RES1   0.0000
    19 C19     -6.3967 -58.1856 -19.8797   C.2       1 RES1   0.0000
    20 C20     -7.4897 -57.6013 -20.5115   C.2       1 RES1   0.0000
    21 N21     -7.9509 -58.1484 -21.8119   N.pl3     1 RES1   0.0000
    22 C22     -9.3509 -58.2078 -22.2202   C.3       1 RES1   0.0000
    23 C23     -9.4675 -57.9587 -23.7038   C.3       1 RES1   0.0000
    24 N24     -8.6305 -58.9272 -24.4714   N.3       1 RES1   1.0000
    25 C25     -8.7475 -58.6912 -25.7241   C.2       1 RES1   0.0000
    26 C26     -7.2168 -58.8955 -23.9932   C.3       1 RES1   0.0000
    27 C27     -7.1466 -59.1442 -22.5073   C.3       1 RES1   0.0000
    28 C28     -8.1353 -56.5185 -19.9277   C.2       1 RES1   0.0000
    29 C29     -7.6824 -56.0197 -18.6994   C.2       1 RES1   0.0000
    30 N30     -6.2066 -54.7175 -14.8569   N.2       1 RES1   0.0000
    31 C31     -6.7731 -53.8303 -14.0485   C.2       1 RES1   0.0000
    32 C32     -8.0267 -53.3272 -14.4001   C.2       1 RES1   0.0000
    33 Cl33    -8.8062 -52.1388 -13.3357   Cl        1 RES1   0.0000
@<TRIPOS>BOND
     1     1     2    1
     2     2     3    1
     3     3     4    2
     4     3     5    1
     5     5     6    1
     6     6     7    2
     7     7     8    1
     8     8     9    2
     9     9    10    1
    10    10    11    2
    11    11    12    1
    12    12    13    1
    13    13    14    2
    14    14    15    1
    15    15    16    1
    16    16    17    1
    17    17    18    2
    18    18    19    1
    19    19    20    2
    20    20    21    1
    21    21    22    1
    22    22    23    1
    23    23    24    1
    24    24    25    1
    25    24    26    1
    26    26    27    1
    27    20    28    1
    28    28    29    2
    29    15    30    2
    30    30    31    1
    31    31    32    2
    32    32    33    1
    33    11     6    1
    34    32    13    1
    35    29    17    1
    36    27    21    1
@<TRIPOS>SUBSTRUCTURE
     1 RES1        1 GROUP             0 ****  ****    0  
@<TRIPOS>MOLECULE
ligand_64
    33    36     1     0     0
SMALL
USER_CHARGES
****
Generated from the CSD

@<TRIPOS>ATOM
     1 C1      -8.6279 -48.5911 -18.0109   C.3       1 RES1   0.0000
     2 C2      -8.1370 -50.0211 -18.2309   C.3       1 RES1   0.0000
     3 C3      -9.3500 -50.9541 -18.2100   C.2       1 RES1   0.0000
     4 O4     -10.4545 -50.5766 -17.9768   O.2       1 RES1   0.0000
     5 O5      -9.0673 -52.3140 -18.4869   O.3       1 RES1   0.0000
     6 C6     -10.1860 -53.2096 -18.4706   C.2       1 RES1   0.0000
     7 C7     -10.4283 -54.0005 -17.3455   C.2       1 RES1   0.0000
     8 C8     -11.5296 -54.8753 -17.3491   C.2       1 RES1   0.0000
     9 C9     -12.3570 -54.9395 -18.4832   C.2       1 RES1   0.0000
    10 C10    -12.1070 -54.1448 -19.6171   C.2       1 RES1   0.0000
    11 C11    -11.0058 -53.2728 -19.6131   C.2       1 RES1   0.0000
    12 N12    -10.7002 -52.4015 -20.7891   N.2       1 RES1   0.0000
    13 C13     -9.5834 -52.6408 -21.7109   C.2       1 RES1   0.0000
    14 N14     -8.7677 -53.6850 -21.5265   N.2       1 RES1   0.0000
    15 C15     -7.7596 -53.9055 -22.3570   C.2       1 RES1   0.0000
    16 N16     -6.8563 -55.0425 -22.1621   N.2       1 RES1   0.0000
    17 C17     -7.0286 -56.0442 -21.0937   C.2       1 RES1   0.0000
    18 C18     -6.0056 -56.9504 -20.8655   C.2       1 RES1   0.0000
    19 C19     -6.1307 -57.9110 -19.8522   C.2       1 RES1   0.0000
    20 C20     -7.2838 -57.9569 -19.0753   C.2       1 RES1   0.0000
    21 N21     -7.3980 -58.9848 -18.0108   N.pl3     1 RES1   0.0000
    22 C22     -8.0661 -58.7626 -16.7322   C.3       1 RES1   0.0000
    23 C23     -8.7677 -60.0233 -16.2899   C.3       1 RES1   0.0000
    24 N24     -7.8097 -61.1655 -16.2174   N.3       1 RES1   1.0000
    25 C25     -8.4320 -62.2195 -15.8423   C.2       1 RES1   0.0000
    26 C26     -7.0915 -61.3333 -17.5152   C.3       1 RES1   0.0000
    27 C27     -6.4094 -60.0509 -17.9213   C.3       1 RES1   0.0000
    28 C28     -8.3120 -57.0500 -19.2999   C.2       1 RES1   0.0000
    29 C29     -8.1812 -56.0881 -20.3101   C.2       1 RES1   0.0000
    30 N30     -7.5267 -53.1298 -23.3854   N.2       1 RES1   0.0000
    31 C31     -8.2875 -52.0738 -23.6455   C.2       1 RES1   0.0000
    32 C32     -9.3568 -51.8073 -22.7889   C.2       1 RES1   0.0000
    33 Cl33   -10.3902 -50.4006 -23.1149   Cl        1 RES1   0.0000
@<TRIPOS>BOND
     1     1     2    1
     2     2     3    1
     3     3     4    2
     4     3     5    1
     5     5     6    1
     6     6     7    2
     7     7     8    1
     8     8     9    2
     9     9    10    1
    10    10    11    2
    11    11    12    1
    12    12    13    1
    13    13    14    2
    14    14    15    1
    15    15    16    1
    16    16    17    1
    17    17    18    2
    18    18    19    1
    19    19    20    2
    20    20    21    1
    21    21    22    1
    22    22    23    1
    23    23    24    1
    24    24    25    1
    25    24    26    1
    26    26    27    1
    27    20    28    1
    28    28    29    2
    29    15    30    2
    30    30    31    1
    31    31    32    2
    32    32    33    1
    33    11     6    1
    34    32    13    1
    35    29    17    1
    36    27    21    1
@<TRIPOS>SUBSTRUCTURE
     1 RES1        1 GROUP             0 ****  ****    0  
@<TRIPOS>MOLECULE
ligand_65
    33    36     1     0     0
SMALL
USER_CHARGES
****
Generated from the CSD

@<TRIPOS>ATOM
     1 C1      -8.3607 -48.7542 -17.8653   C.3       1 RES1   0.0000
     2 C2      -7.9518 -50.2083 -18.0951   C.3       1 RES1   0.0000
     3 C3      -9.2206 -51.0632 -18.1369   C.2       1 RES1   0.0000
     4 O4     -10.3075 -50.6210 -17.9371   O.2       1 RES1   0.0000
     5 O5      -9.0129 -52.4333 -18.4299   O.3       1 RES1   0.0000
     6 C6     -10.1837 -53.2593 -18.4587   C.2       1 RES1   0.0000
     7 C7     -10.9774 -53.3822 -17.3164   C.2       1 RES1   0.0000
     8 C8     -12.1210 -54.1996 -17.3631   C.2       1 RES1   0.0000
     9 C9     -12.4369 -54.8781 -18.5526   C.2       1 RES1   0.0000
    10 C10    -11.6322 -54.7560 -19.7003   C.2       1 RES1   0.0000
    11 C11    -10.4892 -53.9408 -19.6519   C.2       1 RES1   0.0000
    12 N12     -9.6047 -53.7710 -20.8454   N.2       1 RES1   0.0000
    13 C13     -9.3523 -54.8311 -21.8287   C.2       1 RES1   0.0000
    14 N14     -9.9009 -56.0412 -21.6727   N.2       1 RES1   0.0000
    15 C15     -9.6770 -57.0001 -22.5586   C.2       1 RES1   0.0000
    16 N16    -10.2676 -58.3310 -22.3955   N.2       1 RES1   0.0000
    17 C17    -11.1049 -58.7135 -21.2434   C.2       1 RES1   0.0000
    18 C18    -12.1278 -59.6265 -21.4433   C.2       1 RES1   0.0000
    19 C19    -12.9381 -60.0202 -20.3694   C.2       1 RES1   0.0000
    20 C20    -12.7174 -59.4930 -19.1011   C.2       1 RES1   0.0000
    21 N21    -13.5898 -59.9197 -17.9787   N.3       1 RES1   0.0000
    22 C22    -12.8082 -60.5565 -16.9029   C.3       1 RES1   0.0000
    23 C23    -13.6887 -60.9693 -15.7505   C.3       1 RES1   0.0000
    24 N24    -14.7094 -61.9405 -16.2509   N.3       1 RES1   1.0000
    25 C25    -15.4026 -62.4554 -15.3058   C.2       1 RES1   0.0000
    26 C26    -15.5399 -61.2435 -17.2779   C.3       1 RES1   0.0000
    27 C27    -14.6615 -60.8158 -18.4300   C.3       1 RES1   0.0000
    28 C28    -11.6925 -58.5778 -18.8955   C.2       1 RES1   0.0000
    29 C29    -10.8814 -58.1905 -19.9702   C.2       1 RES1   0.0000
    30 N30     -8.9294 -56.8063 -23.6156   N.2       1 RES1   0.0000
    31 C31     -8.3490 -55.6360 -23.8508   C.2       1 RES1   0.0000
    32 C32     -8.5586 -54.6028 -22.9360   C.2       1 RES1   0.0000
    33 Cl33    -7.7935 -53.0273 -23.2277   Cl        1 RES1   0.0000
@<TRIPOS>BOND
     1     1     2    1
     2     2     3    1
     3     3     4    2
     4     3     5    1
     5     5     6    1
     6     6     7    2
     7     7     8    1
     8     8     9    2
     9     9    10    1
    10    10    11    2
    11    11    12    1
    12    12    13    1
    13    13    14    2
    14    14    15    1
    15    15    16    1
    16    16    17    1
    17    17    18    2
    18    18    19    1
    19    19    20    2
    20    20    21    1
    21    21    22    1
    22    22    23    1
    23    23    24    1
    24    24    25    1
    25    24    26    1
    26    26    27    1
    27    20    28    1
    28    28    29    2
    29    15    30    2
    30    30    31    1
    31    31    32    2
    32    32    33    1
    33    11     6    1
    34    32    13    1
    35    29    17    1
    36    27    21    1
@<TRIPOS>SUBSTRUCTURE
     1 RES1        1 GROUP             0 ****  ****    0  
@<TRIPOS>MOLECULE
ligand_66
    33    36     1     0     0
SMALL
USER_CHARGES
****
Generated from the CSD

@<TRIPOS>ATOM
     1 C1      -9.0615 -48.4557 -18.1924   C.3       1 RES1   0.0000
     2 C2      -8.4550 -49.8506 -18.3365   C.3       1 RES1   0.0000
     3 C3      -9.5928 -50.8740 -18.3124   C.2       1 RES1   0.0000
     4 O4     -10.7302 -50.5749 -18.1289   O.2       1 RES1   0.0000
     5 O5      -9.1973 -52.2176 -18.5226   O.3       1 RES1   0.0000
     6 C6     -10.2419 -53.1982 -18.4876   C.2       1 RES1   0.0000
     7 C7     -11.0073 -53.3591 -17.3308   C.2       1 RES1   0.0000
     8 C8     -12.0263 -54.3284 -17.3146   C.2       1 RES1   0.0000
     9 C9     -12.2484 -55.1163 -18.4569   C.2       1 RES1   0.0000
    10 C10    -11.4720 -54.9549 -19.6192   C.2       1 RES1   0.0000
    11 C11    -10.4533 -53.9878 -19.6336   C.2       1 RES1   0.0000
    12 N12     -9.6047 -53.7710 -20.8454   N.2       1 RES1   0.0000
    13 C13    -10.0905 -53.9401 -22.2200   C.2       1 RES1   0.0000
    14 N14    -11.3657 -54.2733 -22.4492   N.2       1 RES1   0.0000
    15 C15    -11.8087 -54.4252 -23.6883   C.2       1 RES1   0.0000
    16 N16    -13.2016 -54.7955 -23.9516   N.2       1 RES1   0.0000
    17 C17    -13.7311 -55.0610 -25.3021   C.2       1 RES1   0.0000
    18 C18    -12.9123 -55.6987 -26.2200   C.2       1 RES1   0.0000
    19 C19    -13.3851 -55.9755 -27.5103   C.2       1 RES1   0.0000
    20 C20    -14.6773 -55.6083 -27.8716   C.2       1 RES1   0.0000
    21 N21    -15.1568 -55.9065 -29.2442   N.3       1 RES1   0.0000
    22 C22    -16.3421 -56.7829 -29.2207   C.3       1 RES1   0.0000
    23 C23    -16.8461 -57.0680 -30.6130   C.3       1 RES1   0.0000
    24 N24    -15.7587 -57.7405 -31.3882   N.3       1 RES1   1.0000
    25 C25    -16.1544 -58.1521 -32.5339   C.2       1 RES1   0.0000
    26 C26    -14.6030 -56.7981 -31.4679   C.3       1 RES1   0.0000
    27 C27    -14.1010 -56.4981 -30.0751   C.3       1 RES1   0.0000
    28 C28    -15.5024 -54.9692 -26.9545   C.2       1 RES1   0.0000
    29 C29    -15.0281 -54.6988 -25.6642   C.2       1 RES1   0.0000
    30 N30    -11.0332 -54.2482 -24.7280   N.2       1 RES1   0.0000
    31 C31     -9.7560 -53.9132 -24.5930   C.2       1 RES1   0.0000
    32 C32     -9.2526 -53.7489 -23.3015   C.2       1 RES1   0.0000
    33 Cl33    -7.5472 -53.3006 -23.0935   Cl        1 RES1   0.0000
@<TRIPOS>BOND
     1     1     2    1
     2     2     3    1
     3     3     4    2
     4     3     5    1
     5     5     6    1
     6     6     7    2
     7     7     8    1
     8     8     9    2
     9     9    10    1
    10    10    11    2
    11    11    12    1
    12    12    13    1
    13    13    14    2
    14    14    15    1
    15    15    16    1
    16    16    17    1
    17    17    18    2
    18    18    19    1
    19    19    20    2
    20    20    21    1
    21    21    22    1
    22    22    23    1
    23    23    24    1
    24    24    25    1
    25    24    26    1
    26    26    27    1
    27    20    28    1
    28    28    29    2
    29    15    30    2
    30    30    31    1
    31    31    32    2
    32    32    33    1
    33    11     6    1
    34    32    13    1
    35    29    17    1
    36    27    21    1
@<TRIPOS>SUBSTRUCTURE
     1 RES1        1 GROUP             0 ****  ****    0  
@<TRIPOS>MOLECULE
ligand_67
    33    36     1     0     0
SMALL
USER_CHARGES
****
Generated from the CSD

@<TRIPOS>ATOM
     1 C1      -8.4085 -48.7048 -18.3166   C.3       1 RES1   0.0000
     2 C2      -7.9948 -50.1628 -18.5097   C.3       1 RES1   0.0000
     3 C3      -9.2425 -51.0385 -18.3720   C.2       1 RES1   0.0000
     4 O4     -10.3119 -50.6029 -18.0830   O.2       1 RES1   0.0000
     5 O5      -9.0372 -52.4193 -18.6112   O.3       1 RES1   0.0000
     6 C6     -10.1928 -53.2597 -18.5018   C.2       1 RES1   0.0000
     7 C7     -11.3041 -53.0247 -19.3141   C.2       1 RES1   0.0000
     8 C8     -12.4300 -53.8585 -19.1904   C.2       1 RES1   0.0000
     9 C9     -12.4157 -54.9036 -18.2509   C.2       1 RES1   0.0000
    10 C10    -11.2962 -55.1344 -17.4304   C.2       1 RES1   0.0000
    11 C11    -10.1730 -54.2999 -17.5535   C.2       1 RES1   0.0000
    12 N12     -8.9551 -54.5067 -16.7112   N.2       1 RES1   0.0000
    13 C13     -8.4951 -55.8237 -16.2551   C.2       1 RES1   0.0000
    14 N14     -9.1524 -56.9312 -16.6173   N.2       1 RES1   0.0000
    15 C15     -8.7396 -58.1218 -16.2093   C.2       1 RES1   0.0000
    16 N16     -9.4546 -59.3412 -16.5947   N.2       1 RES1   0.0000
    17 C17     -9.0943 -60.6845 -16.1046   C.2       1 RES1   0.0000
    18 C18     -8.6492 -60.8148 -14.7989   C.2       1 RES1   0.0000
    19 C19     -8.3065 -62.0776 -14.2959   C.2       1 RES1   0.0000
    20 C20     -8.4111 -63.2020 -15.1082   C.2       1 RES1   0.0000
    21 N21     -8.0387 -64.5291 -14.5576   N.3       1 RES1   0.0000
    22 C22     -9.1774 -65.4648 -14.5945   C.3       1 RES1   0.0000
    23 C23     -8.7954 -66.8213 -14.0580   C.3       1 RES1   0.0000
    24 N24     -8.3388 -66.6659 -12.6428   N.3       1 RES1   1.0000
    25 C25     -8.1384 -67.7905 -12.0649   C.2       1 RES1   0.0000
    26 C26     -7.1350 -65.7821 -12.6444   C.3       1 RES1   0.0000
    27 C27     -7.5078 -64.4248 -13.1928   C.3       1 RES1   0.0000
    28 C28     -8.8575 -63.0767 -16.4178   C.2       1 RES1   0.0000
    29 C29     -9.2041 -61.8137 -16.9155   C.2       1 RES1   0.0000
    30 N30     -7.6802 -58.2666 -15.4541   N.2       1 RES1   0.0000
    31 C31     -6.9666 -57.2227 -15.0509   C.2       1 RES1   0.0000
    32 C32     -7.3745 -55.9513 -15.4575   C.2       1 RES1   0.0000
    33 Cl33    -6.4369 -54.5380 -14.9318   Cl        1 RES1   0.0000
@<TRIPOS>BOND
     1     1     2    1
     2     2     3    1
     3     3     4    2
     4     3     5    1
     5     5     6    1
     6     6     7    2
     7     7     8    1
     8     8     9    2
     9     9    10    1
    10    10    11    2
    11    11    12    1
    12    12    13    1
    13    13    14    2
    14    14    15    1
    15    15    16    1
    16    16    17    1
    17    17    18    2
    18    18    19    1
    19    19    20    2
    20    20    21    1
    21    21    22    1
    22    22    23    1
    23    23    24    1
    24    24    25    1
    25    24    26    1
    26    26    27    1
    27    20    28    1
    28    28    29    2
    29    15    30    2
    30    30    31    1
    31    31    32    2
    32    32    33    1
    33    11     6    1
    34    32    13    1
    35    29    17    1
    36    27    21    1
@<TRIPOS>SUBSTRUCTURE
     1 RES1        1 GROUP             0 ****  ****    0  
@<TRIPOS>MOLECULE
ligand_68
    33    36     1     0     0
SMALL
USER_CHARGES
****
Generated from the CSD

@<TRIPOS>ATOM
     1 C1      -9.0604 -48.4556 -18.1916   C.3       1 RES1   0.0000
     2 C2      -8.4543 -49.8505 -18.3366   C.3       1 RES1   0.0000
     3 C3      -9.5922 -50.8737 -18.3119   C.2       1 RES1   0.0000
     4 O4     -10.7294 -50.5746 -18.1274   O.2       1 RES1   0.0000
     5 O5      -9.1971 -52.2174 -18.5228   O.3       1 RES1   0.0000
     6 C6     -10.2419 -53.1977 -18.4878   C.2       1 RES1   0.0000
     7 C7     -11.0074 -53.3583 -17.3309   C.2       1 RES1   0.0000
     8 C8     -12.0265 -54.3275 -17.3146   C.2       1 RES1   0.0000
     9 C9     -12.2488 -55.1154 -18.4569   C.2       1 RES1   0.0000
    10 C10    -11.4723 -54.9544 -19.6191   C.2       1 RES1   0.0000
    11 C11    -10.4534 -53.9874 -19.6336   C.2       1 RES1   0.0000
    12 N12     -9.6047 -53.7710 -20.8454   N.2       1 RES1   0.0000
    13 C13    -10.0905 -53.9401 -22.2200   C.2       1 RES1   0.0000
    14 N14    -11.3657 -54.2733 -22.4492   N.2       1 RES1   0.0000
    15 C15    -11.8087 -54.4252 -23.6883   C.2       1 RES1   0.0000
    16 N16    -13.2016 -54.7955 -23.9516   N.2       1 RES1   0.0000
    17 C17    -13.7671 -54.9216 -25.3077   C.2       1 RES1   0.0000
    18 C18    -14.7322 -55.8896 -25.5344   C.2       1 RES1   0.0000
    19 C19    -15.2987 -56.0323 -26.8087   C.2       1 RES1   0.0000
    20 C20    -14.8909 -55.2029 -27.8484   C.2       1 RES1   0.0000
    21 N21    -15.4999 -55.3737 -29.1911   N.3       1 RES1   0.0000
    22 C22    -15.2483 -56.7239 -29.7273   C.3       1 RES1   0.0000
    23 C23    -15.8865 -56.9084 -31.0810   C.3       1 RES1   0.0000
    24 N24    -15.3155 -55.8967 -32.0222   N.3       1 RES1   1.0000
    25 C25    -15.6938 -56.0817 -33.2311   C.2       1 RES1   0.0000
    26 C26    -15.6576 -54.5403 -31.4992   C.3       1 RES1   0.0000
    27 C27    -15.0317 -54.3534 -30.1371   C.3       1 RES1   0.0000
    28 C28    -13.9240 -54.2304 -27.6259   C.2       1 RES1   0.0000
    29 C29    -13.3639 -54.0873 -26.3497   C.2       1 RES1   0.0000
    30 N30    -11.0332 -54.2482 -24.7280   N.2       1 RES1   0.0000
    31 C31     -9.7560 -53.9132 -24.5930   C.2       1 RES1   0.0000
    32 C32     -9.2526 -53.7489 -23.3015   C.2       1 RES1   0.0000
    33 Cl33    -7.5472 -53.3006 -23.0935   Cl        1 RES1   0.0000
@<TRIPOS>BOND
     1     1     2    1
     2     2     3    1
     3     3     4    2
     4     3     5    1
     5     5     6    1
     6     6     7    2
     7     7     8    1
     8     8     9    2
     9     9    10    1
    10    10    11    2
    11    11    12    1
    12    12    13    1
    13    13    14    2
    14    14    15    1
    15    15    16    1
    16    16    17    1
    17    17    18    2
    18    18    19    1
    19    19    20    2
    20    20    21    1
    21    21    22    1
    22    22    23    1
    23    23    24    1
    24    24    25    1
    25    24    26    1
    26    26    27    1
    27    20    28    1
    28    28    29    2
    29    15    30    2
    30    30    31    1
    31    31    32    2
    32    32    33    1
    33    11     6    1
    34    32    13    1
    35    29    17    1
    36    27    21    1
@<TRIPOS>SUBSTRUCTURE
     1 RES1        1 GROUP             0 ****  ****    0  
@<TRIPOS>MOLECULE
ligand_69
    33    36     1     0     0
SMALL
USER_CHARGES
****
Generated from the CSD

@<TRIPOS>ATOM
     1 C1      -8.3120 -48.7563 -18.0430   C.3       1 RES1   0.0000
     2 C2      -7.9230 -50.2144 -18.2822   C.3       1 RES1   0.0000
     3 C3      -9.1948 -51.0646 -18.2364   C.2       1 RES1   0.0000
     4 O4     -10.2657 -50.6160 -17.9744   O.2       1 RES1   0.0000
     5 O5      -9.0102 -52.4384 -18.5271   O.3       1 RES1   0.0000
     6 C6     -10.1855 -53.2575 -18.4879   C.2       1 RES1   0.0000
     7 C7     -10.4530 -54.0381 -17.3613   C.2       1 RES1   0.0000
     8 C8     -11.6100 -54.8376 -17.3425   C.2       1 RES1   0.0000
     9 C9     -12.4669 -54.8389 -18.4564   C.2       1 RES1   0.0000
    10 C10    -12.1917 -54.0551 -19.5920   C.2       1 RES1   0.0000
    11 C11    -11.0349 -53.2584 -19.6104   C.2       1 RES1   0.0000
    12 N12    -10.7002 -52.4015 -20.7891   N.2       1 RES1   0.0000
    13 C13    -11.0078 -52.7694 -22.1763   C.2       1 RES1   0.0000
    14 N14    -11.5941 -53.9404 -22.4501   N.2       1 RES1   0.0000
    15 C15    -11.8749 -54.2756 -23.7004   C.2       1 RES1   0.0000
    16 N16    -12.5117 -55.5575 -24.0131   N.2       1 RES1   0.0000
    17 C17    -12.9013 -55.9608 -25.3770   C.2       1 RES1   0.0000
    18 C18    -12.8051 -57.2988 -25.7240   C.2       1 RES1   0.0000
    19 C19    -13.1754 -57.7199 -27.0087   C.2       1 RES1   0.0000
    20 C20    -13.6383 -56.7941 -27.9381   C.2       1 RES1   0.0000
    21 N21    -14.0206 -57.2603 -29.2944   N.3       1 RES1   0.0000
    22 C22    -14.6349 -56.1758 -30.0819   C.3       1 RES1   0.0000
    23 C23    -15.0025 -56.6399 -31.4687   C.3       1 RES1   0.0000
    24 N24    -15.9753 -57.7695 -31.3542   N.3       1 RES1   1.0000
    25 C25    -16.4533 -58.1232 -32.4878   C.2       1 RES1   0.0000
    26 C26    -15.2987 -58.8845 -30.6267   C.3       1 RES1   0.0000
    27 C27    -14.9163 -58.4222 -29.2403   C.3       1 RES1   0.0000
    28 C28    -13.7371 -55.4516 -27.5947   C.2       1 RES1   0.0000
    29 C29    -13.3711 -55.0351 -26.3081   C.2       1 RES1   0.0000
    30 N30    -11.6053 -53.4837 -24.7073   N.2       1 RES1   0.0000
    31 C31    -11.0276 -52.3024 -24.5268   C.2       1 RES1   0.0000
    32 C32    -10.7127 -51.9173 -23.2227   C.2       1 RES1   0.0000
    33 Cl33    -9.9395 -50.3416 -22.9540   Cl        1 RES1   0.0000
@<TRIPOS>BOND
     1     1     2    1
     2     2     3    1
     3     3     4    2
     4     3     5    1
     5     5     6    1
     6     6     7    2
     7     7     8    1
     8     8     9    2
     9     9    10    1
    10    10    11    2
    11    11    12    1
    12    12    13    1
    13    13    14    2
    14    14    15    1
    15    15    16    1
    16    16    17    1
    17    17    18    2
    18    18    19    1
    19    19    20    2
    20    20    21    1
    21    21    22    1
    22    22    23    1
    23    23    24    1
    24    24    25    1
    25    24    26    1
    26    26    27    1
    27    20    28    1
    28    28    29    2
    29    15    30    2
    30    30    31    1
    31    31    32    2
    32    32    33    1
    33    11     6    1
    34    32    13    1
    35    29    17    1
    36    27    21    1
@<TRIPOS>SUBSTRUCTURE
     1 RES1        1 GROUP             0 ****  ****    0  
@<TRIPOS>MOLECULE
ligand_70
    33    36     1     0     0
SMALL
USER_CHARGES
****
Generated from the CSD

@<TRIPOS>ATOM
     1 C1      -8.5833 -48.6055 -18.0428   C.3       1 RES1   0.0000
     2 C2      -8.1041 -50.0442 -18.2294   C.3       1 RES1   0.0000
     3 C3      -9.3286 -50.9622 -18.2300   C.2       1 RES1   0.0000
     4 O4     -10.4345 -50.5684 -18.0332   O.2       1 RES1   0.0000
     5 O5      -9.0551 -52.3291 -18.4804   O.3       1 RES1   0.0000
     6 C6     -10.1830 -53.2132 -18.4689   C.2       1 RES1   0.0000
     7 C7     -10.9571 -53.3392 -17.3136   C.2       1 RES1   0.0000
     8 C8     -12.0585 -54.2139 -17.3206   C.2       1 RES1   0.0000
     9 C9     -12.3526 -54.9448 -18.4843   C.2       1 RES1   0.0000
    10 C10    -11.5675 -54.8192 -19.6451   C.2       1 RES1   0.0000
    11 C11    -10.4666 -53.9468 -19.6364   C.2       1 RES1   0.0000
    12 N12     -9.6047 -53.7710 -20.8454   N.2       1 RES1   0.0000
    13 C13     -9.8118 -54.4958 -22.1048   C.2       1 RES1   0.0000
    14 N14    -10.8126 -55.3759 -22.2206   N.2       1 RES1   0.0000
    15 C15    -11.0040 -56.0309 -23.3559   C.2       1 RES1   0.0000
    16 N16    -12.0931 -57.0013 -23.4928   N.2       1 RES1   0.0000
    17 C17    -13.0397 -57.3198 -22.4079   C.2       1 RES1   0.0000
    18 C18    -14.3919 -57.1117 -22.6275   C.2       1 RES1   0.0000
    19 C19    -15.3214 -57.4118 -21.6221   C.2       1 RES1   0.0000
    20 C20    -14.8871 -57.9174 -20.4011   C.2       1 RES1   0.0000
    21 N21    -15.8874 -58.2241 -19.3483   N.pl3     1 RES1   0.0000
    22 C22    -17.1191 -57.4667 -19.1496   C.3       1 RES1   0.0000
    23 C23    -18.2315 -58.3923 -18.7219   C.3       1 RES1   0.0000
    24 N24    -17.8486 -59.1494 -17.4939   N.3       1 RES1   1.0000
    25 C25    -18.8086 -59.9261 -17.1564   C.2       1 RES1   0.0000
    26 C26    -16.5540 -59.8637 -17.6983   C.3       1 RES1   0.0000
    27 C27    -15.4730 -58.9040 -18.1285   C.3       1 RES1   0.0000
    28 C28    -13.5324 -58.1284 -20.1763   C.2       1 RES1   0.0000
    29 C29    -12.6067 -57.8322 -21.1853   C.2       1 RES1   0.0000
    30 N30    -10.2409 -55.8410 -24.4025   N.2       1 RES1   0.0000
    31 C31     -9.2275 -54.9844 -24.3771   C.2       1 RES1   0.0000
    32 C32     -8.9924 -54.2793 -23.1956   C.2       1 RES1   0.0000
    33 Cl33    -7.6428 -53.1269 -23.1356   Cl        1 RES1   0.0000
@<TRIPOS>BOND
     1     1     2    1
     2     2     3    1
     3     3     4    2
     4     3     5    1
     5     5     6    1
     6     6     7    2
     7     7     8    1
     8     8     9    2
     9     9    10    1
    10    10    11    2
    11    11    12    1
    12    12    13    1
    13    13    14    2
    14    14    15    1
    15    15    16    1
    16    16    17    1
    17    17    18    2
    18    18    19    1
    19    19    20    2
    20    20    21    1
    21    21    22    1
    22    22    23    1
    23    23    24    1
    24    24    25    1
    25    24    26    1
    26    26    27    1
    27    20    28    1
    28    28    29    2
    29    15    30    2
    30    30    31    1
    31    31    32    2
    32    32    33    1
    33    11     6    1
    34    32    13    1
    35    29    17    1
    36    27    21    1
@<TRIPOS>SUBSTRUCTURE
     1 RES1        1 GROUP             0 ****  ****    0  
@<TRIPOS>MOLECULE
ligand_71
    33    36     1     0     0
SMALL
USER_CHARGES
****
Generated from the CSD

@<TRIPOS>ATOM
     1 C1      -8.6059 -48.5975 -18.0488   C.3       1 RES1   0.0000
     2 C2      -8.1195 -50.0339 -18.2351   C.3       1 RES1   0.0000
     3 C3      -9.3393 -50.9582 -18.2329   C.2       1 RES1   0.0000
     4 O4     -10.4469 -50.5699 -18.0347   O.2       1 RES1   0.0000
     5 O5      -9.0591 -52.3239 -18.4827   O.3       1 RES1   0.0000
     6 C6     -10.1824 -53.2138 -18.4687   C.2       1 RES1   0.0000
     7 C7     -10.9543 -53.3426 -17.3121   C.2       1 RES1   0.0000
     8 C8     -12.0512 -54.2229 -17.3167   C.2       1 RES1   0.0000
     9 C9     -12.3432 -54.9566 -18.4792   C.2       1 RES1   0.0000
    10 C10    -11.5604 -54.8281 -19.6413   C.2       1 RES1   0.0000
    11 C11    -10.4640 -53.9500 -19.6350   C.2       1 RES1   0.0000
    12 N12     -9.6047 -53.7710 -20.8454   N.2       1 RES1   0.0000
    13 C13     -9.8118 -54.4958 -22.1048   C.2       1 RES1   0.0000
    14 N14    -10.8126 -55.3759 -22.2206   N.2       1 RES1   0.0000
    15 C15    -11.0040 -56.0309 -23.3559   C.2       1 RES1   0.0000
    16 N16    -12.0931 -57.0013 -23.4928   N.2       1 RES1   0.0000
    17 C17    -13.0425 -57.3165 -22.4093   C.2       1 RES1   0.0000
    18 C18    -13.8135 -56.2908 -21.8863   C.2       1 RES1   0.0000
    19 C19    -14.7330 -56.5551 -20.8618   C.2       1 RES1   0.0000
    20 C20    -14.8712 -57.8479 -20.3672   C.2       1 RES1   0.0000
    21 N21    -15.8472 -58.1054 -19.2790   N.pl3     1 RES1   0.0000
    22 C22    -16.6271 -59.3331 -19.1578   C.3       1 RES1   0.0000
    23 C23    -16.8023 -59.6925 -17.7028   C.3       1 RES1   0.0000
    24 N24    -17.4306 -58.5668 -16.9506   N.3       1 RES1   1.0000
    25 C25    -17.5648 -58.8988 -15.7216   C.2       1 RES1   0.0000
    26 C26    -16.6525 -57.3073 -17.1413   C.3       1 RES1   0.0000
    27 C27    -16.4976 -56.9883 -18.6072   C.3       1 RES1   0.0000
    28 C28    -14.1010 -58.8798 -20.8888   C.2       1 RES1   0.0000
    29 C29    -13.1867 -58.6128 -21.9162   C.2       1 RES1   0.0000
    30 N30    -10.2409 -55.8410 -24.4025   N.2       1 RES1   0.0000
    31 C31     -9.2275 -54.9844 -24.3771   C.2       1 RES1   0.0000
    32 C32     -8.9924 -54.2793 -23.1956   C.2       1 RES1   0.0000
    33 Cl33    -7.6428 -53.1269 -23.1356   Cl        1 RES1   0.0000
@<TRIPOS>BOND
     1     1     2    1
     2     2     3    1
     3     3     4    2
     4     3     5    1
     5     5     6    1
     6     6     7    2
     7     7     8    1
     8     8     9    2
     9     9    10    1
    10    10    11    2
    11    11    12    1
    12    12    13    1
    13    13    14    2
    14    14    15    1
    15    15    16    1
    16    16    17    1
    17    17    18    2
    18    18    19    1
    19    19    20    2
    20    20    21    1
    21    21    22    1
    22    22    23    1
    23    23    24    1
    24    24    25    1
    25    24    26    1
    26    26    27    1
    27    20    28    1
    28    28    29    2
    29    15    30    2
    30    30    31    1
    31    31    32    2
    32    32    33    1
    33    11     6    1
    34    32    13    1
    35    29    17    1
    36    27    21    1
@<TRIPOS>SUBSTRUCTURE
     1 RES1        1 GROUP             0 ****  ****    0  
@<TRIPOS>MOLECULE
ligand_72
    33    36     1     0     0
SMALL
USER_CHARGES
****
Generated from the CSD

@<TRIPOS>ATOM
     1 C1      -8.8787 -48.5469 -17.7134   C.3       1 RES1   0.0000
     2 C2      -8.3131 -49.9338 -18.0150   C.3       1 RES1   0.0000
     3 C3      -9.4751 -50.9292 -18.0509   C.2       1 RES1   0.0000
     4 O4     -10.5978 -50.6248 -17.7985   O.2       1 RES1   0.0000
     5 O5      -9.1211 -52.2539 -18.4057   O.3       1 RES1   0.0000
     6 C6     -10.1936 -53.2030 -18.4603   C.2       1 RES1   0.0000
     7 C7     -11.2691 -52.9893 -19.3250   C.2       1 RES1   0.0000
     8 C8     -12.3135 -53.9305 -19.3627   C.2       1 RES1   0.0000
     9 C9     -12.2562 -55.0596 -18.5279   C.2       1 RES1   0.0000
    10 C10    -11.1735 -55.2693 -17.6542   C.2       1 RES1   0.0000
    11 C11    -10.1318 -54.3276 -17.6161   C.2       1 RES1   0.0000
    12 N12     -8.9551 -54.5067 -16.7112   N.2       1 RES1   0.0000
    13 C13     -8.8233 -55.6141 -15.7570   C.2       1 RES1   0.0000
    14 N14     -9.8038 -56.5153 -15.6289   N.2       1 RES1   0.0000
    15 C15     -9.6882 -57.5172 -14.7702   C.2       1 RES1   0.0000
    16 N16    -10.7576 -58.5069 -14.6171   N.2       1 RES1   0.0000
    17 C17    -12.1331 -58.3003 -15.1068   C.2       1 RES1   0.0000
    18 C18    -12.8687 -59.4069 -15.4993   C.2       1 RES1   0.0000
    19 C19    -14.1827 -59.2495 -15.9615   C.2       1 RES1   0.0000
    20 C20    -14.7495 -57.9808 -16.0286   C.2       1 RES1   0.0000
    21 N21    -16.1406 -57.8356 -16.5254   N.pl3     1 RES1   0.0000
    22 C22    -16.7308 -58.6854 -17.5549   C.3       1 RES1   0.0000
    23 C23    -18.1904 -58.9228 -17.2546   C.3       1 RES1   0.0000
    24 N24    -18.9224 -57.6284 -17.1254   N.3       1 RES1   1.0000
    25 C25    -20.1550 -57.8605 -16.8694   C.2       1 RES1   0.0000
    26 C26    -18.2637 -56.7500 -16.1141   C.3       1 RES1   0.0000
    27 C27    -16.8078 -56.5429 -16.4494   C.3       1 RES1   0.0000
    28 C28    -14.0162 -56.8682 -15.6356   C.2       1 RES1   0.0000
    29 C29    -12.7050 -57.0300 -15.1693   C.2       1 RES1   0.0000
    30 N30     -8.6213 -57.6740 -14.0280   N.2       1 RES1   0.0000
    31 C31     -7.5996 -56.8293 -14.0928   C.2       1 RES1   0.0000
    32 C32     -7.6880 -55.7582 -14.9834   C.2       1 RES1   0.0000
    33 Cl33    -6.3345 -54.6137 -15.0895   Cl        1 RES1   0.0000
@<TRIPOS>BOND
     1     1     2    1
     2     2     3    1
     3     3     4    2
     4     3     5    1
     5     5     6    1
     6     6     7    2
     7     7     8    1
     8     8     9    2
     9     9    10    1
    10    10    11    2
    11    11    12    1
    12    12    13    1
    13    13    14    2
    14    14    15    1
    15    15    16    1
    16    16    17    1
    17    17    18    2
    18    18    19    1
    19    19    20    2
    20    20    21    1
    21    21    22    1
    22    22    23    1
    23    23    24    1
    24    24    25    1
    25    24    26    1
    26    26    27    1
    27    20    28    1
    28    28    29    2
    29    15    30    2
    30    30    31    1
    31    31    32    2
    32    32    33    1
    33    11     6    1
    34    32    13    1
    35    29    17    1
    36    27    21    1
@<TRIPOS>SUBSTRUCTURE
     1 RES1        1 GROUP             0 ****  ****    0  
@<TRIPOS>MOLECULE
ligand_73
    33    36     1     0     0
SMALL
USER_CHARGES
****
Generated from the CSD

@<TRIPOS>ATOM
     1 C1      -9.0778 -48.5166 -17.5041   C.3       1 RES1   0.0000
     2 C2      -8.4711 -49.8731 -17.8593   C.3       1 RES1   0.0000
     3 C3      -9.6011 -50.9036 -17.9201   C.2       1 RES1   0.0000
     4 O4     -10.7304 -50.6446 -17.6474   O.2       1 RES1   0.0000
     5 O5      -9.2085 -52.2030 -18.3245   O.3       1 RES1   0.0000
     6 C6     -10.2507 -53.1836 -18.4035   C.2       1 RES1   0.0000
     7 C7     -11.3404 -52.9747 -19.2514   C.2       1 RES1   0.0000
     8 C8     -12.3547 -53.9472 -19.3134   C.2       1 RES1   0.0000
     9 C9     -12.2537 -55.1021 -18.5191   C.2       1 RES1   0.0000
    10 C10    -11.1568 -55.3070 -17.6621   C.2       1 RES1   0.0000
    11 C11    -10.1453 -54.3343 -17.5996   C.2       1 RES1   0.0000
    12 N12     -8.9551 -54.5067 -16.7112   N.2       1 RES1   0.0000
    13 C13     -9.0125 -55.1375 -15.3871   C.2       1 RES1   0.0000
    14 N14    -10.1791 -55.5694 -14.8950   N.2       1 RES1   0.0000
    15 C15    -10.2350 -56.1408 -13.7013   C.2       1 RES1   0.0000
    16 N16    -11.5076 -56.6127 -13.1495   N.2       1 RES1   0.0000
    17 C17    -12.7770 -56.5916 -13.8997   C.2       1 RES1   0.0000
    18 C18    -13.9271 -56.1856 -13.2423   C.2       1 RES1   0.0000
    19 C19    -15.1501 -56.1444 -13.9261   C.2       1 RES1   0.0000
    20 C20    -15.2109 -56.5132 -15.2661   C.2       1 RES1   0.0000
    21 N21    -16.5166 -56.4669 -15.9703   N.3       1 RES1   0.0000
    22 C22    -16.4735 -55.5474 -17.1220   C.3       1 RES1   0.0000
    23 C23    -17.7915 -55.5166 -17.8539   C.3       1 RES1   0.0000
    24 N24    -18.8552 -55.0612 -16.9071   N.3       1 RES1   1.0000
    25 C25    -19.9785 -54.8634 -17.4883   C.2       1 RES1   0.0000
    26 C26    -18.9345 -56.0549 -15.7951   C.3       1 RES1   0.0000
    27 C27    -17.6127 -56.1001 -15.0652   C.3       1 RES1   0.0000
    28 C28    -14.0603 -56.9203 -15.9298   C.2       1 RES1   0.0000
    29 C29    -12.8389 -56.9553 -15.2445   C.2       1 RES1   0.0000
    30 N30     -9.1662 -56.3153 -12.9659   N.2       1 RES1   0.0000
    31 C31     -7.9677 -55.9204 -13.3774   C.2       1 RES1   0.0000
    32 C32     -7.8708 -55.3098 -14.6288   C.2       1 RES1   0.0000
    33 Cl33    -6.2787 -54.7724 -15.2028   Cl        1 RES1   0.0000
@<TRIPOS>BOND
     1     1     2    1
     2     2     3    1
     3     3     4    2
     4     3     5    1
     5     5     6    1
     6     6     7    2
     7     7     8    1
     8     8     9    2
     9     9    10    1
    10    10    11    2
    11    11    12    1
    12    12    13    1
    13    13    14    2
    14    14    15    1
    15    15    16    1
    16    16    17    1
    17    17    18    2
    18    18    19    1
    19    19    20    2
    20    20    21    1
    21    21    22    1
    22    22    23    1
    23    23    24    1
    24    24    25    1
    25    24    26    1
    26    26    27    1
    27    20    28    1
    28    28    29    2
    29    15    30    2
    30    30    31    1
    31    31    32    2
    32    32    33    1
    33    11     6    1
    34    32    13    1
    35    29    17    1
    36    27    21    1
@<TRIPOS>SUBSTRUCTURE
     1 RES1        1 GROUP             0 ****  ****    0  
@<TRIPOS>MOLECULE
ligand_74
    33    36     1     0     0
SMALL
USER_CHARGES
****
Generated from the CSD

@<TRIPOS>ATOM
     1 C1      -9.2466 -48.3821 -18.3134   C.3       1 RES1   0.0000
     2 C2      -8.5953 -49.7600 -18.4211   C.3       1 RES1   0.0000
     3 C3      -9.7003 -50.8182 -18.3803   C.2       1 RES1   0.0000
     4 O4     -10.8479 -50.5513 -18.2110   O.2       1 RES1   0.0000
     5 O5      -9.2611 -52.1531 -18.5566   O.3       1 RES1   0.0000
     6 C6     -10.2743 -53.1653 -18.5049   C.2       1 RES1   0.0000
     7 C7     -11.0414 -53.3242 -17.3489   C.2       1 RES1   0.0000
     8 C8     -12.0292 -54.3248 -17.3160   C.2       1 RES1   0.0000
     9 C9     -12.2192 -55.1450 -18.4413   C.2       1 RES1   0.0000
    10 C10    -11.4412 -54.9855 -19.6026   C.2       1 RES1   0.0000
    11 C11    -10.4535 -53.9871 -19.6337   C.2       1 RES1   0.0000
    12 N12     -9.6047 -53.7710 -20.8454   N.2       1 RES1   0.0000
    13 C13    -10.0905 -53.9401 -22.2200   C.2       1 RES1   0.0000
    14 N14    -11.3657 -54.2733 -22.4492   N.2       1 RES1   0.0000
    15 C15    -11.8087 -54.4252 -23.6883   C.2       1 RES1   0.0000
    16 N16    -13.2016 -54.7955 -23.9516   N.2       1 RES1   0.0000
    17 C17    -14.1687 -55.1303 -22.8899   C.2       1 RES1   0.0000
    18 C18    -13.7490 -55.9347 -21.8426   C.2       1 RES1   0.0000
    19 C19    -14.6384 -56.2662 -20.8110   C.2       1 RES1   0.0000
    20 C20    -15.9449 -55.7892 -20.8385   C.2       1 RES1   0.0000
    21 N21    -16.8718 -56.1559 -19.7388   N.3       1 RES1   0.0000
    22 C22    -17.0560 -57.6163 -19.6559   C.3       1 RES1   0.0000
    23 C23    -17.9783 -57.9934 -18.5241   C.3       1 RES1   0.0000
    24 N24    -19.3072 -57.3474 -18.7530   N.3       1 RES1   1.0000
    25 C25    -20.1939 -57.7378 -17.9163   C.2       1 RES1   0.0000
    26 C26    -19.1039 -55.8679 -18.7482   C.3       1 RES1   0.0000
    27 C27    -18.1704 -55.4844 -19.8723   C.3       1 RES1   0.0000
    28 C28    -16.3702 -54.9818 -21.8860   C.2       1 RES1   0.0000
    29 C29    -15.4770 -54.6484 -22.9126   C.2       1 RES1   0.0000
    30 N30    -11.0332 -54.2482 -24.7280   N.2       1 RES1   0.0000
    31 C31     -9.7560 -53.9132 -24.5930   C.2       1 RES1   0.0000
    32 C32     -9.2526 -53.7489 -23.3015   C.2       1 RES1   0.0000
    33 Cl33    -7.5472 -53.3006 -23.0935   Cl        1 RES1   0.0000
@<TRIPOS>BOND
     1     1     2    1
     2     2     3    1
     3     3     4    2
     4     3     5    1
     5     5     6    1
     6     6     7    2
     7     7     8    1
     8     8     9    2
     9     9    10    1
    10    10    11    2
    11    11    12    1
    12    12    13    1
    13    13    14    2
    14    14    15    1
    15    15    16    1
    16    16    17    1
    17    17    18    2
    18    18    19    1
    19    19    20    2
    20    20    21    1
    21    21    22    1
    22    22    23    1
    23    23    24    1
    24    24    25    1
    25    24    26    1
    26    26    27    1
    27    20    28    1
    28    28    29    2
    29    15    30    2
    30    30    31    1
    31    31    32    2
    32    32    33    1
    33    11     6    1
    34    32    13    1
    35    29    17    1
    36    27    21    1
@<TRIPOS>SUBSTRUCTURE
     1 RES1        1 GROUP             0 ****  ****    0  
@<TRIPOS>MOLECULE
ligand_75
    33    36     1     0     0
SMALL
USER_CHARGES
****
Generated from the CSD

@<TRIPOS>ATOM
     1 C1      -8.9316 -48.5432 -17.7002   C.3       1 RES1   0.0000
     2 C2      -8.3611 -49.9260 -18.0116   C.3       1 RES1   0.0000
     3 C3      -9.5173 -50.9285 -18.0349   C.2       1 RES1   0.0000
     4 O4     -10.6386 -50.6316 -17.7680   O.2       1 RES1   0.0000
     5 O5      -9.1595 -52.2503 -18.3967   O.3       1 RES1   0.0000
     6 C6     -10.2265 -53.2062 -18.4390   C.2       1 RES1   0.0000
     7 C7     -11.3154 -52.9970 -19.2878   C.2       1 RES1   0.0000
     8 C8     -12.3542 -53.9449 -19.3135   C.2       1 RES1   0.0000
     9 C9     -12.2779 -55.0759 -18.4828   C.2       1 RES1   0.0000
    10 C10    -11.1816 -55.2810 -17.6250   C.2       1 RES1   0.0000
    11 C11    -10.1456 -54.3327 -17.5989   C.2       1 RES1   0.0000
    12 N12     -8.9551 -54.5067 -16.7112   N.2       1 RES1   0.0000
    13 C13     -9.0125 -55.1375 -15.3871   C.2       1 RES1   0.0000
    14 N14    -10.1791 -55.5694 -14.8950   N.2       1 RES1   0.0000
    15 C15    -10.2350 -56.1408 -13.7013   C.2       1 RES1   0.0000
    16 N16    -11.5076 -56.6127 -13.1495   N.2       1 RES1   0.0000
    17 C17    -11.6249 -57.3046 -11.8525   C.2       1 RES1   0.0000
    18 C18    -10.6557 -58.2330 -11.5081   C.2       1 RES1   0.0000
    19 C19    -10.7300 -58.9035 -10.2793   C.2       1 RES1   0.0000
    20 C20    -11.7786 -58.6388  -9.4044   C.2       1 RES1   0.0000
    21 N21    -11.8410 -59.3631  -8.1104   N.3       1 RES1   0.0000
    22 C22    -11.7994 -58.4298  -6.9698   C.3       1 RES1   0.0000
    23 C23    -11.8870 -59.1612  -5.6541   C.3       1 RES1   0.0000
    24 N24    -10.7324 -60.1057  -5.5526   N.3       1 RES1   1.0000
    25 C25    -10.6485 -60.6573  -4.4005   C.2       1 RES1   0.0000
    26 C26    -10.8465 -61.0901  -6.6699   C.3       1 RES1   0.0000
    27 C27    -10.7721 -60.3623  -7.9915   C.3       1 RES1   0.0000
    28 C28    -12.7524 -57.7083  -9.7449   C.2       1 RES1   0.0000
    29 C29    -12.6721 -57.0364 -10.9716   C.2       1 RES1   0.0000
    30 N30     -9.1662 -56.3153 -12.9659   N.2       1 RES1   0.0000
    31 C31     -7.9677 -55.9204 -13.3774   C.2       1 RES1   0.0000
    32 C32     -7.8708 -55.3098 -14.6288   C.2       1 RES1   0.0000
    33 Cl33    -6.2787 -54.7724 -15.2028   Cl        1 RES1   0.0000
@<TRIPOS>BOND
     1     1     2    1
     2     2     3    1
     3     3     4    2
     4     3     5    1
     5     5     6    1
     6     6     7    2
     7     7     8    1
     8     8     9    2
     9     9    10    1
    10    10    11    2
    11    11    12    1
    12    12    13    1
    13    13    14    2
    14    14    15    1
    15    15    16    1
    16    16    17    1
    17    17    18    2
    18    18    19    1
    19    19    20    2
    20    20    21    1
    21    21    22    1
    22    22    23    1
    23    23    24    1
    24    24    25    1
    25    24    26    1
    26    26    27    1
    27    20    28    1
    28    28    29    2
    29    15    30    2
    30    30    31    1
    31    31    32    2
    32    32    33    1
    33    11     6    1
    34    32    13    1
    35    29    17    1
    36    27    21    1
@<TRIPOS>SUBSTRUCTURE
     1 RES1        1 GROUP             0 ****  ****    0  
@<TRIPOS>MOLECULE
ligand_76
    33    36     1     0     0
SMALL
USER_CHARGES
****
Generated from the CSD

@<TRIPOS>ATOM
     1 C1      -8.6375 -48.5861 -18.0060   C.3       1 RES1   0.0000
     2 C2      -8.1443 -50.0150 -18.2283   C.3       1 RES1   0.0000
     3 C3      -9.3558 -50.9501 -18.2075   C.2       1 RES1   0.0000
     4 O4     -10.4607 -50.5748 -17.9728   O.2       1 RES1   0.0000
     5 O5      -9.0710 -52.3091 -18.4865   O.3       1 RES1   0.0000
     6 C6     -10.1882 -53.2066 -18.4703   C.2       1 RES1   0.0000
     7 C7     -10.8042 -53.5733 -19.6687   C.2       1 RES1   0.0000
     8 C8     -11.9010 -54.4530 -19.6324   C.2       1 RES1   0.0000
     9 C9     -12.3565 -54.9384 -18.3947   C.2       1 RES1   0.0000
    10 C10    -11.7367 -54.5629 -17.1887   C.2       1 RES1   0.0000
    11 C11    -10.6425 -53.6828 -17.2259   C.2       1 RES1   0.0000
    12 N12     -9.9437 -53.2583 -15.9741   N.2       1 RES1   0.0000
    13 C13    -10.3420 -53.6964 -14.6311   C.2       1 RES1   0.0000
    14 N14    -11.3823 -54.5222 -14.4712   N.2       1 RES1   0.0000
    15 C15    -11.7441 -54.9213 -13.2611   C.2       1 RES1   0.0000
    16 N16    -12.8851 -55.8210 -13.0730   N.2       1 RES1   0.0000
    17 C17    -13.6997 -56.3447 -14.1851   C.2       1 RES1   0.0000
    18 C18    -13.0730 -57.0920 -15.1693   C.2       1 RES1   0.0000
    19 C19    -13.8172 -57.6136 -16.2366   C.2       1 RES1   0.0000
    20 C20    -15.1865 -57.3797 -16.3101   C.2       1 RES1   0.0000
    21 N21    -15.9551 -57.9370 -17.4510   N.pl3     1 RES1   0.0000
    22 C22    -17.2305 -57.3993 -17.9142   C.3       1 RES1   0.0000
    23 C23    -17.3232 -57.5104 -19.4162   C.3       1 RES1   0.0000
    24 N24    -17.1313 -58.9238 -19.8560   N.3       1 RES1   1.0000
    25 C25    -17.2130 -58.9871 -21.1320   C.2       1 RES1   0.0000
    26 C26    -15.8523 -59.4735 -19.3175   C.3       1 RES1   0.0000
    27 C27    -15.7995 -59.3386 -17.8162   C.3       1 RES1   0.0000
    28 C28    -15.8196 -56.6316 -15.3254   C.2       1 RES1   0.0000
    29 C29    -15.0734 -56.1163 -14.2574   C.2       1 RES1   0.0000
    30 N30    -11.1030 -54.5402 -12.1853   N.2       1 RES1   0.0000
    31 C31    -10.0578 -53.7249 -12.2517   C.2       1 RES1   0.0000
    32 C32     -9.6504 -53.2798 -13.5103   C.2       1 RES1   0.0000
    33 Cl33    -8.2546 -52.1884 -13.6265   Cl        1 RES1   0.0000
@<TRIPOS>BOND
     1     1     2    1
     2     2     3    1
     3     3     4    2
     4     3     5    1
     5     5     6    1
     6     6     7    2
     7     7     8    1
     8     8     9    2
     9     9    10    1
    10    10    11    2
    11    11    12    1
    12    12    13    1
    13    13    14    2
    14    14    15    1
    15    15    16    1
    16    16    17    1
    17    17    18    2
    18    18    19    1
    19    19    20    2
    20    20    21    1
    21    21    22    1
    22    22    23    1
    23    23    24    1
    24    24    25    1
    25    24    26    1
    26    26    27    1
    27    20    28    1
    28    28    29    2
    29    15    30    2
    30    30    31    1
    31    31    32    2
    32    32    33    1
    33    11     6    1
    34    32    13    1
    35    29    17    1
    36    27    21    1
@<TRIPOS>SUBSTRUCTURE
     1 RES1        1 GROUP             0 ****  ****    0  
@<TRIPOS>MOLECULE
ligand_77
    33    36     1     0     0
SMALL
USER_CHARGES
****
Generated from the CSD

@<TRIPOS>ATOM
     1 C1      -8.1057 -48.8725 -18.2214   C.3       1 RES1   0.0000
     2 C2      -7.7729 -50.3570 -18.3632   C.3       1 RES1   0.0000
     3 C3      -9.0812 -51.1495 -18.3130   C.2       1 RES1   0.0000
     4 O4     -10.1396 -50.6422 -18.1144   O.2       1 RES1   0.0000
     5 O5      -8.9473 -52.5445 -18.5181   O.3       1 RES1   0.0000
     6 C6     -10.1578 -53.3104 -18.4730   C.2       1 RES1   0.0000
     7 C7     -10.7996 -53.6686 -19.6604   C.2       1 RES1   0.0000
     8 C8     -11.9880 -54.4181 -19.5959   C.2       1 RES1   0.0000
     9 C9     -12.5063 -54.7846 -18.3420   C.2       1 RES1   0.0000
    10 C10    -11.8597 -54.4177 -17.1475   C.2       1 RES1   0.0000
    11 C11    -10.6738 -53.6675 -17.2130   C.2       1 RES1   0.0000
    12 N12     -9.9437 -53.2583 -15.9741   N.2       1 RES1   0.0000
    13 C13     -9.8634 -54.0872 -14.7655   C.2       1 RES1   0.0000
    14 N14    -10.4327 -55.2975 -14.7379   N.2       1 RES1   0.0000
    15 C15    -10.3611 -56.0494 -13.6497   C.2       1 RES1   0.0000
    16 N16    -10.9855 -57.3742 -13.6056   N.2       1 RES1   0.0000
    17 C17    -11.8163 -57.9183 -14.6956   C.2       1 RES1   0.0000
    18 C18    -12.7351 -57.0813 -15.3080   C.2       1 RES1   0.0000
    19 C19    -13.5355 -57.5616 -16.3538   C.2       1 RES1   0.0000
    20 C20    -13.4097 -58.8808 -16.7770   C.2       1 RES1   0.0000
    21 N21    -14.2701 -59.3707 -17.8827   N.3       1 RES1   0.0000
    22 C22    -13.8866 -60.7320 -18.2991   C.3       1 RES1   0.0000
    23 C23    -14.7745 -61.2419 -19.4061   C.3       1 RES1   0.0000
    24 N24    -14.6547 -60.3223 -20.5789   N.3       1 RES1   1.0000
    25 C25    -15.2613 -60.7659 -21.6152   C.2       1 RES1   0.0000
    26 C26    -15.1286 -58.9719 -20.1522   C.3       1 RES1   0.0000
    27 C27    -14.2508 -58.4603 -19.0343   C.3       1 RES1   0.0000
    28 C28    -12.4894 -59.7238 -16.1665   C.2       1 RES1   0.0000
    29 C29    -11.6875 -59.2387 -15.1251   C.2       1 RES1   0.0000
    30 N30     -9.7307 -55.6524 -12.5733   N.2       1 RES1   0.0000
    31 C31     -9.1346 -54.4680 -12.5144   C.2       1 RES1   0.0000
    32 C32     -9.1932 -53.6460 -13.6410   C.2       1 RES1   0.0000
    33 Cl33    -8.4037 -52.0565 -13.5882   Cl        1 RES1   0.0000
@<TRIPOS>BOND
     1     1     2    1
     2     2     3    1
     3     3     4    2
     4     3     5    1
     5     5     6    1
     6     6     7    2
     7     7     8    1
     8     8     9    2
     9     9    10    1
    10    10    11    2
    11    11    12    1
    12    12    13    1
    13    13    14    2
    14    14    15    1
    15    15    16    1
    16    16    17    1
    17    17    18    2
    18    18    19    1
    19    19    20    2
    20    20    21    1
    21    21    22    1
    22    22    23    1
    23    23    24    1
    24    24    25    1
    25    24    26    1
    26    26    27    1
    27    20    28    1
    28    28    29    2
    29    15    30    2
    30    30    31    1
    31    31    32    2
    32    32    33    1
    33    11     6    1
    34    32    13    1
    35    29    17    1
    36    27    21    1
@<TRIPOS>SUBSTRUCTURE
     1 RES1        1 GROUP             0 ****  ****    0  
@<TRIPOS>MOLECULE
ligand_78
    33    36     1     0     0
SMALL
USER_CHARGES
****
Generated from the CSD

@<TRIPOS>ATOM
     1 C1      -8.6280 -48.5909 -18.0109   C.3       1 RES1   0.0000
     2 C2      -8.1370 -50.0209 -18.2309   C.3       1 RES1   0.0000
     3 C3      -9.3500 -50.9539 -18.2099   C.2       1 RES1   0.0000
     4 O4     -10.4546 -50.5765 -17.9768   O.2       1 RES1   0.0000
     5 O5      -9.0672 -52.3138 -18.4869   O.3       1 RES1   0.0000
     6 C6     -10.1859 -53.2094 -18.4705   C.2       1 RES1   0.0000
     7 C7     -10.8015 -53.5766 -19.6690   C.2       1 RES1   0.0000
     8 C8     -11.8997 -54.4545 -19.6326   C.2       1 RES1   0.0000
     9 C9     -12.3571 -54.9376 -18.3947   C.2       1 RES1   0.0000
    10 C10    -11.7378 -54.5615 -17.1886   C.2       1 RES1   0.0000
    11 C11    -10.6421 -53.6833 -17.2260   C.2       1 RES1   0.0000
    12 N12     -9.9437 -53.2583 -15.9741   N.2       1 RES1   0.0000
    13 C13     -8.6293 -53.7660 -15.5631   C.2       1 RES1   0.0000
    14 N14     -7.9840 -54.6603 -16.3204   N.2       1 RES1   0.0000
    15 C15     -6.7969 -55.1198 -15.9539   C.2       1 RES1   0.0000
    16 N16     -6.0832 -56.1035 -16.7721   N.2       1 RES1   0.0000
    17 C17     -4.7356 -56.6070 -16.4476   C.2       1 RES1   0.0000
    18 C18     -4.4298 -57.9233 -16.7538   C.2       1 RES1   0.0000
    19 C19     -3.1559 -58.4335 -16.4679   C.2       1 RES1   0.0000
    20 C20     -2.1971 -57.6190 -15.8743   C.2       1 RES1   0.0000
    21 N21     -0.8559 -58.1804 -15.5757   N.pl3     1 RES1   0.0000
    22 C22      0.3855 -57.4185 -15.6698   C.3       1 RES1   0.0000
    23 C23      1.3401 -57.8499 -14.5838   C.3       1 RES1   0.0000
    24 N24      1.5917 -59.3196 -14.6522   N.3       1 RES1   1.0000
    25 C25      2.4018 -59.6563 -13.7199   C.2       1 RES1   0.0000
    26 C26      0.3052 -60.0758 -14.6195   C.3       1 RES1   0.0000
    27 C27     -0.6193 -59.6108 -15.7167   C.3       1 RES1   0.0000
    28 C28     -2.4987 -56.2984 -15.5660   C.2       1 RES1   0.0000
    29 C29     -3.7713 -55.7904 -15.8578   C.2       1 RES1   0.0000
    30 N30     -6.2066 -54.7175 -14.8569   N.2       1 RES1   0.0000
    31 C31     -6.7731 -53.8303 -14.0485   C.2       1 RES1   0.0000
    32 C32     -8.0267 -53.3272 -14.4001   C.2       1 RES1   0.0000
    33 Cl33    -8.8062 -52.1388 -13.3357   Cl        1 RES1   0.0000
@<TRIPOS>BOND
     1     1     2    1
     2     2     3    1
     3     3     4    2
     4     3     5    1
     5     5     6    1
     6     6     7    2
     7     7     8    1
     8     8     9    2
     9     9    10    1
    10    10    11    2
    11    11    12    1
    12    12    13    1
    13    13    14    2
    14    14    15    1
    15    15    16    1
    16    16    17    1
    17    17    18    2
    18    18    19    1
    19    19    20    2
    20    20    21    1
    21    21    22    1
    22    22    23    1
    23    23    24    1
    24    24    25    1
    25    24    26    1
    26    26    27    1
    27    20    28    1
    28    28    29    2
    29    15    30    2
    30    30    31    1
    31    31    32    2
    32    32    33    1
    33    11     6    1
    34    32    13    1
    35    29    17    1
    36    27    21    1
@<TRIPOS>SUBSTRUCTURE
     1 RES1        1 GROUP             0 ****  ****    0  
@<TRIPOS>MOLECULE
ligand_79
    33    36     1     0     0
SMALL
USER_CHARGES
****
Generated from the CSD

@<TRIPOS>ATOM
     1 C1      -8.6279 -48.5911 -18.0109   C.3       1 RES1   0.0000
     2 C2      -8.1370 -50.0211 -18.2309   C.3       1 RES1   0.0000
     3 C3      -9.3500 -50.9541 -18.2100   C.2       1 RES1   0.0000
     4 O4     -10.4545 -50.5766 -17.9768   O.2       1 RES1   0.0000
     5 O5      -9.0673 -52.3140 -18.4869   O.3       1 RES1   0.0000
     6 C6     -10.1860 -53.2095 -18.4705   C.2       1 RES1   0.0000
     7 C7     -10.4283 -54.0005 -17.3455   C.2       1 RES1   0.0000
     8 C8     -11.5296 -54.8753 -17.3491   C.2       1 RES1   0.0000
     9 C9     -12.3570 -54.9395 -18.4832   C.2       1 RES1   0.0000
    10 C10    -12.1070 -54.1448 -19.6171   C.2       1 RES1   0.0000
    11 C11    -11.0058 -53.2728 -19.6131   C.2       1 RES1   0.0000
    12 N12    -10.7002 -52.4015 -20.7891   N.2       1 RES1   0.0000
    13 C13     -9.5834 -52.6408 -21.7109   C.2       1 RES1   0.0000
    14 N14     -8.7677 -53.6850 -21.5265   N.2       1 RES1   0.0000
    15 C15     -7.7596 -53.9055 -22.3570   C.2       1 RES1   0.0000
    16 N16     -6.8563 -55.0425 -22.1621   N.2       1 RES1   0.0000
    17 C17     -5.7546 -55.3733 -23.0848   C.2       1 RES1   0.0000
    18 C18     -4.5899 -55.9091 -22.5591   C.2       1 RES1   0.0000
    19 C19     -3.5252 -56.2441 -23.4072   C.2       1 RES1   0.0000
    20 C20     -3.6359 -56.0371 -24.7783   C.2       1 RES1   0.0000
    21 N21     -2.4951 -56.3943 -25.6580   N.pl3     1 RES1   0.0000
    22 C22     -2.6437 -56.9314 -27.0070   C.3       1 RES1   0.0000
    23 C23     -1.5460 -56.4030 -27.8974   C.3       1 RES1   0.0000
    24 N24     -0.2031 -56.7170 -27.3265   N.3       1 RES1   1.0000
    25 C25      0.7065 -56.2560 -28.1004   C.2       1 RES1   0.0000
    26 C26     -0.0967 -56.2153 -25.9247   C.3       1 RES1   0.0000
    27 C27     -1.2136 -56.7633 -25.0719   C.3       1 RES1   0.0000
    28 C28     -4.8019 -55.5008 -25.3103   C.2       1 RES1   0.0000
    29 C29     -5.8659 -55.1720 -24.4602   C.2       1 RES1   0.0000
    30 N30     -7.5267 -53.1298 -23.3854   N.2       1 RES1   0.0000
    31 C31     -8.2875 -52.0738 -23.6455   C.2       1 RES1   0.0000
    32 C32     -9.3568 -51.8073 -22.7889   C.2       1 RES1   0.0000
    33 Cl33   -10.3902 -50.4006 -23.1149   Cl        1 RES1   0.0000
@<TRIPOS>BOND
     1     1     2    1
     2     2     3    1
     3     3     4    2
     4     3     5    1
     5     5     6    1
     6     6     7    2
     7     7     8    1
     8     8     9    2
     9     9    10    1
    10    10    11    2
    11    11    12    1
    12    12    13    1
    13    13    14    2
    14    14    15    1
    15    15    16    1
    16    16    17    1
    17    17    18    2
    18    18    19    1
    19    19    20    2
    20    20    21    1
    21    21    22    1
    22    22    23    1
    23    23    24    1
    24    24    25    1
    25    24    26    1
    26    26    27    1
    27    20    28    1
    28    28    29    2
    29    15    30    2
    30    30    31    1
    31    31    32    2
    32    32    33    1
    33    11     6    1
    34    32    13    1
    35    29    17    1
    36    27    21    1
@<TRIPOS>SUBSTRUCTURE
     1 RES1        1 GROUP             0 ****  ****    0  
@<TRIPOS>MOLECULE
ligand_80
    33    36     1     0     0
SMALL
USER_CHARGES
****
Generated from the CSD

@<TRIPOS>ATOM
     1 C1      -8.6280 -48.5909 -18.0109   C.3       1 RES1   0.0000
     2 C2      -8.1370 -50.0209 -18.2309   C.3       1 RES1   0.0000
     3 C3      -9.3500 -50.9539 -18.2099   C.2       1 RES1   0.0000
     4 O4     -10.4546 -50.5765 -17.9768   O.2       1 RES1   0.0000
     5 O5      -9.0672 -52.3138 -18.4869   O.3       1 RES1   0.0000
     6 C6     -10.1859 -53.2094 -18.4705   C.2       1 RES1   0.0000
     7 C7     -10.8015 -53.5766 -19.6690   C.2       1 RES1   0.0000
     8 C8     -11.8997 -54.4545 -19.6326   C.2       1 RES1   0.0000
     9 C9     -12.3571 -54.9376 -18.3946   C.2       1 RES1   0.0000
    10 C10    -11.7378 -54.5615 -17.1886   C.2       1 RES1   0.0000
    11 C11    -10.6421 -53.6833 -17.2260   C.2       1 RES1   0.0000
    12 N12     -9.9437 -53.2583 -15.9741   N.2       1 RES1   0.0000
    13 C13     -8.6293 -53.7660 -15.5631   C.2       1 RES1   0.0000
    14 N14     -7.9840 -54.6603 -16.3204   N.2       1 RES1   0.0000
    15 C15     -6.7969 -55.1198 -15.9539   C.2       1 RES1   0.0000
    16 N16     -6.0832 -56.1035 -16.7721   N.2       1 RES1   0.0000
    17 C17     -4.8009 -56.7143 -16.3755   C.2       1 RES1   0.0000
    18 C18     -4.5915 -57.0019 -15.0363   C.2       1 RES1   0.0000
    19 C19     -3.3882 -57.5909 -14.6238   C.2       1 RES1   0.0000
    20 C20     -2.4014 -57.8859 -15.5589   C.2       1 RES1   0.0000
    21 N21     -1.1328 -58.5052 -15.1005   N.pl3     1 RES1   0.0000
    22 C22     -0.3808 -59.4891 -15.8731   C.3       1 RES1   0.0000
    23 C23      1.1001 -59.2853 -15.6673   C.3       1 RES1   0.0000
    24 N24      1.4470 -59.3451 -14.2168   N.3       1 RES1   1.0000
    25 C25      2.7065 -59.1675 -14.0729   C.2       1 RES1   0.0000
    26 C26      0.6205 -58.3766 -13.4377   C.3       1 RES1   0.0000
    27 C27     -0.8502 -58.6125 -13.6755   C.3       1 RES1   0.0000
    28 C28     -2.6069 -57.6001 -16.9028   C.2       1 RES1   0.0000
    29 C29     -3.8128 -57.0161 -17.3120   C.2       1 RES1   0.0000
    30 N30     -6.2066 -54.7175 -14.8569   N.2       1 RES1   0.0000
    31 C31     -6.7731 -53.8303 -14.0485   C.2       1 RES1   0.0000
    32 C32     -8.0267 -53.3272 -14.4001   C.2       1 RES1   0.0000
    33 Cl33    -8.8062 -52.1388 -13.3357   Cl        1 RES1   0.0000
@<TRIPOS>BOND
     1     1     2    1
     2     2     3    1
     3     3     4    2
     4     3     5    1
     5     5     6    1
     6     6     7    2
     7     7     8    1
     8     8     9    2
     9     9    10    1
    10    10    11    2
    11    11    12    1
    12    12    13    1
    13    13    14    2
    14    14    15    1
    15    15    16    1
    16    16    17    1
    17    17    18    2
    18    18    19    1
    19    19    20    2
    20    20    21    1
    21    21    22    1
    22    22    23    1
    23    23    24    1
    24    24    25    1
    25    24    26    1
    26    26    27    1
    27    20    28    1
    28    28    29    2
    29    15    30    2
    30    30    31    1
    31    31    32    2
    32    32    33    1
    33    11     6    1
    34    32    13    1
    35    29    17    1
    36    27    21    1
@<TRIPOS>SUBSTRUCTURE
     1 RES1        1 GROUP             0 ****  ****    0  
@<TRIPOS>MOLECULE
ligand_81
    33    36     1     0     0
SMALL
USER_CHARGES
****
Generated from the CSD

@<TRIPOS>ATOM
     1 C1      -8.6279 -48.5911 -18.0109   C.3       1 RES1   0.0000
     2 C2      -8.1370 -50.0211 -18.2309   C.3       1 RES1   0.0000
     3 C3      -9.3500 -50.9541 -18.2100   C.2       1 RES1   0.0000
     4 O4     -10.4545 -50.5766 -17.9768   O.2       1 RES1   0.0000
     5 O5      -9.0673 -52.3140 -18.4869   O.3       1 RES1   0.0000
     6 C6     -10.1860 -53.2095 -18.4705   C.2       1 RES1   0.0000
     7 C7     -10.4283 -54.0005 -17.3455   C.2       1 RES1   0.0000
     8 C8     -11.5296 -54.8753 -17.3491   C.2       1 RES1   0.0000
     9 C9     -12.3570 -54.9395 -18.4832   C.2       1 RES1   0.0000
    10 C10    -12.1070 -54.1448 -19.6171   C.2       1 RES1   0.0000
    11 C11    -11.0058 -53.2728 -19.6131   C.2       1 RES1   0.0000
    12 N12    -10.7002 -52.4015 -20.7891   N.2       1 RES1   0.0000
    13 C13     -9.5834 -52.6408 -21.7109   C.2       1 RES1   0.0000
    14 N14     -8.7677 -53.6850 -21.5265   N.2       1 RES1   0.0000
    15 C15     -7.7596 -53.9055 -22.3570   C.2       1 RES1   0.0000
    16 N16     -6.8563 -55.0425 -22.1621   N.2       1 RES1   0.0000
    17 C17     -5.6694 -55.2913 -23.0012   C.2       1 RES1   0.0000
    18 C18     -4.9380 -54.2040 -23.4515   C.2       1 RES1   0.0000
    19 C19     -3.7987 -54.4029 -24.2436   C.2       1 RES1   0.0000
    20 C20     -3.4018 -55.6929 -24.5804   C.2       1 RES1   0.0000
    21 N21     -2.1952 -55.8812 -25.4239   N.pl3     1 RES1   0.0000
    22 C22     -1.2620 -56.9934 -25.2741   C.3       1 RES1   0.0000
    23 C23     -0.7426 -57.4178 -26.6259   C.3       1 RES1   0.0000
    24 N24     -0.1142 -56.2662 -27.3378   N.3       1 RES1   1.0000
    25 C25      0.3146 -56.6548 -28.4796   C.2       1 RES1   0.0000
    26 C26     -1.0642 -55.1180 -27.4224   C.3       1 RES1   0.0000
    27 C27     -1.5612 -54.7299 -26.0522   C.3       1 RES1   0.0000
    28 C28     -4.1314 -56.7863 -24.1307   C.2       1 RES1   0.0000
    29 C29     -5.2666 -56.5839 -23.3350   C.2       1 RES1   0.0000
    30 N30     -7.5267 -53.1298 -23.3854   N.2       1 RES1   0.0000
    31 C31     -8.2875 -52.0738 -23.6455   C.2       1 RES1   0.0000
    32 C32     -9.3568 -51.8073 -22.7889   C.2       1 RES1   0.0000
    33 Cl33   -10.3902 -50.4006 -23.1149   Cl        1 RES1   0.0000
@<TRIPOS>BOND
     1     1     2    1
     2     2     3    1
     3     3     4    2
     4     3     5    1
     5     5     6    1
     6     6     7    2
     7     7     8    1
     8     8     9    2
     9     9    10    1
    10    10    11    2
    11    11    12    1
    12    12    13    1
    13    13    14    2
    14    14    15    1
    15    15    16    1
    16    16    17    1
    17    17    18    2
    18    18    19    1
    19    19    20    2
    20    20    21    1
    21    21    22    1
    22    22    23    1
    23    23    24    1
    24    24    25    1
    25    24    26    1
    26    26    27    1
    27    20    28    1
    28    28    29    2
    29    15    30    2
    30    30    31    1
    31    31    32    2
    32    32    33    1
    33    11     6    1
    34    32    13    1
    35    29    17    1
    36    27    21    1
@<TRIPOS>SUBSTRUCTURE
     1 RES1        1 GROUP             0 ****  ****    0  
@<TRIPOS>MOLECULE
ligand_82
    33    36     1     0     0
SMALL
USER_CHARGES
****
Generated from the CSD

@<TRIPOS>ATOM
     1 C1      -9.1540 -48.4526 -18.1824   C.3       1 RES1   0.0000
     2 C2      -8.5228 -49.8362 -18.3292   C.3       1 RES1   0.0000
     3 C3      -9.6421 -50.8797 -18.3068   C.2       1 RES1   0.0000
     4 O4     -10.7846 -50.6014 -18.1225   O.2       1 RES1   0.0000
     5 O5      -9.2228 -52.2157 -18.5196   O.3       1 RES1   0.0000
     6 C6     -10.2496 -53.2149 -18.4858   C.2       1 RES1   0.0000
     7 C7     -11.0108 -53.3920 -17.3285   C.2       1 RES1   0.0000
     8 C8     -12.0123 -54.3795 -17.3134   C.2       1 RES1   0.0000
     9 C9     -12.2215 -55.1686 -18.4574   C.2       1 RES1   0.0000
    10 C10    -11.4493 -54.9908 -19.6200   C.2       1 RES1   0.0000
    11 C11    -10.4481 -54.0056 -19.6333   C.2       1 RES1   0.0000
    12 N12     -9.6047 -53.7710 -20.8454   N.2       1 RES1   0.0000
    13 C13    -10.0905 -53.9401 -22.2200   C.2       1 RES1   0.0000
    14 N14    -11.3657 -54.2733 -22.4492   N.2       1 RES1   0.0000
    15 C15    -11.8087 -54.4252 -23.6883   C.2       1 RES1   0.0000
    16 N16    -13.2016 -54.7955 -23.9516   N.2       1 RES1   0.0000
    17 C17    -14.2242 -54.9171 -22.8961   C.2       1 RES1   0.0000
    18 C18    -15.4313 -55.5201 -23.2110   C.2       1 RES1   0.0000
    19 C19    -16.4233 -55.6611 -22.2306   C.2       1 RES1   0.0000
    20 C20    -16.1975 -55.1938 -20.9399   C.2       1 RES1   0.0000
    21 N21    -17.2628 -55.3489 -19.9181   N.3       1 RES1   0.0000
    22 C22    -18.4980 -55.8959 -20.5085   C.3       1 RES1   0.0000
    23 C23    -19.5743 -56.0772 -19.4681   C.3       1 RES1   0.0000
    24 N24    -19.8759 -54.7480 -18.8534   N.3       1 RES1   1.0000
    25 C25    -20.8843 -54.7882 -18.0659   C.2       1 RES1   0.0000
    26 C26    -18.6308 -54.2569 -18.1910   C.3       1 RES1   0.0000
    27 C27    -17.5440 -54.0850 -19.2261   C.3       1 RES1   0.0000
    28 C28    -14.9886 -54.5892 -20.6191   C.2       1 RES1   0.0000
    29 C29    -13.9976 -54.4546 -21.6002   C.2       1 RES1   0.0000
    30 N30    -11.0332 -54.2482 -24.7280   N.2       1 RES1   0.0000
    31 C31     -9.7560 -53.9132 -24.5930   C.2       1 RES1   0.0000
    32 C32     -9.2526 -53.7489 -23.3015   C.2       1 RES1   0.0000
    33 Cl33    -7.5472 -53.3006 -23.0935   Cl        1 RES1   0.0000
@<TRIPOS>BOND
     1     1     2    1
     2     2     3    1
     3     3     4    2
     4     3     5    1
     5     5     6    1
     6     6     7    2
     7     7     8    1
     8     8     9    2
     9     9    10    1
    10    10    11    2
    11    11    12    1
    12    12    13    1
    13    13    14    2
    14    14    15    1
    15    15    16    1
    16    16    17    1
    17    17    18    2
    18    18    19    1
    19    19    20    2
    20    20    21    1
    21    21    22    1
    22    22    23    1
    23    23    24    1
    24    24    25    1
    25    24    26    1
    26    26    27    1
    27    20    28    1
    28    28    29    2
    29    15    30    2
    30    30    31    1
    31    31    32    2
    32    32    33    1
    33    11     6    1
    34    32    13    1
    35    29    17    1
    36    27    21    1
@<TRIPOS>SUBSTRUCTURE
     1 RES1        1 GROUP             0 ****  ****    0  
@<TRIPOS>MOLECULE
ligand_83
    33    36     1     0     0
SMALL
USER_CHARGES
****
Generated from the CSD

@<TRIPOS>ATOM
     1 C1      -8.1921 -49.3066 -17.8075   C.3       1 RES1   0.0000
     2 C2      -7.9842 -50.7945 -18.0858   C.3       1 RES1   0.0000
     3 C3      -9.3566 -51.4697 -18.1386   C.2       1 RES1   0.0000
     4 O4      -9.4995 -52.6512 -18.1158   O.2       1 RES1   0.0000
     5 O5     -10.4593 -50.5846 -18.2206   O.3       1 RES1   0.0000
     6 C6     -11.7563 -51.1918 -18.2745   C.2       1 RES1   0.0000
     7 C7     -12.5241 -51.2981 -17.1129   C.2       1 RES1   0.0000
     8 C8     -13.7934 -51.8996 -17.1850   C.2       1 RES1   0.0000
     9 C9     -14.2587 -52.3848 -18.4191   C.2       1 RES1   0.0000
    10 C10    -13.4804 -52.2806 -19.5866   C.2       1 RES1   0.0000
    11 C11    -12.2120 -51.6814 -19.5131   C.2       1 RES1   0.0000
    12 N12    -11.3482 -51.5392 -20.7252   N.2       1 RES1   0.0000
    13 C13    -11.6619 -52.1468 -22.0239   C.2       1 RES1   0.0000
    14 N14    -12.7042 -52.9764 -22.1470   N.2       1 RES1   0.0000
    15 C15    -12.9918 -53.5256 -23.3176   C.2       1 RES1   0.0000
    16 N16    -14.1273 -54.4399 -23.4635   N.2       1 RES1   0.0000
    17 C17    -14.9716 -54.8745 -22.3353   C.2       1 RES1   0.0000
    18 C18    -16.3161 -55.1144 -22.5694   C.2       1 RES1   0.0000
    19 C19    -17.1471 -55.5375 -21.5228   C.2       1 RES1   0.0000
    20 C20    -16.6230 -55.7152 -20.2464   C.2       1 RES1   0.0000
    21 N21    -17.5211 -56.1592 -19.1513   N.pl3     1 RES1   0.0000
    22 C22    -18.7734 -56.8776 -19.3655   C.3       1 RES1   0.0000
    23 C23    -18.9866 -57.8847 -18.2622   C.3       1 RES1   0.0000
    24 N24    -18.9563 -57.2211 -16.9256   N.3       1 RES1   1.0000
    25 C25    -19.1375 -58.0983 -16.0110   C.2       1 RES1   0.0000
    26 C26    -17.6959 -56.4400 -16.7542   C.3       1 RES1   0.0000
    27 C27    -17.5203 -55.4502 -17.8787   C.3       1 RES1   0.0000
    28 C28    -15.2755 -55.4765 -20.0069   C.2       1 RES1   0.0000
    29 C29    -14.4470 -55.0588 -21.0565   C.2       1 RES1   0.0000
    30 N30    -12.2864 -53.2764 -24.3918   N.2       1 RES1   0.0000
    31 C31    -11.2380 -52.4631 -24.3613   C.2       1 RES1   0.0000
    32 C32    -10.9019 -51.8695 -23.1436   C.2       1 RES1   0.0000
    33 Cl33    -9.5038 -50.7771 -23.0759   Cl        1 RES1   0.0000
@<TRIPOS>BOND
     1     1     2    1
     2     2     3    1
     3     3     4    2
     4     3     5    1
     5     5     6    1
     6     6     7    2
     7     7     8    1
     8     8     9    2
     9     9    10    1
    10    10    11    2
    11    11    12    1
    12    12    13    1
    13    13    14    2
    14    14    15    1
    15    15    16    1
    16    16    17    1
    17    17    18    2
    18    18    19    1
    19    19    20    2
    20    20    21    1
    21    21    22    1
    22    22    23    1
    23    23    24    1
    24    24    25    1
    25    24    26    1
    26    26    27    1
    27    20    28    1
    28    28    29    2
    29    15    30    2
    30    30    31    1
    31    31    32    2
    32    32    33    1
    33    11     6    1
    34    32    13    1
    35    29    17    1
    36    27    21    1
@<TRIPOS>SUBSTRUCTURE
     1 RES1        1 GROUP             0 ****  ****    0  
@<TRIPOS>MOLECULE
ligand_84
    33    36     1     0     0
SMALL
USER_CHARGES
****
Generated from the CSD

@<TRIPOS>ATOM
     1 C1      -9.2400 -48.0062 -17.9382   C.3       1 RES1   0.0000
     2 C2      -8.4718 -49.3009 -18.1989   C.3       1 RES1   0.0000
     3 C3      -9.4711 -50.4600 -18.2029   C.2       1 RES1   0.0000
     4 O4      -9.1395 -51.6023 -18.1577   O.2       1 RES1   0.0000
     5 O5     -10.8336 -50.0788 -18.2679   O.3       1 RES1   0.0000
     6 C6     -11.7902 -51.1459 -18.2760   C.2       1 RES1   0.0000
     7 C7     -12.3594 -51.5615 -19.4815   C.2       1 RES1   0.0000
     8 C8     -13.2984 -52.6086 -19.4691   C.2       1 RES1   0.0000
     9 C9     -13.6475 -53.2089 -18.2473   C.2       1 RES1   0.0000
    10 C10    -13.0757 -52.7843 -17.0338   C.2       1 RES1   0.0000
    11 C11    -12.1394 -51.7372 -17.0472   C.2       1 RES1   0.0000
    12 N12    -11.4969 -51.2531 -15.7869   N.2       1 RES1   0.0000
    13 C13    -11.8997 -51.6948 -14.4464   C.2       1 RES1   0.0000
    14 N14    -12.9699 -52.4819 -14.2881   N.2       1 RES1   0.0000
    15 C15    -13.3359 -52.8841 -13.0802   C.2       1 RES1   0.0000
    16 N16    -14.5092 -53.7414 -12.8938   N.2       1 RES1   0.0000
    17 C17    -15.4007 -54.1506 -13.9949   C.2       1 RES1   0.0000
    18 C18    -15.9947 -55.4010 -13.9352   C.2       1 RES1   0.0000
    19 C19    -16.8550 -55.8199 -14.9596   C.2       1 RES1   0.0000
    20 C20    -17.1122 -54.9810 -16.0391   C.2       1 RES1   0.0000
    21 N21    -18.0225 -55.4458 -17.1153   N.pl3     1 RES1   0.0000
    22 C22    -19.0364 -56.4800 -16.9346   C.3       1 RES1   0.0000
    23 C23    -20.2589 -56.1544 -17.7572   C.3       1 RES1   0.0000
    24 N24    -19.8996 -55.9836 -19.1958   N.3       1 RES1   1.0000
    25 C25    -20.9537 -55.7069 -19.8675   C.2       1 RES1   0.0000
    26 C26    -18.8163 -54.9684 -19.3508   C.3       1 RES1   0.0000
    27 C27    -17.6175 -55.3296 -18.5098   C.3       1 RES1   0.0000
    28 C28    -16.5195 -53.7261 -16.1031   C.2       1 RES1   0.0000
    29 C29    -15.6643 -53.3088 -15.0750   C.2       1 RES1   0.0000
    30 N30    -12.6707 -52.5436 -12.0054   N.2       1 RES1   0.0000
    31 C31    -11.5952 -51.7686 -12.0704   C.2       1 RES1   0.0000
    32 C32    -11.1823 -51.3214 -13.3265   C.2       1 RES1   0.0000
    33 Cl33    -9.7462 -50.2835 -13.4409   Cl        1 RES1   0.0000
@<TRIPOS>BOND
     1     1     2    1
     2     2     3    1
     3     3     4    2
     4     3     5    1
     5     5     6    1
     6     6     7    2
     7     7     8    1
     8     8     9    2
     9     9    10    1
    10    10    11    2
    11    11    12    1
    12    12    13    1
    13    13    14    2
    14    14    15    1
    15    15    16    1
    16    16    17    1
    17    17    18    2
    18    18    19    1
    19    19    20    2
    20    20    21    1
    21    21    22    1
    22    22    23    1
    23    23    24    1
    24    24    25    1
    25    24    26    1
    26    26    27    1
    27    20    28    1
    28    28    29    2
    29    15    30    2
    30    30    31    1
    31    31    32    2
    32    32    33    1
    33    11     6    1
    34    32    13    1
    35    29    17    1
    36    27    21    1
@<TRIPOS>SUBSTRUCTURE
     1 RES1        1 GROUP             0 ****  ****    0  
@<TRIPOS>MOLECULE
ligand_85
    33    36     1     0     0
SMALL
USER_CHARGES
****
Generated from the CSD

@<TRIPOS>ATOM
     1 C1      -8.5635 -48.6749 -17.9867   C.3       1 RES1   0.0000
     2 C2      -8.1060 -50.1145 -18.2159   C.3       1 RES1   0.0000
     3 C3      -9.3408 -51.0187 -18.2031   C.2       1 RES1   0.0000
     4 O4      -9.2750 -52.2051 -18.1325   O.2       1 RES1   0.0000
     5 O5     -10.5823 -50.3420 -18.2850   O.3       1 RES1   0.0000
     6 C6     -11.7546 -51.1664 -18.2779   C.2       1 RES1   0.0000
     7 C7     -12.4654 -51.3557 -17.0910   C.2       1 RES1   0.0000
     8 C8     -13.6119 -52.1704 -17.1032   C.2       1 RES1   0.0000
     9 C9     -14.0136 -52.7796 -18.3043   C.2       1 RES1   0.0000
    10 C10    -13.2921 -52.5907 -19.4973   C.2       1 RES1   0.0000
    11 C11    -12.1462 -51.7784 -19.4836   C.2       1 RES1   0.0000
    12 N12    -11.3482 -51.5392 -20.7252   N.2       1 RES1   0.0000
    13 C13    -11.6619 -52.1468 -22.0239   C.2       1 RES1   0.0000
    14 N14    -12.7042 -52.9764 -22.1470   N.2       1 RES1   0.0000
    15 C15    -12.9918 -53.5256 -23.3176   C.2       1 RES1   0.0000
    16 N16    -14.1273 -54.4399 -23.4635   N.2       1 RES1   0.0000
    17 C17    -14.5323 -55.0347 -24.7507   C.2       1 RES1   0.0000
    18 C18    -15.0505 -56.3197 -24.7516   C.2       1 RES1   0.0000
    19 C19    -15.4544 -56.9137 -25.9553   C.2       1 RES1   0.0000
    20 C20    -15.3336 -56.2140 -27.1516   C.2       1 RES1   0.0000
    21 N21    -15.7628 -56.8630 -28.4155   N.pl3     1 RES1   0.0000
    22 C22    -16.7252 -57.9582 -28.4829   C.3       1 RES1   0.0000
    23 C23    -17.5727 -57.8257 -29.7244   C.3       1 RES1   0.0000
    24 N24    -16.7176 -57.7704 -30.9465   N.3       1 RES1   1.0000
    25 C25    -17.4620 -57.6563 -31.9817   C.2       1 RES1   0.0000
    26 C26    -15.6994 -56.6854 -30.8279   C.3       1 RES1   0.0000
    27 C27    -14.8790 -56.8534 -29.5735   C.3       1 RES1   0.0000
    28 C28    -14.8152 -54.9250 -27.1557   C.2       1 RES1   0.0000
    29 C29    -14.4174 -54.3327 -25.9501   C.2       1 RES1   0.0000
    30 N30    -12.2864 -53.2764 -24.3918   N.2       1 RES1   0.0000
    31 C31    -11.2380 -52.4631 -24.3613   C.2       1 RES1   0.0000
    32 C32    -10.9019 -51.8695 -23.1436   C.2       1 RES1   0.0000
    33 Cl33    -9.5038 -50.7771 -23.0759   Cl        1 RES1   0.0000
@<TRIPOS>BOND
     1     1     2    1
     2     2     3    1
     3     3     4    2
     4     3     5    1
     5     5     6    1
     6     6     7    2
     7     7     8    1
     8     8     9    2
     9     9    10    1
    10    10    11    2
    11    11    12    1
    12    12    13    1
    13    13    14    2
    14    14    15    1
    15    15    16    1
    16    16    17    1
    17    17    18    2
    18    18    19    1
    19    19    20    2
    20    20    21    1
    21    21    22    1
    22    22    23    1
    23    23    24    1
    24    24    25    1
    25    24    26    1
    26    26    27    1
    27    20    28    1
    28    28    29    2
    29    15    30    2
    30    30    31    1
    31    31    32    2
    32    32    33    1
    33    11     6    1
    34    32    13    1
    35    29    17    1
    36    27    21    1
@<TRIPOS>SUBSTRUCTURE
     1 RES1        1 GROUP             0 ****  ****    0  
@<TRIPOS>MOLECULE
ligand_86
    33    36     1     0     0
SMALL
USER_CHARGES
****
Generated from the CSD

@<TRIPOS>ATOM
     1 C1      -8.6957 -48.5109 -17.9999   C.3       1 RES1   0.0000
     2 C2      -8.1709 -49.9274 -18.2283   C.3       1 RES1   0.0000
     3 C3      -9.3611 -50.8894 -18.2110   C.2       1 RES1   0.0000
     4 O4      -9.2388 -52.0712 -18.1388   O.2       1 RES1   0.0000
     5 O5     -10.6336 -50.2727 -18.2904   O.3       1 RES1   0.0000
     6 C6     -11.7654 -51.1518 -18.2790   C.2       1 RES1   0.0000
     7 C7     -12.3992 -51.4864 -19.4775   C.2       1 RES1   0.0000
     8 C8     -13.5100 -52.3485 -19.4460   C.2       1 RES1   0.0000
     9 C9     -13.9611 -52.8490 -18.2127   C.2       1 RES1   0.0000
    10 C10    -13.3232 -52.5058 -17.0065   C.2       1 RES1   0.0000
    11 C11    -12.2150 -51.6432 -17.0389   C.2       1 RES1   0.0000
    12 N12    -11.4969 -51.2531 -15.7869   N.2       1 RES1   0.0000
    13 C13    -11.8997 -51.6948 -14.4464   C.2       1 RES1   0.0000
    14 N14    -12.9699 -52.4819 -14.2881   N.2       1 RES1   0.0000
    15 C15    -13.3359 -52.8841 -13.0802   C.2       1 RES1   0.0000
    16 N16    -14.5092 -53.7414 -12.8938   N.2       1 RES1   0.0000
    17 C17    -14.9308 -54.2692 -11.5829   C.2       1 RES1   0.0000
    18 C18    -16.2858 -54.4176 -11.3343   C.2       1 RES1   0.0000
    19 C19    -16.7229 -54.9248 -10.1028   C.2       1 RES1   0.0000
    20 C20    -15.7963 -55.2781  -9.1273   C.2       1 RES1   0.0000
    21 N21    -16.2804 -55.8088  -7.8285   N.pl3     1 RES1   0.0000
    22 C22    -17.5838 -56.4383  -7.6405   C.3       1 RES1   0.0000
    23 C23    -17.4760 -57.5598  -6.6367   C.3       1 RES1   0.0000
    24 N24    -16.9150 -57.0635  -5.3456   N.3       1 RES1   1.0000
    25 C25    -16.8336 -58.0348  -4.5158   C.2       1 RES1   0.0000
    26 C26    -15.6140 -56.3670  -5.5702   C.3       1 RES1   0.0000
    27 C27    -15.7657 -55.2585  -6.5817   C.3       1 RES1   0.0000
    28 C28    -14.4366 -55.1318  -9.3720   C.2       1 RES1   0.0000
    29 C29    -14.0032 -54.6294 -10.6060   C.2       1 RES1   0.0000
    30 N30    -12.6707 -52.5436 -12.0054   N.2       1 RES1   0.0000
    31 C31    -11.5952 -51.7686 -12.0704   C.2       1 RES1   0.0000
    32 C32    -11.1823 -51.3214 -13.3265   C.2       1 RES1   0.0000
    33 Cl33    -9.7462 -50.2835 -13.4409   Cl        1 RES1   0.0000
@<TRIPOS>BOND
     1     1     2    1
     2     2     3    1
     3     3     4    2
     4     3     5    1
     5     5     6    1
     6     6     7    2
     7     7     8    1
     8     8     9    2
     9     9    10    1
    10    10    11    2
    11    11    12    1
    12    12    13    1
    13    13    14    2
    14    14    15    1
    15    15    16    1
    16    16    17    1
    17    17    18    2
    18    18    19    1
    19    19    20    2
    20    20    21    1
    21    21    22    1
    22    22    23    1
    23    23    24    1
    24    24    25    1
    25    24    26    1
    26    26    27    1
    27    20    28    1
    28    28    29    2
    29    15    30    2
    30    30    31    1
    31    31    32    2
    32    32    33    1
    33    11     6    1
    34    32    13    1
    35    29    17    1
    36    27    21    1
@<TRIPOS>SUBSTRUCTURE
     1 RES1        1 GROUP             0 ****  ****    0  
@<TRIPOS>MOLECULE
ligand_87
    33    36     1     0     0
SMALL
USER_CHARGES
****
Generated from the CSD

@<TRIPOS>ATOM
     1 C1      -8.5612 -48.6148 -18.0351   C.3       1 RES1   0.0000
     2 C2      -8.0885 -50.0556 -18.2226   C.3       1 RES1   0.0000
     3 C3      -9.3175 -50.9677 -18.2262   C.2       1 RES1   0.0000
     4 O4     -10.4218 -50.5688 -18.0308   O.2       1 RES1   0.0000
     5 O5      -9.0500 -52.3357 -18.4776   O.3       1 RES1   0.0000
     6 C6     -10.1820 -53.2145 -18.4684   C.2       1 RES1   0.0000
     7 C7     -10.9575 -53.3388 -17.3138   C.2       1 RES1   0.0000
     8 C8     -12.0630 -54.2083 -17.3230   C.2       1 RES1   0.0000
     9 C9     -12.3598 -54.9359 -18.4882   C.2       1 RES1   0.0000
    10 C10    -11.5733 -54.8120 -19.6482   C.2       1 RES1   0.0000
    11 C11    -10.4683 -53.9448 -19.6373   C.2       1 RES1   0.0000
    12 N12     -9.6047 -53.7710 -20.8454   N.2       1 RES1   0.0000
    13 C13     -9.8118 -54.4958 -22.1048   C.2       1 RES1   0.0000
    14 N14    -10.8126 -55.3759 -22.2206   N.2       1 RES1   0.0000
    15 C15    -11.0040 -56.0309 -23.3559   C.2       1 RES1   0.0000
    16 N16    -12.0931 -57.0013 -23.4928   N.2       1 RES1   0.0000
    17 C17    -12.1447 -58.0210 -24.5568   C.2       1 RES1   0.0000
    18 C18    -10.9527 -58.5526 -25.0219   C.2       1 RES1   0.0000
    19 C19    -10.9637 -59.5305 -26.0262   C.2       1 RES1   0.0000
    20 C20    -12.1723 -59.9674 -26.5589   C.2       1 RES1   0.0000
    21 N21    -12.1615 -61.0002 -27.6248   N.3       1 RES1   0.0000
    22 C22    -12.9017 -62.2064 -27.2116   C.3       1 RES1   0.0000
    23 C23    -12.9130 -63.2481 -28.3017   C.3       1 RES1   0.0000
    24 N24    -11.5016 -63.6274 -28.6173   N.3       1 RES1   1.0000
    25 C25    -11.4278 -64.6157 -29.4274   C.2       1 RES1   0.0000
    26 C26    -10.7992 -62.4061 -29.1127   C.3       1 RES1   0.0000
    27 C27    -10.7952 -61.3533 -28.0294   C.3       1 RES1   0.0000
    28 C28    -13.3702 -59.4379 -26.0954   C.2       1 RES1   0.0000
    29 C29    -13.3555 -58.4645 -25.0879   C.2       1 RES1   0.0000
    30 N30    -10.2409 -55.8410 -24.4025   N.2       1 RES1   0.0000
    31 C31     -9.2275 -54.9844 -24.3771   C.2       1 RES1   0.0000
    32 C32     -8.9924 -54.2793 -23.1956   C.2       1 RES1   0.0000
    33 Cl33    -7.6428 -53.1269 -23.1356   Cl        1 RES1   0.0000
@<TRIPOS>BOND
     1     1     2    1
     2     2     3    1
     3     3     4    2
     4     3     5    1
     5     5     6    1
     6     6     7    2
     7     7     8    1
     8     8     9    2
     9     9    10    1
    10    10    11    2
    11    11    12    1
    12    12    13    1
    13    13    14    2
    14    14    15    1
    15    15    16    1
    16    16    17    1
    17    17    18    2
    18    18    19    1
    19    19    20    2
    20    20    21    1
    21    21    22    1
    22    22    23    1
    23    23    24    1
    24    24    25    1
    25    24    26    1
    26    26    27    1
    27    20    28    1
    28    28    29    2
    29    15    30    2
    30    30    31    1
    31    31    32    2
    32    32    33    1
    33    11     6    1
    34    32    13    1
    35    29    17    1
    36    27    21    1
@<TRIPOS>SUBSTRUCTURE
     1 RES1        1 GROUP             0 ****  ****    0  
@<TRIPOS>MOLECULE
ligand_88
    33    36     1     0     0
SMALL
USER_CHARGES
****
Generated from the CSD

@<TRIPOS>ATOM
     1 C1      -8.6280 -48.5909 -18.0109   C.3       1 RES1   0.0000
     2 C2      -8.1370 -50.0209 -18.2309   C.3       1 RES1   0.0000
     3 C3      -9.3500 -50.9539 -18.2099   C.2       1 RES1   0.0000
     4 O4     -10.4546 -50.5765 -17.9768   O.2       1 RES1   0.0000
     5 O5      -9.0672 -52.3138 -18.4869   O.3       1 RES1   0.0000
     6 C6     -10.1859 -53.2094 -18.4705   C.2       1 RES1   0.0000
     7 C7     -10.8015 -53.5766 -19.6690   C.2       1 RES1   0.0000
     8 C8     -11.8997 -54.4545 -19.6326   C.2       1 RES1   0.0000
     9 C9     -12.3571 -54.9376 -18.3946   C.2       1 RES1   0.0000
    10 C10    -11.7378 -54.5615 -17.1886   C.2       1 RES1   0.0000
    11 C11    -10.6421 -53.6833 -17.2260   C.2       1 RES1   0.0000
    12 N12     -9.9437 -53.2583 -15.9741   N.2       1 RES1   0.0000
    13 C13     -8.6293 -53.7660 -15.5631   C.2       1 RES1   0.0000
    14 N14     -7.9840 -54.6603 -16.3204   N.2       1 RES1   0.0000
    15 C15     -6.7969 -55.1198 -15.9539   C.2       1 RES1   0.0000
    16 N16     -6.0832 -56.1035 -16.7721   N.2       1 RES1   0.0000
    17 C17     -6.6286 -56.6747 -18.0175   C.2       1 RES1   0.0000
    18 C18     -7.9815 -56.9683 -18.0735   C.2       1 RES1   0.0000
    19 C19     -8.5366 -57.5038 -19.2440   C.2       1 RES1   0.0000
    20 C20     -7.7288 -57.7430 -20.3510   C.2       1 RES1   0.0000
    21 N21     -8.3356 -58.3148 -21.5790   N.pl3     1 RES1   0.0000
    22 C22     -7.9158 -57.9671 -22.9329   C.3       1 RES1   0.0000
    23 C23     -8.0055 -59.1781 -23.8287   C.3       1 RES1   0.0000
    24 N24     -9.3843 -59.7494 -23.8113   N.3       1 RES1   1.0000
    25 C25     -9.4298 -60.7743 -24.5770   C.2       1 RES1   0.0000
    26 C26     -9.8172 -60.0370 -22.4120   C.3       1 RES1   0.0000
    27 C27     -9.7077 -58.8032 -21.5515   C.3       1 RES1   0.0000
    28 C28     -6.3718 -57.4496 -20.3000   C.2       1 RES1   0.0000
    29 C29     -5.8216 -56.9098 -19.1302   C.2       1 RES1   0.0000
    30 N30     -6.2066 -54.7175 -14.8569   N.2       1 RES1   0.0000
    31 C31     -6.7731 -53.8303 -14.0485   C.2       1 RES1   0.0000
    32 C32     -8.0267 -53.3272 -14.4001   C.2       1 RES1   0.0000
    33 Cl33    -8.8062 -52.1388 -13.3357   Cl        1 RES1   0.0000
@<TRIPOS>BOND
     1     1     2    1
     2     2     3    1
     3     3     4    2
     4     3     5    1
     5     5     6    1
     6     6     7    2
     7     7     8    1
     8     8     9    2
     9     9    10    1
    10    10    11    2
    11    11    12    1
    12    12    13    1
    13    13    14    2
    14    14    15    1
    15    15    16    1
    16    16    17    1
    17    17    18    2
    18    18    19    1
    19    19    20    2
    20    20    21    1
    21    21    22    1
    22    22    23    1
    23    23    24    1
    24    24    25    1
    25    24    26    1
    26    26    27    1
    27    20    28    1
    28    28    29    2
    29    15    30    2
    30    30    31    1
    31    31    32    2
    32    32    33    1
    33    11     6    1
    34    32    13    1
    35    29    17    1
    36    27    21    1
@<TRIPOS>SUBSTRUCTURE
     1 RES1        1 GROUP             0 ****  ****    0  
@<TRIPOS>MOLECULE
ligand_89
    33    36     1     0     0
SMALL
USER_CHARGES
****
Generated from the CSD

@<TRIPOS>ATOM
     1 C1      -8.6279 -48.5911 -18.0109   C.3       1 RES1   0.0000
     2 C2      -8.1370 -50.0211 -18.2309   C.3       1 RES1   0.0000
     3 C3      -9.3500 -50.9541 -18.2100   C.2       1 RES1   0.0000
     4 O4     -10.4545 -50.5766 -17.9768   O.2       1 RES1   0.0000
     5 O5      -9.0673 -52.3140 -18.4869   O.3       1 RES1   0.0000
     6 C6     -10.1860 -53.2095 -18.4705   C.2       1 RES1   0.0000
     7 C7     -10.4283 -54.0005 -17.3455   C.2       1 RES1   0.0000
     8 C8     -11.5296 -54.8753 -17.3491   C.2       1 RES1   0.0000
     9 C9     -12.3570 -54.9395 -18.4832   C.2       1 RES1   0.0000
    10 C10    -12.1070 -54.1448 -19.6171   C.2       1 RES1   0.0000
    11 C11    -11.0058 -53.2728 -19.6131   C.2       1 RES1   0.0000
    12 N12    -10.7002 -52.4015 -20.7891   N.2       1 RES1   0.0000
    13 C13     -9.5834 -52.6408 -21.7109   C.2       1 RES1   0.0000
    14 N14     -8.7677 -53.6850 -21.5265   N.2       1 RES1   0.0000
    15 C15     -7.7596 -53.9055 -22.3570   C.2       1 RES1   0.0000
    16 N16     -6.8563 -55.0425 -22.1621   N.2       1 RES1   0.0000
    17 C17     -6.9698 -55.9875 -21.0358   C.2       1 RES1   0.0000
    18 C18     -7.3133 -55.4916 -19.7884   C.2       1 RES1   0.0000
    19 C19     -7.4392 -56.3617 -18.6966   C.2       1 RES1   0.0000
    20 C20     -7.2173 -57.7248 -18.8637   C.2       1 RES1   0.0000
    21 N21     -7.3512 -58.6281 -17.6937   N.pl3     1 RES1   0.0000
    22 C22     -7.8696 -59.9903 -17.7713   C.3       1 RES1   0.0000
    23 C23     -7.1382 -60.8779 -16.7945   C.3       1 RES1   0.0000
    24 N24     -7.2339 -60.3325 -15.4084   N.3       1 RES1   1.0000
    25 C25     -6.6041 -61.1035 -14.6035   C.2       1 RES1   0.0000
    26 C26     -6.7591 -58.9180 -15.3655   C.3       1 RES1   0.0000
    27 C27     -7.5119 -58.0683 -16.3584   C.3       1 RES1   0.0000
    28 C28     -6.8732 -58.2269 -20.1126   C.2       1 RES1   0.0000
    29 C29     -6.7534 -57.3549 -21.2026   C.2       1 RES1   0.0000
    30 N30     -7.5267 -53.1298 -23.3854   N.2       1 RES1   0.0000
    31 C31     -8.2875 -52.0738 -23.6455   C.2       1 RES1   0.0000
    32 C32     -9.3568 -51.8073 -22.7889   C.2       1 RES1   0.0000
    33 Cl33   -10.3902 -50.4006 -23.1149   Cl        1 RES1   0.0000
@<TRIPOS>BOND
     1     1     2    1
     2     2     3    1
     3     3     4    2
     4     3     5    1
     5     5     6    1
     6     6     7    2
     7     7     8    1
     8     8     9    2
     9     9    10    1
    10    10    11    2
    11    11    12    1
    12    12    13    1
    13    13    14    2
    14    14    15    1
    15    15    16    1
    16    16    17    1
    17    17    18    2
    18    18    19    1
    19    19    20    2
    20    20    21    1
    21    21    22    1
    22    22    23    1
    23    23    24    1
    24    24    25    1
    25    24    26    1
    26    26    27    1
    27    20    28    1
    28    28    29    2
    29    15    30    2
    30    30    31    1
    31    31    32    2
    32    32    33    1
    33    11     6    1
    34    32    13    1
    35    29    17    1
    36    27    21    1
@<TRIPOS>SUBSTRUCTURE
     1 RES1        1 GROUP             0 ****  ****    0  
@<TRIPOS>MOLECULE
ligand_90
    33    36     1     0     0
SMALL
USER_CHARGES
****
Generated from the CSD

@<TRIPOS>ATOM
     1 C1      -9.4110 -48.5102 -17.3141   C.3       1 RES1   0.0000
     2 C2      -8.6937 -49.8120 -17.6678   C.3       1 RES1   0.0000
     3 C3      -9.7470 -50.9080 -17.8452   C.2       1 RES1   0.0000
     4 O4     -10.9074 -50.7303 -17.6481   O.2       1 RES1   0.0000
     5 O5      -9.2431 -52.1644 -18.2619   O.3       1 RES1   0.0000
     6 C6     -10.2109 -53.2045 -18.4491   C.2       1 RES1   0.0000
     7 C7     -11.2492 -53.0325 -19.3670   C.2       1 RES1   0.0000
     8 C8     -12.1911 -54.0635 -19.5349   C.2       1 RES1   0.0000
     9 C9     -12.0716 -55.2389 -18.7739   C.2       1 RES1   0.0000
    10 C10    -11.0271 -55.4069 -17.8463   C.2       1 RES1   0.0000
    11 C11    -10.0881 -54.3758 -17.6780   C.2       1 RES1   0.0000
    12 N12     -8.9551 -54.5067 -16.7112   N.2       1 RES1   0.0000
    13 C13     -8.8233 -55.6141 -15.7570   C.2       1 RES1   0.0000
    14 N14     -9.8038 -56.5153 -15.6289   N.2       1 RES1   0.0000
    15 C15     -9.6882 -57.5172 -14.7702   C.2       1 RES1   0.0000
    16 N16    -10.7576 -58.5069 -14.6171   N.2       1 RES1   0.0000
    17 C17    -12.0474 -58.4270 -15.3274   C.2       1 RES1   0.0000
    18 C18    -12.6729 -59.6067 -15.6975   C.2       1 RES1   0.0000
    19 C19    -13.9044 -59.5695 -16.3661   C.2       1 RES1   0.0000
    20 C20    -14.4995 -58.3471 -16.6608   C.2       1 RES1   0.0000
    21 N21    -15.8013 -58.3299 -17.3735   N.pl3     1 RES1   0.0000
    22 C22    -16.2150 -57.2286 -18.2534   C.3       1 RES1   0.0000
    23 C23    -15.9648 -57.5523 -19.7009   C.3       1 RES1   0.0000
    24 N24    -16.6043 -58.8393 -20.0976   N.3       1 RES1   1.0000
    25 C25    -16.3809 -59.1085 -21.3290   C.2       1 RES1   0.0000
    26 C26    -16.1643 -59.9405 -19.1863   C.3       1 RES1   0.0000
    27 C27    -16.4603 -59.5619 -17.7552   C.3       1 RES1   0.0000
    28 C28    -13.8766 -57.1616 -16.2913   C.2       1 RES1   0.0000
    29 C29    -12.6484 -57.2028 -15.6186   C.2       1 RES1   0.0000
    30 N30     -8.6213 -57.6740 -14.0280   N.2       1 RES1   0.0000
    31 C31     -7.5996 -56.8293 -14.0928   C.2       1 RES1   0.0000
    32 C32     -7.6880 -55.7582 -14.9834   C.2       1 RES1   0.0000
    33 Cl33    -6.3345 -54.6137 -15.0895   Cl        1 RES1   0.0000
@<TRIPOS>BOND
     1     1     2    1
     2     2     3    1
     3     3     4    2
     4     3     5    1
     5     5     6    1
     6     6     7    2
     7     7     8    1
     8     8     9    2
     9     9    10    1
    10    10    11    2
    11    11    12    1
    12    12    13    1
    13    13    14    2
    14    14    15    1
    15    15    16    1
    16    16    17    1
    17    17    18    2
    18    18    19    1
    19    19    20    2
    20    20    21    1
    21    21    22    1
    22    22    23    1
    23    23    24    1
    24    24    25    1
    25    24    26    1
    26    26    27    1
    27    20    28    1
    28    28    29    2
    29    15    30    2
    30    30    31    1
    31    31    32    2
    32    32    33    1
    33    11     6    1
    34    32    13    1
    35    29    17    1
    36    27    21    1
@<TRIPOS>SUBSTRUCTURE
     1 RES1        1 GROUP             0 ****  ****    0  
@<TRIPOS>MOLECULE
ligand_91
    33    36     1     0     0
SMALL
USER_CHARGES
****
Generated from the CSD

@<TRIPOS>ATOM
     1 C1      -8.6749 -48.5858 -17.8937   C.3       1 RES1   0.0000
     2 C2      -8.1717 -50.0022 -18.1675   C.3       1 RES1   0.0000
     3 C3      -9.3720 -50.9514 -18.1439   C.2       1 RES1   0.0000
     4 O4     -10.4750 -50.5956 -17.8726   O.2       1 RES1   0.0000
     5 O5      -9.0792 -52.2989 -18.4674   O.3       1 RES1   0.0000
     6 C6     -10.1887 -53.2060 -18.4660   C.2       1 RES1   0.0000
     7 C7     -11.2780 -52.9750 -19.3087   C.2       1 RES1   0.0000
     8 C8     -12.3588 -53.8749 -19.2913   C.2       1 RES1   0.0000
     9 C9     -12.3229 -54.9808 -18.4249   C.2       1 RES1   0.0000
    10 C10    -11.2260 -55.2078 -17.5735   C.2       1 RES1   0.0000
    11 C11    -10.1479 -54.3074 -17.5904   C.2       1 RES1   0.0000
    12 N12     -8.9551 -54.5067 -16.7112   N.2       1 RES1   0.0000
    13 C13     -8.8233 -55.6141 -15.7570   C.2       1 RES1   0.0000
    14 N14     -9.8038 -56.5153 -15.6289   N.2       1 RES1   0.0000
    15 C15     -9.6882 -57.5172 -14.7702   C.2       1 RES1   0.0000
    16 N16    -10.7576 -58.5069 -14.6171   N.2       1 RES1   0.0000
    17 C17    -10.6621 -59.6755 -13.7228   C.2       1 RES1   0.0000
    18 C18    -11.8112 -60.1174 -13.0870   C.2       1 RES1   0.0000
    19 C19    -11.7600 -61.2308 -12.2368   C.2       1 RES1   0.0000
    20 C20    -10.5543 -61.8926 -12.0287   C.2       1 RES1   0.0000
    21 N21    -10.5210 -63.0665 -11.1209   N.pl3     1 RES1   0.0000
    22 C22     -9.3274 -63.4496 -10.3550   C.3       1 RES1   0.0000
    23 C23     -9.3957 -62.9517  -8.9372   C.3       1 RES1   0.0000
    24 N24    -10.6470 -63.3922  -8.2569   N.3       1 RES1   1.0000
    25 C25    -10.6983 -62.9589  -7.0534   C.2       1 RES1   0.0000
    26 C26    -11.8436 -62.9879  -9.0578   C.3       1 RES1   0.0000
    27 C27    -11.7222 -63.5338 -10.4600   C.3       1 RES1   0.0000
    28 C28     -9.3996 -61.4538 -12.6644   C.2       1 RES1   0.0000
    29 C29     -9.4556 -60.3438 -13.5174   C.2       1 RES1   0.0000
    30 N30     -8.6213 -57.6740 -14.0280   N.2       1 RES1   0.0000
    31 C31     -7.5996 -56.8293 -14.0928   C.2       1 RES1   0.0000
    32 C32     -7.6880 -55.7582 -14.9834   C.2       1 RES1   0.0000
    33 Cl33    -6.3345 -54.6137 -15.0895   Cl        1 RES1   0.0000
@<TRIPOS>BOND
     1     1     2    1
     2     2     3    1
     3     3     4    2
     4     3     5    1
     5     5     6    1
     6     6     7    2
     7     7     8    1
     8     8     9    2
     9     9    10    1
    10    10    11    2
    11    11    12    1
    12    12    13    1
    13    13    14    2
    14    14    15    1
    15    15    16    1
    16    16    17    1
    17    17    18    2
    18    18    19    1
    19    19    20    2
    20    20    21    1
    21    21    22    1
    22    22    23    1
    23    23    24    1
    24    24    25    1
    25    24    26    1
    26    26    27    1
    27    20    28    1
    28    28    29    2
    29    15    30    2
    30    30    31    1
    31    31    32    2
    32    32    33    1
    33    11     6    1
    34    32    13    1
    35    29    17    1
    36    27    21    1
@<TRIPOS>SUBSTRUCTURE
     1 RES1        1 GROUP             0 ****  ****    0  
@<TRIPOS>MOLECULE
ligand_92
    33    36     1     0     0
SMALL
USER_CHARGES
****
Generated from the CSD

@<TRIPOS>ATOM
     1 C1      -8.0862 -48.9449 -17.6860   C.3       1 RES1   0.0000
     2 C2      -7.7563 -50.4094 -17.9701   C.3       1 RES1   0.0000
     3 C3      -9.0692 -51.1928 -18.0398   C.2       1 RES1   0.0000
     4 O4     -10.1306 -50.7005 -17.8209   O.2       1 RES1   0.0000
     5 O5      -8.9357 -52.5603 -18.3835   O.3       1 RES1   0.0000
     6 C6     -10.1491 -53.3210 -18.4383   C.2       1 RES1   0.0000
     7 C7     -10.9452 -53.4450 -17.2977   C.2       1 RES1   0.0000
     8 C8     -12.1311 -54.1977 -17.3702   C.2       1 RES1   0.0000
     9 C9     -12.4860 -54.8123 -18.5832   C.2       1 RES1   0.0000
    10 C10    -11.6790 -54.6895 -19.7292   C.2       1 RES1   0.0000
    11 C11    -10.4939 -53.9390 -19.6551   C.2       1 RES1   0.0000
    12 N12     -9.6047 -53.7710 -20.8454   N.2       1 RES1   0.0000
    13 C13     -9.3523 -54.8311 -21.8287   C.2       1 RES1   0.0000
    14 N14     -9.9009 -56.0412 -21.6727   N.2       1 RES1   0.0000
    15 C15     -9.6770 -57.0001 -22.5586   C.2       1 RES1   0.0000
    16 N16    -10.2676 -58.3310 -22.3955   N.2       1 RES1   0.0000
    17 C17    -11.2501 -58.6617 -21.3467   C.2       1 RES1   0.0000
    18 C18    -12.2163 -57.7219 -21.0255   C.2       1 RES1   0.0000
    19 C19    -13.1721 -58.0053 -20.0399   C.2       1 RES1   0.0000
    20 C20    -13.1504 -59.2304 -19.3813   C.2       1 RES1   0.0000
    21 N21    -14.1685 -59.5085 -18.3377   N.pl3     1 RES1   0.0000
    22 C22    -13.9932 -60.4866 -17.2687   C.3       1 RES1   0.0000
    23 C23    -14.6440 -59.9892 -16.0014   C.3       1 RES1   0.0000
    24 N24    -16.0860 -59.6807 -16.2318   N.3       1 RES1   1.0000
    25 C25    -16.6104 -59.2600 -15.1424   C.2       1 RES1   0.0000
    26 C26    -16.2452 -58.7289 -17.3707   C.3       1 RES1   0.0000
    27 C27    -15.5775 -59.2621 -18.6136   C.3       1 RES1   0.0000
    28 C28    -12.1840 -60.1761 -19.7003   C.2       1 RES1   0.0000
    29 C29    -11.2336 -59.8915 -20.6895   C.2       1 RES1   0.0000
    30 N30     -8.9294 -56.8063 -23.6156   N.2       1 RES1   0.0000
    31 C31     -8.3490 -55.6360 -23.8508   C.2       1 RES1   0.0000
    32 C32     -8.5586 -54.6028 -22.9360   C.2       1 RES1   0.0000
    33 Cl33    -7.7935 -53.0273 -23.2277   Cl        1 RES1   0.0000
@<TRIPOS>BOND
     1     1     2    1
     2     2     3    1
     3     3     4    2
     4     3     5    1
     5     5     6    1
     6     6     7    2
     7     7     8    1
     8     8     9    2
     9     9    10    1
    10    10    11    2
    11    11    12    1
    12    12    13    1
    13    13    14    2
    14    14    15    1
    15    15    16    1
    16    16    17    1
    17    17    18    2
    18    18    19    1
    19    19    20    2
    20    20    21    1
    21    21    22    1
    22    22    23    1
    23    23    24    1
    24    24    25    1
    25    24    26    1
    26    26    27    1
    27    20    28    1
    28    28    29    2
    29    15    30    2
    30    30    31    1
    31    31    32    2
    32    32    33    1
    33    11     6    1
    34    32    13    1
    35    29    17    1
    36    27    21    1
@<TRIPOS>SUBSTRUCTURE
     1 RES1        1 GROUP             0 ****  ****    0  
@<TRIPOS>MOLECULE
ligand_93
    33    36     1     0     0
SMALL
USER_CHARGES
****
Generated from the CSD

@<TRIPOS>ATOM
     1 C1      -8.4085 -48.7048 -18.3166   C.3       1 RES1   0.0000
     2 C2      -7.9948 -50.1628 -18.5097   C.3       1 RES1   0.0000
     3 C3      -9.2425 -51.0385 -18.3720   C.2       1 RES1   0.0000
     4 O4     -10.3119 -50.6029 -18.0830   O.2       1 RES1   0.0000
     5 O5      -9.0372 -52.4193 -18.6112   O.3       1 RES1   0.0000
     6 C6     -10.1928 -53.2597 -18.5018   C.2       1 RES1   0.0000
     7 C7     -11.3041 -53.0247 -19.3141   C.2       1 RES1   0.0000
     8 C8     -12.4300 -53.8585 -19.1904   C.2       1 RES1   0.0000
     9 C9     -12.4157 -54.9036 -18.2509   C.2       1 RES1   0.0000
    10 C10    -11.2962 -55.1344 -17.4304   C.2       1 RES1   0.0000
    11 C11    -10.1730 -54.2999 -17.5535   C.2       1 RES1   0.0000
    12 N12     -8.9551 -54.5067 -16.7112   N.2       1 RES1   0.0000
    13 C13     -8.4951 -55.8237 -16.2551   C.2       1 RES1   0.0000
    14 N14     -9.1524 -56.9312 -16.6173   N.2       1 RES1   0.0000
    15 C15     -8.7396 -58.1218 -16.2093   C.2       1 RES1   0.0000
    16 N16     -9.4546 -59.3412 -16.5947   N.2       1 RES1   0.0000
    17 C17     -9.0943 -60.6845 -16.1046   C.2       1 RES1   0.0000
    18 C18     -8.6492 -60.8148 -14.7989   C.2       1 RES1   0.0000
    19 C19     -8.3065 -62.0776 -14.2959   C.2       1 RES1   0.0000
    20 C20     -8.4111 -63.2020 -15.1082   C.2       1 RES1   0.0000
    21 N21     -8.0387 -64.5291 -14.5576   N.pl3     1 RES1   0.0000
    22 C22     -8.0280 -64.8460 -13.1329   C.3       1 RES1   0.0000
    23 C23     -8.4705 -66.2725 -12.9176   C.3       1 RES1   0.0000
    24 N24     -7.6152 -67.2161 -13.6961   N.3       1 RES1   1.0000
    25 C25     -8.0143 -68.4158 -13.4959   C.2       1 RES1   0.0000
    26 C26     -7.5893 -66.8346 -15.1390   C.3       1 RES1   0.0000
    27 C27     -7.1467 -65.4027 -15.3081   C.3       1 RES1   0.0000
    28 C28     -8.8575 -63.0767 -16.4178   C.2       1 RES1   0.0000
    29 C29     -9.2041 -61.8137 -16.9155   C.2       1 RES1   0.0000
    30 N30     -7.6802 -58.2666 -15.4541   N.2       1 RES1   0.0000
    31 C31     -6.9666 -57.2227 -15.0509   C.2       1 RES1   0.0000
    32 C32     -7.3745 -55.9513 -15.4575   C.2       1 RES1   0.0000
    33 Cl33    -6.4369 -54.5380 -14.9318   Cl        1 RES1   0.0000
@<TRIPOS>BOND
     1     1     2    1
     2     2     3    1
     3     3     4    2
     4     3     5    1
     5     5     6    1
     6     6     7    2
     7     7     8    1
     8     8     9    2
     9     9    10    1
    10    10    11    2
    11    11    12    1
    12    12    13    1
    13    13    14    2
    14    14    15    1
    15    15    16    1
    16    16    17    1
    17    17    18    2
    18    18    19    1
    19    19    20    2
    20    20    21    1
    21    21    22    1
    22    22    23    1
    23    23    24    1
    24    24    25    1
    25    24    26    1
    26    26    27    1
    27    20    28    1
    28    28    29    2
    29    15    30    2
    30    30    31    1
    31    31    32    2
    32    32    33    1
    33    11     6    1
    34    32    13    1
    35    29    17    1
    36    27    21    1
@<TRIPOS>SUBSTRUCTURE
     1 RES1        1 GROUP             0 ****  ****    0  
@<TRIPOS>MOLECULE
ligand_94
    33    36     1     0     0
SMALL
USER_CHARGES
****
Generated from the CSD

@<TRIPOS>ATOM
     1 C1      -9.6200 -48.3722 -17.8936   C.3       1 RES1   0.0000
     2 C2      -8.8524 -49.6673 -18.1539   C.3       1 RES1   0.0000
     3 C3      -9.8514 -50.8267 -18.1513   C.2       1 RES1   0.0000
     4 O4     -11.0070 -50.6865 -17.9025   O.2       1 RES1   0.0000
     5 O5      -9.3025 -52.0940 -18.4656   O.3       1 RES1   0.0000
     6 C6     -10.2169 -53.1975 -18.4671   C.2       1 RES1   0.0000
     7 C7     -10.7580 -53.6518 -19.6716   C.2       1 RES1   0.0000
     8 C8     -11.6557 -54.7343 -19.6527   C.2       1 RES1   0.0000
     9 C9     -11.9930 -55.3305 -18.4256   C.2       1 RES1   0.0000
    10 C10    -11.4499 -54.8670 -17.2132   C.2       1 RES1   0.0000
    11 C11    -10.5548 -53.7846 -17.2331   C.2       1 RES1   0.0000
    12 N12     -9.9437 -53.2583 -15.9741   N.2       1 RES1   0.0000
    13 C13    -10.3420 -53.6964 -14.6311   C.2       1 RES1   0.0000
    14 N14    -11.3823 -54.5222 -14.4712   N.2       1 RES1   0.0000
    15 C15    -11.7441 -54.9213 -13.2611   C.2       1 RES1   0.0000
    16 N16    -12.8851 -55.8210 -13.0730   N.2       1 RES1   0.0000
    17 C17    -13.7494 -56.2799 -14.1762   C.2       1 RES1   0.0000
    18 C18    -14.2950 -57.5515 -14.1039   C.2       1 RES1   0.0000
    19 C19    -15.1286 -58.0179 -15.1299   C.2       1 RES1   0.0000
    20 C20    -15.4076 -57.2048 -16.2237   C.2       1 RES1   0.0000
    21 N21    -16.2888 -57.7197 -17.3014   N.pl3     1 RES1   0.0000
    22 C22    -15.7743 -58.2102 -18.5870   C.3       1 RES1   0.0000
    23 C23    -15.6697 -59.7107 -18.6055   C.3       1 RES1   0.0000
    24 N24    -16.9646 -60.3590 -18.2511   N.3       1 RES1   1.0000
    25 C25    -16.8637 -61.6351 -18.2641   C.2       1 RES1   0.0000
    26 C26    -17.4626 -59.8418 -16.9392   C.3       1 RES1   0.0000
    27 C27    -17.5627 -58.3364 -16.9937   C.3       1 RES1   0.0000
    28 C28    -14.8634 -55.9289 -16.3004   C.2       1 RES1   0.0000
    29 C29    -14.0350 -55.4642 -15.2706   C.2       1 RES1   0.0000
    30 N30    -11.1030 -54.5402 -12.1853   N.2       1 RES1   0.0000
    31 C31    -10.0578 -53.7249 -12.2517   C.2       1 RES1   0.0000
    32 C32     -9.6504 -53.2798 -13.5103   C.2       1 RES1   0.0000
    33 Cl33    -8.2546 -52.1884 -13.6265   Cl        1 RES1   0.0000
@<TRIPOS>BOND
     1     1     2    1
     2     2     3    1
     3     3     4    2
     4     3     5    1
     5     5     6    1
     6     6     7    2
     7     7     8    1
     8     8     9    2
     9     9    10    1
    10    10    11    2
    11    11    12    1
    12    12    13    1
    13    13    14    2
    14    14    15    1
    15    15    16    1
    16    16    17    1
    17    17    18    2
    18    18    19    1
    19    19    20    2
    20    20    21    1
    21    21    22    1
    22    22    23    1
    23    23    24    1
    24    24    25    1
    25    24    26    1
    26    26    27    1
    27    20    28    1
    28    28    29    2
    29    15    30    2
    30    30    31    1
    31    31    32    2
    32    32    33    1
    33    11     6    1
    34    32    13    1
    35    29    17    1
    36    27    21    1
@<TRIPOS>SUBSTRUCTURE
     1 RES1        1 GROUP             0 ****  ****    0  
@<TRIPOS>MOLECULE
ligand_95
    33    36     1     0     0
SMALL
USER_CHARGES
****
Generated from the CSD

@<TRIPOS>ATOM
     1 C1      -7.7520 -48.9950 -18.2920   C.3       1 RES1   0.0000
     2 C2      -7.5569 -50.4970 -18.4929   C.3       1 RES1   0.0000
     3 C3      -8.9195 -51.1807 -18.3583   C.2       1 RES1   0.0000
     4 O4      -9.9133 -50.5943 -18.0661   O.2       1 RES1   0.0000
     5 O5      -8.9191 -52.5754 -18.6047   O.3       1 RES1   0.0000
     6 C6     -10.1827 -53.2405 -18.4823   C.2       1 RES1   0.0000
     7 C7     -10.4885 -53.9452 -17.3162   C.2       1 RES1   0.0000
     8 C8     -11.7325 -54.5938 -17.2156   C.2       1 RES1   0.0000
     9 C9     -12.6364 -54.5244 -18.2895   C.2       1 RES1   0.0000
    10 C10    -12.3230 -53.8177 -19.4650   C.2       1 RES1   0.0000
    11 C11    -11.0795 -53.1719 -19.5651   C.2       1 RES1   0.0000
    12 N12    -10.7002 -52.4015 -20.7891   N.2       1 RES1   0.0000
    13 C13    -11.4932 -52.3939 -22.0242   C.2       1 RES1   0.0000
    14 N14    -12.5573 -53.1952 -22.1482   N.2       1 RES1   0.0000
    15 C15    -13.2766 -53.1903 -23.2605   C.2       1 RES1   0.0000
    16 N16    -14.4406 -54.0674 -23.4102   N.2       1 RES1   0.0000
    17 C17    -14.8490 -55.0569 -22.3960   C.2       1 RES1   0.0000
    18 C18    -16.1997 -55.3212 -22.2361   C.2       1 RES1   0.0000
    19 C19    -16.6242 -56.2625 -21.2880   C.2       1 RES1   0.0000
    20 C20    -15.6893 -56.9314 -20.5046   C.2       1 RES1   0.0000
    21 N21    -16.1602 -57.9207 -19.5033   N.pl3     1 RES1   0.0000
    22 C22    -16.2323 -57.6286 -18.0654   C.3       1 RES1   0.0000
    23 C23    -17.6263 -57.2491 -17.6465   C.3       1 RES1   0.0000
    24 N24    -18.6236 -58.2829 -18.0455   N.3       1 RES1   1.0000
    25 C25    -19.8068 -57.9481 -17.6897   C.2       1 RES1   0.0000
    26 C26    -18.5278 -58.5583 -19.5123   C.3       1 RES1   0.0000
    27 C27    -17.1127 -58.9511 -19.8622   C.3       1 RES1   0.0000
    28 C28    -14.3339 -56.6703 -20.6616   C.2       1 RES1   0.0000
    29 C29    -13.9130 -55.7327 -21.6138   C.2       1 RES1   0.0000
    30 N30    -12.9892 -52.4055 -24.2681   N.2       1 RES1   0.0000
    31 C31    -11.9536 -51.5763 -24.2294   C.2       1 RES1   0.0000
    32 C32    -11.1696 -51.5573 -23.0747   C.2       1 RES1   0.0000
    33 Cl33    -9.7784 -50.4568 -22.9975   Cl        1 RES1   0.0000
@<TRIPOS>BOND
     1     1     2    1
     2     2     3    1
     3     3     4    2
     4     3     5    1
     5     5     6    1
     6     6     7    2
     7     7     8    1
     8     8     9    2
     9     9    10    1
    10    10    11    2
    11    11    12    1
    12    12    13    1
    13    13    14    2
    14    14    15    1
    15    15    16    1
    16    16    17    1
    17    17    18    2
    18    18    19    1
    19    19    20    2
    20    20    21    1
    21    21    22    1
    22    22    23    1
    23    23    24    1
    24    24    25    1
    25    24    26    1
    26    26    27    1
    27    20    28    1
    28    28    29    2
    29    15    30    2
    30    30    31    1
    31    31    32    2
    32    32    33    1
    33    11     6    1
    34    32    13    1
    35    29    17    1
    36    27    21    1
@<TRIPOS>SUBSTRUCTURE
     1 RES1        1 GROUP             0 ****  ****    0  
@<TRIPOS>MOLECULE
ligand_96
    33    36     1     0     0
SMALL
USER_CHARGES
****
Generated from the CSD

@<TRIPOS>ATOM
     1 C1      -8.7443 -48.5503 -17.9890   C.3       1 RES1   0.0000
     2 C2      -8.2195 -49.9670 -18.2174   C.3       1 RES1   0.0000
     3 C3      -9.4098 -50.9289 -18.1990   C.2       1 RES1   0.0000
     4 O4     -10.5226 -50.5793 -17.9619   O.2       1 RES1   0.0000
     5 O5      -9.0950 -52.2802 -18.4836   O.3       1 RES1   0.0000
     6 C6     -10.1918 -53.2025 -18.4698   C.2       1 RES1   0.0000
     7 C7     -10.8006 -53.5782 -19.6691   C.2       1 RES1   0.0000
     8 C8     -11.8775 -54.4823 -19.6352   C.2       1 RES1   0.0000
     9 C9     -12.3208 -54.9826 -18.3990   C.2       1 RES1   0.0000
    10 C10    -11.7083 -54.5980 -17.1921   C.2       1 RES1   0.0000
    11 C11    -10.6341 -53.6935 -17.2269   C.2       1 RES1   0.0000
    12 N12     -9.9437 -53.2583 -15.9741   N.2       1 RES1   0.0000
    13 C13    -10.3420 -53.6964 -14.6311   C.2       1 RES1   0.0000
    14 N14    -11.3823 -54.5222 -14.4712   N.2       1 RES1   0.0000
    15 C15    -11.7441 -54.9213 -13.2611   C.2       1 RES1   0.0000
    16 N16    -12.8851 -55.8210 -13.0730   N.2       1 RES1   0.0000
    17 C17    -13.2985 -56.3463 -11.7586   C.2       1 RES1   0.0000
    18 C18    -14.6491 -56.5437 -11.5202   C.2       1 RES1   0.0000
    19 C19    -15.0781 -57.0502 -10.2855   C.2       1 RES1   0.0000
    20 C20    -14.1479 -57.3536  -9.2967   C.2       1 RES1   0.0000
    21 N21    -14.6236 -57.8844  -7.9948   N.pl3     1 RES1   0.0000
    22 C22    -14.7152 -57.0602  -6.7822   C.3       1 RES1   0.0000
    23 C23    -16.1169 -56.5642  -6.5542   C.3       1 RES1   0.0000
    24 N24    -17.1017 -57.6833  -6.5308   N.3       1 RES1   1.0000
    25 C25    -18.2916 -57.2506  -6.3421   C.2       1 RES1   0.0000
    26 C26    -16.9861 -58.5031  -7.7763   C.3       1 RES1   0.0000
    27 C27    -15.5641 -58.9843  -7.9354   C.3       1 RES1   0.0000
    28 C28    -12.7926 -57.1580  -9.5311   C.2       1 RES1   0.0000
    29 C29    -12.3672 -56.6565 -10.7682   C.2       1 RES1   0.0000
    30 N30    -11.1030 -54.5402 -12.1853   N.2       1 RES1   0.0000
    31 C31    -10.0578 -53.7249 -12.2517   C.2       1 RES1   0.0000
    32 C32     -9.6504 -53.2798 -13.5103   C.2       1 RES1   0.0000
    33 Cl33    -8.2546 -52.1884 -13.6265   Cl        1 RES1   0.0000
@<TRIPOS>BOND
     1     1     2    1
     2     2     3    1
     3     3     4    2
     4     3     5    1
     5     5     6    1
     6     6     7    2
     7     7     8    1
     8     8     9    2
     9     9    10    1
    10    10    11    2
    11    11    12    1
    12    12    13    1
    13    13    14    2
    14    14    15    1
    15    15    16    1
    16    16    17    1
    17    17    18    2
    18    18    19    1
    19    19    20    2
    20    20    21    1
    21    21    22    1
    22    22    23    1
    23    23    24    1
    24    24    25    1
    25    24    26    1
    26    26    27    1
    27    20    28    1
    28    28    29    2
    29    15    30    2
    30    30    31    1
    31    31    32    2
    32    32    33    1
    33    11     6    1
    34    32    13    1
    35    29    17    1
    36    27    21    1
@<TRIPOS>SUBSTRUCTURE
     1 RES1        1 GROUP             0 ****  ****    0  
@<TRIPOS>MOLECULE
ligand_97
    33    36     1     0     0
SMALL
USER_CHARGES
****
Generated from the CSD

@<TRIPOS>ATOM
     1 C1      -8.5154 -48.6329 -18.0403   C.3       1 RES1   0.0000
     2 C2      -8.0587 -50.0740 -18.2621   C.3       1 RES1   0.0000
     3 C3      -9.2920 -50.9795 -18.2268   C.2       1 RES1   0.0000
     4 O4     -10.3854 -50.5770 -17.9834   O.2       1 RES1   0.0000
     5 O5      -9.0426 -52.3460 -18.5036   O.3       1 RES1   0.0000
     6 C6     -10.1808 -53.2163 -18.4740   C.2       1 RES1   0.0000
     7 C7     -10.4294 -53.9993 -17.3449   C.2       1 RES1   0.0000
     8 C8     -11.5499 -54.8493 -17.3355   C.2       1 RES1   0.0000
     9 C9     -12.3900 -54.8972 -18.4611   C.2       1 RES1   0.0000
    10 C10    -12.1338 -54.1106 -19.5992   C.2       1 RES1   0.0000
    11 C11    -11.0133 -53.2634 -19.6082   C.2       1 RES1   0.0000
    12 N12    -10.7002 -52.4015 -20.7891   N.2       1 RES1   0.0000
    13 C13    -11.4932 -52.3939 -22.0242   C.2       1 RES1   0.0000
    14 N14    -12.5573 -53.1952 -22.1482   N.2       1 RES1   0.0000
    15 C15    -13.2766 -53.1903 -23.2605   C.2       1 RES1   0.0000
    16 N16    -14.4406 -54.0674 -23.4102   N.2       1 RES1   0.0000
    17 C17    -15.3138 -54.0642 -24.5986   C.2       1 RES1   0.0000
    18 C18    -15.8724 -55.2629 -25.0121   C.2       1 RES1   0.0000
    19 C19    -16.7146 -55.2963 -26.1321   C.2       1 RES1   0.0000
    20 C20    -16.9893 -54.1256 -26.8315   C.2       1 RES1   0.0000
    21 N21    -17.8799 -54.1838 -28.0175   N.pl3     1 RES1   0.0000
    22 C22    -17.3754 -54.1517 -29.3968   C.3       1 RES1   0.0000
    23 C23    -17.2865 -55.5327 -29.9863   C.3       1 RES1   0.0000
    24 N24    -18.5868 -56.2565 -29.8960   N.3       1 RES1   1.0000
    25 C25    -18.4992 -57.4321 -30.3950   C.2       1 RES1   0.0000
    26 C26    -19.0743 -56.2740 -28.4823   C.3       1 RES1   0.0000
    27 C27    -19.1590 -54.8607 -27.9585   C.3       1 RES1   0.0000
    28 C28    -16.4321 -52.9212 -26.4204   C.2       1 RES1   0.0000
    29 C29    -15.5949 -52.8908 -25.2975   C.2       1 RES1   0.0000
    30 N30    -12.9892 -52.4055 -24.2681   N.2       1 RES1   0.0000
    31 C31    -11.9536 -51.5763 -24.2294   C.2       1 RES1   0.0000
    32 C32    -11.1696 -51.5573 -23.0747   C.2       1 RES1   0.0000
    33 Cl33    -9.7784 -50.4568 -22.9975   Cl        1 RES1   0.0000
@<TRIPOS>BOND
     1     1     2    1
     2     2     3    1
     3     3     4    2
     4     3     5    1
     5     5     6    1
     6     6     7    2
     7     7     8    1
     8     8     9    2
     9     9    10    1
    10    10    11    2
    11    11    12    1
    12    12    13    1
    13    13    14    2
    14    14    15    1
    15    15    16    1
    16    16    17    1
    17    17    18    2
    18    18    19    1
    19    19    20    2
    20    20    21    1
    21    21    22    1
    22    22    23    1
    23    23    24    1
    24    24    25    1
    25    24    26    1
    26    26    27    1
    27    20    28    1
    28    28    29    2
    29    15    30    2
    30    30    31    1
    31    31    32    2
    32    32    33    1
    33    11     6    1
    34    32    13    1
    35    29    17    1
    36    27    21    1
@<TRIPOS>SUBSTRUCTURE
     1 RES1        1 GROUP             0 ****  ****    0  
@<TRIPOS>MOLECULE
ligand_98
    33    36     1     0     0
SMALL
USER_CHARGES
****
Generated from the CSD

@<TRIPOS>ATOM
     1 C1      -9.2033 -48.0211 -18.1796   C.3       1 RES1   0.0000
     2 C2      -8.4494 -49.3375 -18.3615   C.3       1 RES1   0.0000
     3 C3      -9.4592 -50.4846 -18.2796   C.2       1 RES1   0.0000
     4 O4      -9.1375 -51.6246 -18.1622   O.2       1 RES1   0.0000
     5 O5     -10.8188 -50.0954 -18.3568   O.3       1 RES1   0.0000
     6 C6     -11.7850 -51.1514 -18.2855   C.2       1 RES1   0.0000
     7 C7     -12.4184 -51.4349 -17.0737   C.2       1 RES1   0.0000
     8 C8     -13.3618 -52.4768 -17.0228   C.2       1 RES1   0.0000
     9 C9     -13.6422 -53.2123 -18.1870   C.2       1 RES1   0.0000
    10 C10    -12.9984 -52.9272 -19.4052   C.2       1 RES1   0.0000
    11 C11    -12.0550 -51.8876 -19.4545   C.2       1 RES1   0.0000
    12 N12    -11.3482 -51.5392 -20.7252   N.2       1 RES1   0.0000
    13 C13    -11.6619 -52.1468 -22.0239   C.2       1 RES1   0.0000
    14 N14    -12.7042 -52.9764 -22.1470   N.2       1 RES1   0.0000
    15 C15    -12.9918 -53.5256 -23.3176   C.2       1 RES1   0.0000
    16 N16    -14.1273 -54.4399 -23.4635   N.2       1 RES1   0.0000
    17 C17    -15.0559 -54.7651 -22.3651   C.2       1 RES1   0.0000
    18 C18    -15.5311 -56.0626 -22.2630   C.2       1 RES1   0.0000
    19 C19    -16.4083 -56.4103 -21.2263   C.2       1 RES1   0.0000
    20 C20    -16.8046 -55.4518 -20.2992   C.2       1 RES1   0.0000
    21 N21    -17.7377 -55.8396 -19.2120   N.pl3     1 RES1   0.0000
    22 C22    -17.9091 -57.2084 -18.7352   C.3       1 RES1   0.0000
    23 C23    -18.1525 -57.2101 -17.2460   C.3       1 RES1   0.0000
    24 N24    -19.3275 -56.3573 -16.9000   N.3       1 RES1   1.0000
    25 C25    -19.5085 -56.3763 -15.6328   C.2       1 RES1   0.0000
    26 C26    -19.1598 -54.9809 -17.4527   C.3       1 RES1   0.0000
    27 C27    -18.9148 -55.0255 -18.9402   C.3       1 RES1   0.0000
    28 C28    -16.3303 -54.1496 -20.3969   C.2       1 RES1   0.0000
    29 C29    -15.4497 -53.8071 -21.4314   C.2       1 RES1   0.0000
    30 N30    -12.2864 -53.2764 -24.3918   N.2       1 RES1   0.0000
    31 C31    -11.2380 -52.4631 -24.3613   C.2       1 RES1   0.0000
    32 C32    -10.9019 -51.8695 -23.1436   C.2       1 RES1   0.0000
    33 Cl33    -9.5038 -50.7771 -23.0759   Cl        1 RES1   0.0000
@<TRIPOS>BOND
     1     1     2    1
     2     2     3    1
     3     3     4    2
     4     3     5    1
     5     5     6    1
     6     6     7    2
     7     7     8    1
     8     8     9    2
     9     9    10    1
    10    10    11    2
    11    11    12    1
    12    12    13    1
    13    13    14    2
    14    14    15    1
    15    15    16    1
    16    16    17    1
    17    17    18    2
    18    18    19    1
    19    19    20    2
    20    20    21    1
    21    21    22    1
    22    22    23    1
    23    23    24    1
    24    24    25    1
    25    24    26    1
    26    26    27    1
    27    20    28    1
    28    28    29    2
    29    15    30    2
    30    30    31    1
    31    31    32    2
    32    32    33    1
    33    11     6    1
    34    32    13    1
    35    29    17    1
    36    27    21    1
@<TRIPOS>SUBSTRUCTURE
     1 RES1        1 GROUP             0 ****  ****    0  
@<TRIPOS>MOLECULE
ligand_99
    33    36     1     0     0
SMALL
USER_CHARGES
****
Generated from the CSD

@<TRIPOS>ATOM
     1 C1      -8.1860 -49.2690 -18.1032   C.3       1 RES1   0.0000
     2 C2      -7.9842 -50.7732 -18.2792   C.3       1 RES1   0.0000
     3 C3      -9.3551 -51.4514 -18.2248   C.2       1 RES1   0.0000
     4 O4      -9.4924 -52.6281 -18.1088   O.2       1 RES1   0.0000
     5 O5     -10.4635 -50.5755 -18.3260   O.3       1 RES1   0.0000
     6 C6     -11.7593 -51.1860 -18.2808   C.2       1 RES1   0.0000
     7 C7     -12.4616 -51.4175 -19.4654   C.2       1 RES1   0.0000
     8 C8     -13.7331 -52.0152 -19.4007   C.2       1 RES1   0.0000
     9 C9     -14.2712 -52.3604 -18.1492   C.2       1 RES1   0.0000
    10 C10    -13.5631 -52.1211 -16.9572   C.2       1 RES1   0.0000
    11 C11    -12.2940 -51.5224 -17.0229   C.2       1 RES1   0.0000
    12 N12    -11.4969 -51.2531 -15.7869   N.2       1 RES1   0.0000
    13 C13    -11.8997 -51.6948 -14.4464   C.2       1 RES1   0.0000
    14 N14    -12.9699 -52.4819 -14.2881   N.2       1 RES1   0.0000
    15 C15    -13.3359 -52.8841 -13.0802   C.2       1 RES1   0.0000
    16 N16    -14.5092 -53.7414 -12.8938   N.2       1 RES1   0.0000
    17 C17    -15.3193 -54.2651 -14.0092   C.2       1 RES1   0.0000
    18 C18    -16.6931 -54.3457 -13.8481   C.2       1 RES1   0.0000
    19 C19    -17.4957 -54.8299 -14.8904   C.2       1 RES1   0.0000
    20 C20    -16.9133 -55.2324 -16.0879   C.2       1 RES1   0.0000
    21 N21    -17.7806 -55.7465 -17.1771   N.pl3     1 RES1   0.0000
    22 C22    -19.2011 -55.4354 -17.3028   C.3       1 RES1   0.0000
    23 C23    -19.5757 -55.3103 -18.7592   C.3       1 RES1   0.0000
    24 N24    -19.2173 -56.5511 -19.5073   N.3       1 RES1   1.0000
    25 C25    -19.5443 -56.4156 -20.7375   C.2       1 RES1   0.0000
    26 C26    -17.7758 -56.8857 -19.3119   C.3       1 RES1   0.0000
    27 C27    -17.4441 -56.9967 -17.8448   C.3       1 RES1   0.0000
    28 C28    -15.5363 -55.1529 -16.2545   C.2       1 RES1   0.0000
    29 C29    -14.7378 -54.6636 -15.2124   C.2       1 RES1   0.0000
    30 N30    -12.6707 -52.5436 -12.0054   N.2       1 RES1   0.0000
    31 C31    -11.5952 -51.7686 -12.0704   C.2       1 RES1   0.0000
    32 C32    -11.1823 -51.3214 -13.3265   C.2       1 RES1   0.0000
    33 Cl33    -9.7462 -50.2835 -13.4409   Cl        1 RES1   0.0000
@<TRIPOS>BOND
     1     1     2    1
     2     2     3    1
     3     3     4    2
     4     3     5    1
     5     5     6    1
     6     6     7    2
     7     7     8    1
     8     8     9    2
     9     9    10    1
    10    10    11    2
    11    11    12    1
    12    12    13    1
    13    13    14    2
    14    14    15    1
    15    15    16    1
    16    16    17    1
    17    17    18    2
    18    18    19    1
    19    19    20    2
    20    20    21    1
    21    21    22    1
    22    22    23    1
    23    23    24    1
    24    24    25    1
    25    24    26    1
    26    26    27    1
    27    20    28    1
    28    28    29    2
    29    15    30    2
    30    30    31    1
    31    31    32    2
    32    32    33    1
    33    11     6    1
    34    32    13    1
    35    29    17    1
    36    27    21    1
@<TRIPOS>SUBSTRUCTURE
     1 RES1        1 GROUP             0 ****  ****    0  
