@<TRIPOS>MOLECULE
native
    18    19     1     0     0
SMALL
USER_CHARGES
****
Generated from the CSD

@<TRIPOS>ATOM
     1 O1      -4.7300  38.2010 -19.1600   O.co2     1 RES1   0.0000
     2 C2      -3.7500  38.9760 -19.1760   C.2       1 RES1   0.0000
     3 O3      -3.9660  40.2010 -19.0490   O.co2     1 RES1  -1.0000
     4 C4      -2.3240  38.4850 -19.3490   C.2       1 RES1   0.0000
     5 C5      -1.3620  39.4120 -19.8190   C.2       1 RES1   0.0000
     6 C6      -0.0190  39.0450 -20.0120   C.2       1 RES1   0.0000
     7 C7       0.3970  37.7380 -19.7360   C.2       1 RES1   0.0000
     8 C8      -0.5380  36.8000 -19.2700   C.2       1 RES1   0.0000
     9 C9      -1.9010  37.1470 -19.0680   C.2       1 RES1   0.0000
    10 O10     -2.8280  36.2280 -18.6100   O.3       1 RES1   0.0000
    11 C11     -2.8200  34.8740 -19.0570   C.3       1 RES1   0.0000
    12 C12     -2.1220  34.0650 -17.9680   C.3       1 RES1   0.0000
    13 N13     -3.1330  33.9240 -16.9090   N.2       1 RES1   1.0000
    14 C14     -4.4670  34.0170 -17.5240   C.3       1 RES1   0.0000
    15 C15     -5.1910  32.6880 -17.2510   C.2       1 RES1   0.0000
    16 O16     -6.1810  32.3890 -17.9500   O.co2     1 RES1   0.0000
    17 O17     -4.7600  31.9530 -16.3350   O.co2     1 RES1  -1.0000
    18 C18     -4.2330  34.2870 -19.0250   C.3       1 RES1   0.0000
@<TRIPOS>BOND
     1     1     2    2
     2     2     3    1
     3     2     4    1
     4     4     5    2
     5     5     6    1
     6     6     7    2
     7     7     8    1
     8     8     9    2
     9     9    10    1
    10    11    10    1
    11    11    12    1
    12    12    13    1
    13    13    14    1
    14    14    15    1
    15    15    16    2
    16    15    17    1
    17    14    18    1
    18     9     4    1
    19    18    11    1
@<TRIPOS>SUBSTRUCTURE
     1 RES1        1 GROUP             0 ****  ****    0  
@<TRIPOS>MOLECULE
ligand_0
    18    19     1     0     0
SMALL
USER_CHARGES
****
Generated from the CSD

@<TRIPOS>ATOM
     1 O1       0.1417  38.6805 -17.9378   O.co2     1 RES1   0.0000
     2 C2      -0.9701  38.1474 -17.7355   C.2       1 RES1   0.0000
     3 O3      -0.9916  36.9563 -17.3558   O.co2     1 RES1  -1.0000
     4 C4      -2.2794  38.8881 -17.9395   C.2       1 RES1   0.0000
     5 C5      -2.2124  40.2344 -18.3739   C.2       1 RES1   0.0000
     6 C6      -3.3732  40.9981 -18.5859   C.2       1 RES1   0.0000
     7 C7      -4.6341  40.4312 -18.3707   C.2       1 RES1   0.0000
     8 C8      -4.7271  39.0985 -17.9389   C.2       1 RES1   0.0000
     9 C9      -3.5682  38.3069 -17.7169   C.2       1 RES1   0.0000
    10 O10     -3.6520  36.9936 -17.2906   O.3       1 RES1   0.0000
    11 C11     -4.9097  36.3649 -17.0534   C.3       1 RES1   0.0000
    12 C12     -5.6140  36.0057 -18.3449   C.3       1 RES1   0.0000
    13 N13     -5.0321  34.6905 -18.7444   N.2       1 RES1   1.0000
    14 C14     -4.4670  34.0170 -17.5240   C.3       1 RES1   0.0000
    15 C15     -5.1910  32.6880 -17.2510   C.2       1 RES1   0.0000
    16 O16     -6.1810  32.3890 -17.9500   O.co2     1 RES1   0.0000
    17 O17     -4.7600  31.9530 -16.3350   O.co2     1 RES1  -1.0000
    18 C18     -4.6846  35.0230 -16.3973   C.3       1 RES1   0.0000
@<TRIPOS>BOND
     1     1     2    2
     2     2     3    1
     3     2     4    1
     4     4     5    2
     5     5     6    1
     6     6     7    2
     7     7     8    1
     8     8     9    2
     9     9    10    1
    10    11    10    1
    11    11    12    1
    12    12    13    1
    13    13    14    1
    14    14    15    1
    15    15    16    2
    16    15    17    1
    17    14    18    1
    18     9     4    1
    19    18    11    1
@<TRIPOS>SUBSTRUCTURE
     1 RES1        1 GROUP             0 ****  ****    0  
@<TRIPOS>MOLECULE
ligand_1
    18    19     1     0     0
SMALL
USER_CHARGES
****
Generated from the CSD

@<TRIPOS>ATOM
     1 O1       0.0471  38.7813 -18.1725   O.co2     1 RES1   0.0000
     2 C2      -1.0545  38.2373 -17.9447   C.2       1 RES1   0.0000
     3 O3      -1.6118  37.6222 -18.8798   O.co2     1 RES1  -1.0000
     4 C4      -1.7325  38.3037 -16.5882   C.2       1 RES1   0.0000
     5 C5      -1.0708  39.0132 -15.5565   C.2       1 RES1   0.0000
     6 C6      -1.6224  39.1241 -14.2685   C.2       1 RES1   0.0000
     7 C7      -2.8552  38.5286 -13.9804   C.2       1 RES1   0.0000
     8 C8      -3.5306  37.8188 -14.9860   C.2       1 RES1   0.0000
     9 C9      -2.9927  37.6921 -16.2950   C.2       1 RES1   0.0000
    10 O10     -3.6520  36.9936 -17.2906   O.3       1 RES1   0.0000
    11 C11     -4.9097  36.3649 -17.0534   C.3       1 RES1   0.0000
    12 C12     -5.6140  36.0057 -18.3449   C.3       1 RES1   0.0000
    13 N13     -5.0321  34.6905 -18.7444   N.2       1 RES1   1.0000
    14 C14     -4.4670  34.0170 -17.5240   C.3       1 RES1   0.0000
    15 C15     -5.1910  32.6880 -17.2510   C.2       1 RES1   0.0000
    16 O16     -6.1810  32.3890 -17.9500   O.co2     1 RES1   0.0000
    17 O17     -4.7600  31.9530 -16.3350   O.co2     1 RES1  -1.0000
    18 C18     -4.6846  35.0230 -16.3973   C.3       1 RES1   0.0000
@<TRIPOS>BOND
     1     1     2    2
     2     2     3    1
     3     2     4    1
     4     4     5    2
     5     5     6    1
     6     6     7    2
     7     7     8    1
     8     8     9    2
     9     9    10    1
    10    11    10    1
    11    11    12    1
    12    12    13    1
    13    13    14    1
    14    14    15    1
    15    15    16    2
    16    15    17    1
    17    14    18    1
    18     9     4    1
    19    18    11    1
@<TRIPOS>SUBSTRUCTURE
     1 RES1        1 GROUP             0 ****  ****    0  
@<TRIPOS>MOLECULE
ligand_2
    18    19     1     0     0
SMALL
USER_CHARGES
****
Generated from the CSD

@<TRIPOS>ATOM
     1 O1      -0.4841  37.9417 -16.6029   O.co2     1 RES1   0.0000
     2 C2      -0.9701  38.1474 -17.7355   C.2       1 RES1   0.0000
     3 O3      -0.3415  37.7268 -18.7312   O.co2     1 RES1  -1.0000
     4 C4      -2.2794  38.8881 -17.9395   C.2       1 RES1   0.0000
     5 C5      -2.2124  40.2344 -18.3739   C.2       1 RES1   0.0000
     6 C6      -3.3732  40.9981 -18.5859   C.2       1 RES1   0.0000
     7 C7      -4.6341  40.4312 -18.3707   C.2       1 RES1   0.0000
     8 C8      -4.7271  39.0985 -17.9389   C.2       1 RES1   0.0000
     9 C9      -3.5682  38.3069 -17.7169   C.2       1 RES1   0.0000
    10 O10     -3.6520  36.9936 -17.2906   O.3       1 RES1   0.0000
    11 C11     -4.9097  36.3649 -17.0534   C.3       1 RES1   0.0000
    12 C12     -5.6140  36.0057 -18.3449   C.3       1 RES1   0.0000
    13 N13     -5.0321  34.6905 -18.7444   N.2       1 RES1   1.0000
    14 C14     -4.4670  34.0170 -17.5240   C.3       1 RES1   0.0000
    15 C15     -5.1910  32.6880 -17.2510   C.2       1 RES1   0.0000
    16 O16     -6.1810  32.3890 -17.9500   O.co2     1 RES1   0.0000
    17 O17     -4.7600  31.9530 -16.3350   O.co2     1 RES1  -1.0000
    18 C18     -4.6846  35.0230 -16.3973   C.3       1 RES1   0.0000
@<TRIPOS>BOND
     1     1     2    2
     2     2     3    1
     3     2     4    1
     4     4     5    2
     5     5     6    1
     6     6     7    2
     7     7     8    1
     8     8     9    2
     9     9    10    1
    10    11    10    1
    11    11    12    1
    12    12    13    1
    13    13    14    1
    14    14    15    1
    15    15    16    2
    16    15    17    1
    17    14    18    1
    18     9     4    1
    19    18    11    1
@<TRIPOS>SUBSTRUCTURE
     1 RES1        1 GROUP             0 ****  ****    0  
@<TRIPOS>MOLECULE
ligand_3
    18    19     1     0     0
SMALL
USER_CHARGES
****
Generated from the CSD

@<TRIPOS>ATOM
     1 O1      -0.4513  37.2189 -18.3451   O.co2     1 RES1   0.0000
     2 C2      -1.0545  38.2373 -17.9447   C.2       1 RES1   0.0000
     3 O3      -1.0891  39.2350 -18.6975   O.co2     1 RES1  -1.0000
     4 C4      -1.7325  38.3037 -16.5882   C.2       1 RES1   0.0000
     5 C5      -1.0708  39.0132 -15.5565   C.2       1 RES1   0.0000
     6 C6      -1.6224  39.1241 -14.2685   C.2       1 RES1   0.0000
     7 C7      -2.8552  38.5286 -13.9804   C.2       1 RES1   0.0000
     8 C8      -3.5306  37.8188 -14.9860   C.2       1 RES1   0.0000
     9 C9      -2.9927  37.6921 -16.2950   C.2       1 RES1   0.0000
    10 O10     -3.6520  36.9936 -17.2906   O.3       1 RES1   0.0000
    11 C11     -4.9097  36.3649 -17.0534   C.3       1 RES1   0.0000
    12 C12     -5.6140  36.0057 -18.3449   C.3       1 RES1   0.0000
    13 N13     -5.0321  34.6905 -18.7444   N.2       1 RES1   1.0000
    14 C14     -4.4670  34.0170 -17.5240   C.3       1 RES1   0.0000
    15 C15     -5.1910  32.6880 -17.2510   C.2       1 RES1   0.0000
    16 O16     -6.1810  32.3890 -17.9500   O.co2     1 RES1   0.0000
    17 O17     -4.7600  31.9530 -16.3350   O.co2     1 RES1  -1.0000
    18 C18     -4.6846  35.0230 -16.3973   C.3       1 RES1   0.0000
@<TRIPOS>BOND
     1     1     2    2
     2     2     3    1
     3     2     4    1
     4     4     5    2
     5     5     6    1
     6     6     7    2
     7     7     8    1
     8     8     9    2
     9     9    10    1
    10    11    10    1
    11    11    12    1
    12    12    13    1
    13    13    14    1
    14    14    15    1
    15    15    16    2
    16    15    17    1
    17    14    18    1
    18     9     4    1
    19    18    11    1
@<TRIPOS>SUBSTRUCTURE
     1 RES1        1 GROUP             0 ****  ****    0  
@<TRIPOS>MOLECULE
ligand_4
    18    19     1     0     0
SMALL
USER_CHARGES
****
Generated from the CSD

@<TRIPOS>ATOM
     1 O1      -4.0691  40.0761 -14.4657   O.co2     1 RES1   0.0000
     2 C2      -3.9357  39.1349 -15.2766   C.2       1 RES1   0.0000
     3 O3      -3.9933  37.9660 -14.8365   O.co2     1 RES1  -1.0000
     4 C4      -3.7023  39.3620 -16.7593   C.2       1 RES1   0.0000
     5 C5      -3.6158  40.7005 -17.2137   C.2       1 RES1   0.0000
     6 C6      -3.4045  41.0054 -18.5695   C.2       1 RES1   0.0000
     7 C7      -3.2711  39.9754 -19.5069   C.2       1 RES1   0.0000
     8 C8      -3.3541  38.6400 -19.0815   C.2       1 RES1   0.0000
     9 C9      -3.5682  38.3069 -17.7169   C.2       1 RES1   0.0000
    10 O10     -3.6520  36.9936 -17.2906   O.3       1 RES1   0.0000
    11 C11     -4.9097  36.3649 -17.0534   C.3       1 RES1   0.0000
    12 C12     -5.6135  36.0045 -18.3449   C.3       1 RES1   0.0000
    13 N13     -5.0312  34.6891 -18.7430   N.2       1 RES1   1.0000
    14 C14     -4.4664  34.0167 -17.5219   C.3       1 RES1   0.0000
    15 C15     -5.1903  32.6878 -17.2481   C.2       1 RES1   0.0000
    16 O16     -6.1800  32.3881 -17.9472   O.co2     1 RES1   0.0000
    17 O17     -4.7596  31.9536 -16.3313   O.co2     1 RES1  -1.0000
    18 C18     -4.6847  35.0236 -16.3961   C.3       1 RES1   0.0000
@<TRIPOS>BOND
     1     1     2    2
     2     2     3    1
     3     2     4    1
     4     4     5    2
     5     5     6    1
     6     6     7    2
     7     7     8    1
     8     8     9    2
     9     9    10    1
    10    11    10    1
    11    11    12    1
    12    12    13    1
    13    13    14    1
    14    14    15    1
    15    15    16    2
    16    15    17    1
    17    14    18    1
    18     9     4    1
    19    18    11    1
@<TRIPOS>SUBSTRUCTURE
     1 RES1        1 GROUP             0 ****  ****    0  
@<TRIPOS>MOLECULE
ligand_5
    18    19     1     0     0
SMALL
USER_CHARGES
****
Generated from the CSD

@<TRIPOS>ATOM
     1 O1      -0.8527  40.0441 -18.0084   O.co2     1 RES1   0.0000
     2 C2      -1.6956  39.1391 -17.8300   C.2       1 RES1   0.0000
     3 O3      -2.3998  38.7905 -18.8027   O.co2     1 RES1  -1.0000
     4 C4      -1.8943  38.4623 -16.4858   C.2       1 RES1   0.0000
     5 C5      -1.0800  38.8886 -15.4084   C.2       1 RES1   0.0000
     6 C6      -1.1924  38.3164 -14.1295   C.2       1 RES1   0.0000
     7 C7      -2.1273  37.3021 -13.8952   C.2       1 RES1   0.0000
     8 C8      -2.9455  36.8612 -14.9474   C.2       1 RES1   0.0000
     9 C9      -2.8498  37.4235 -16.2488   C.2       1 RES1   0.0000
    10 O10     -3.6520  36.9936 -17.2906   O.3       1 RES1   0.0000
    11 C11     -4.9097  36.3649 -17.0534   C.3       1 RES1   0.0000
    12 C12     -5.7525  36.2959 -18.3096   C.3       1 RES1   0.0000
    13 N13     -5.2763  35.0740 -19.0225   N.2       1 RES1   1.0000
    14 C14     -4.6287  34.1507 -18.0273   C.3       1 RES1   0.0000
    15 C15     -5.3862  32.8145 -17.9510   C.2       1 RES1   0.0000
    16 O16     -6.4526  32.6917 -18.5880   O.co2     1 RES1   0.0000
    17 O17     -4.9045  31.8967 -17.2505   O.co2     1 RES1  -1.0000
    18 C18     -4.6872  34.9118 -16.7058   C.3       1 RES1   0.0000
@<TRIPOS>BOND
     1     1     2    2
     2     2     3    1
     3     2     4    1
     4     4     5    2
     5     5     6    1
     6     6     7    2
     7     7     8    1
     8     8     9    2
     9     9    10    1
    10    11    10    1
    11    11    12    1
    12    12    13    1
    13    13    14    1
    14    14    15    1
    15    15    16    2
    16    15    17    1
    17    14    18    1
    18     9     4    1
    19    18    11    1
@<TRIPOS>SUBSTRUCTURE
     1 RES1        1 GROUP             0 ****  ****    0  
@<TRIPOS>MOLECULE
ligand_6
    18    19     1     0     0
SMALL
USER_CHARGES
****
Generated from the CSD

@<TRIPOS>ATOM
     1 O1      -1.7755  37.8226 -20.9578   O.co2     1 RES1   0.0000
     2 C2      -2.3267  37.5404 -19.8725   C.2       1 RES1   0.0000
     3 O3      -2.3810  36.3376 -19.5350   O.co2     1 RES1  -1.0000
     4 C4      -2.9306  38.5968 -18.9649   C.2       1 RES1   0.0000
     5 C5      -2.8520  39.9471 -19.3847   C.2       1 RES1   0.0000
     6 C6      -3.3811  40.9916 -18.6072   C.2       1 RES1   0.0000
     7 C7      -4.0065  40.7102 -17.3878   C.2       1 RES1   0.0000
     8 C8      -4.0962  39.3795 -16.9490   C.2       1 RES1   0.0000
     9 C9      -3.5682  38.3069 -17.7169   C.2       1 RES1   0.0000
    10 O10     -3.6520  36.9936 -17.2906   O.3       1 RES1   0.0000
    11 C11     -4.9097  36.3649 -17.0534   C.3       1 RES1   0.0000
    12 C12     -5.6140  36.0057 -18.3449   C.3       1 RES1   0.0000
    13 N13     -5.0321  34.6905 -18.7444   N.2       1 RES1   1.0000
    14 C14     -4.4670  34.0170 -17.5240   C.3       1 RES1   0.0000
    15 C15     -5.1910  32.6880 -17.2510   C.2       1 RES1   0.0000
    16 O16     -6.1810  32.3890 -17.9500   O.co2     1 RES1   0.0000
    17 O17     -4.7600  31.9530 -16.3350   O.co2     1 RES1  -1.0000
    18 C18     -4.6846  35.0230 -16.3973   C.3       1 RES1   0.0000
@<TRIPOS>BOND
     1     1     2    2
     2     2     3    1
     3     2     4    1
     4     4     5    2
     5     5     6    1
     6     6     7    2
     7     7     8    1
     8     8     9    2
     9     9    10    1
    10    11    10    1
    11    11    12    1
    12    12    13    1
    13    13    14    1
    14    14    15    1
    15    15    16    2
    16    15    17    1
    17    14    18    1
    18     9     4    1
    19    18    11    1
@<TRIPOS>SUBSTRUCTURE
     1 RES1        1 GROUP             0 ****  ****    0  
@<TRIPOS>MOLECULE
ligand_7
    18    19     1     0     0
SMALL
USER_CHARGES
****
Generated from the CSD

@<TRIPOS>ATOM
     1 O1      -1.9070  39.8470 -14.7469   O.co2     1 RES1   0.0000
     2 C2      -2.4198  38.9728 -15.4778   C.2       1 RES1   0.0000
     3 O3      -2.4666  37.7995 -15.0482   O.co2     1 RES1  -1.0000
     4 C4      -2.9749  39.2842 -16.8560   C.2       1 RES1   0.0000
     5 C5      -2.8992  40.6242 -17.3078   C.2       1 RES1   0.0000
     6 C6      -3.3906  41.0048 -18.5685   C.2       1 RES1   0.0000
     7 C7      -3.9691  40.0506 -19.4125   C.2       1 RES1   0.0000
     8 C8      -4.0569  38.7155 -18.9870   C.2       1 RES1   0.0000
     9 C9      -3.5682  38.3069 -17.7169   C.2       1 RES1   0.0000
    10 O10     -3.6520  36.9936 -17.2906   O.3       1 RES1   0.0000
    11 C11     -4.9097  36.3649 -17.0534   C.3       1 RES1   0.0000
    12 C12     -5.5128  35.8100 -18.3268   C.3       1 RES1   0.0000
    13 N13     -4.8762  34.4710 -18.4991   N.2       1 RES1   1.0000
    14 C14     -4.3849  33.9894 -17.1615   C.3       1 RES1   0.0000
    15 C15     -5.0980  32.6888 -16.7555   C.2       1 RES1   0.0000
    16 O16     -6.0293  32.2661 -17.4711   O.co2     1 RES1   0.0000
    17 O17     -4.7175  32.1004 -15.7191   O.co2     1 RES1  -1.0000
    18 C18     -4.7033  35.1335 -16.2031   C.3       1 RES1   0.0000
@<TRIPOS>BOND
     1     1     2    2
     2     2     3    1
     3     2     4    1
     4     4     5    2
     5     5     6    1
     6     6     7    2
     7     7     8    1
     8     8     9    2
     9     9    10    1
    10    11    10    1
    11    11    12    1
    12    12    13    1
    13    13    14    1
    14    14    15    1
    15    15    16    2
    16    15    17    1
    17    14    18    1
    18     9     4    1
    19    18    11    1
@<TRIPOS>SUBSTRUCTURE
     1 RES1        1 GROUP             0 ****  ****    0  
@<TRIPOS>MOLECULE
ligand_8
    18    19     1     0     0
SMALL
USER_CHARGES
****
Generated from the CSD

@<TRIPOS>ATOM
     1 O1      -2.1544  40.1377 -16.9333   O.co2     1 RES1   0.0000
     2 C2      -2.6481  39.1181 -17.4604   C.2       1 RES1   0.0000
     3 O3      -3.3373  38.3599 -16.7438   O.co2     1 RES1  -1.0000
     4 C4      -2.4356  38.7711 -18.9229   C.2       1 RES1   0.0000
     5 C5      -1.6455  39.6532 -19.6997   C.2       1 RES1   0.0000
     6 C6      -1.3982  39.4134 -21.0624   C.2       1 RES1   0.0000
     7 C7      -1.9345  38.2801 -21.6832   C.2       1 RES1   0.0000
     8 C8      -2.7222  37.3909 -20.9349   C.2       1 RES1   0.0000
     9 C9      -2.9869  37.6124 -19.5565   C.2       1 RES1   0.0000
    10 O10     -3.7627  36.7411 -18.8131   O.3       1 RES1   0.0000
    11 C11     -4.3364  35.5719 -19.3936   C.3       1 RES1   0.0000
    12 C12     -3.3040  34.4864 -19.6149   C.3       1 RES1   0.0000
    13 N13     -3.2010  33.7838 -18.3019   N.2       1 RES1   1.0000
    14 C14     -4.4670  34.0170 -17.5240   C.3       1 RES1   0.0000
    15 C15     -5.1910  32.6880 -17.2510   C.2       1 RES1   0.0000
    16 O16     -6.1766  32.3856 -17.9547   O.co2     1 RES1   0.0000
    17 O17     -4.7644  31.9564 -16.3302   O.co2     1 RES1  -1.0000
    18 C18     -5.2955  34.9421 -18.4110   C.3       1 RES1   0.0000
@<TRIPOS>BOND
     1     1     2    2
     2     2     3    1
     3     2     4    1
     4     4     5    2
     5     5     6    1
     6     6     7    2
     7     7     8    1
     8     8     9    2
     9     9    10    1
    10    11    10    1
    11    11    12    1
    12    12    13    1
    13    13    14    1
    14    14    15    1
    15    15    16    2
    16    15    17    1
    17    14    18    1
    18     9     4    1
    19    18    11    1
@<TRIPOS>SUBSTRUCTURE
     1 RES1        1 GROUP             0 ****  ****    0  
@<TRIPOS>MOLECULE
ligand_9
    18    19     1     0     0
SMALL
USER_CHARGES
****
Generated from the CSD

@<TRIPOS>ATOM
     1 O1      -6.6194  40.5781 -13.9326   O.co2     1 RES1   0.0000
     2 C2      -6.4392  39.5195 -14.5715   C.2       1 RES1   0.0000
     3 O3      -5.3580  38.9122 -14.4118   O.co2     1 RES1  -1.0000
     4 C4      -7.4751  38.9575 -15.5284   C.2       1 RES1   0.0000
     5 C5      -8.6849  39.6770 -15.6843   C.2       1 RES1   0.0000
     6 C6      -9.7014  39.2300 -16.5460   C.2       1 RES1   0.0000
     7 C7      -9.5311  38.0497 -17.2777   C.2       1 RES1   0.0000
     8 C8      -8.3410  37.3177 -17.1397   C.2       1 RES1   0.0000
     9 C9      -7.2997  37.7488 -16.2744   C.2       1 RES1   0.0000
    10 O10     -6.1249  37.0324 -16.1327   O.3       1 RES1   0.0000
    11 C11     -5.8976  35.8221 -16.8515   C.3       1 RES1   0.0000
    12 C12     -5.5733  35.9831 -18.3163   C.3       1 RES1   0.0000
    13 N13     -5.0390  34.6849 -18.7476   N.2       1 RES1   1.0000
    14 C14     -4.4670  34.0170 -17.5240   C.3       1 RES1   0.0000
    15 C15     -5.1910  32.6880 -17.2510   C.2       1 RES1   0.0000
    16 O16     -6.1810  32.3890 -17.9500   O.co2     1 RES1   0.0000
    17 O17     -4.7600  31.9530 -16.3350   O.co2     1 RES1  -1.0000
    18 C18     -4.6473  35.0503 -16.4058   C.3       1 RES1   0.0000
@<TRIPOS>BOND
     1     1     2    2
     2     2     3    1
     3     2     4    1
     4     4     5    2
     5     5     6    1
     6     6     7    2
     7     7     8    1
     8     8     9    2
     9     9    10    1
    10    11    10    1
    11    11    12    1
    12    12    13    1
    13    13    14    1
    14    14    15    1
    15    15    16    2
    16    15    17    1
    17    14    18    1
    18     9     4    1
    19    18    11    1
@<TRIPOS>SUBSTRUCTURE
     1 RES1        1 GROUP             0 ****  ****    0  
@<TRIPOS>MOLECULE
ligand_10
    18    19     1     0     0
SMALL
USER_CHARGES
****
Generated from the CSD

@<TRIPOS>ATOM
     1 O1      -4.8577  40.9256 -16.4292   O.co2     1 RES1   0.0000
     2 C2      -4.5160  39.7595 -16.7205   C.2       1 RES1   0.0000
     3 O3      -5.1336  39.1770 -17.6385   O.co2     1 RES1  -1.0000
     4 C4      -3.3937  39.0340 -16.0005   C.2       1 RES1   0.0000
     5 C5      -2.7064  39.7347 -14.9796   C.2       1 RES1   0.0000
     6 C6      -1.6523  39.1434 -14.2622   C.2       1 RES1   0.0000
     7 C7      -1.2600  37.8310 -14.5473   C.2       1 RES1   0.0000
     8 C8      -1.9251  37.1155 -15.5557   C.2       1 RES1   0.0000
     9 C9      -2.9927  37.6921 -16.2950   C.2       1 RES1   0.0000
    10 O10     -3.6520  36.9936 -17.2906   O.3       1 RES1   0.0000
    11 C11     -4.9097  36.3649 -17.0534   C.3       1 RES1   0.0000
    12 C12     -5.6140  36.0057 -18.3449   C.3       1 RES1   0.0000
    13 N13     -5.0321  34.6905 -18.7444   N.2       1 RES1   1.0000
    14 C14     -4.4670  34.0170 -17.5240   C.3       1 RES1   0.0000
    15 C15     -5.1910  32.6880 -17.2510   C.2       1 RES1   0.0000
    16 O16     -6.1810  32.3890 -17.9500   O.co2     1 RES1   0.0000
    17 O17     -4.7600  31.9530 -16.3350   O.co2     1 RES1  -1.0000
    18 C18     -4.6846  35.0230 -16.3973   C.3       1 RES1   0.0000
@<TRIPOS>BOND
     1     1     2    2
     2     2     3    1
     3     2     4    1
     4     4     5    2
     5     5     6    1
     6     6     7    2
     7     7     8    1
     8     8     9    2
     9     9    10    1
    10    11    10    1
    11    11    12    1
    12    12    13    1
    13    13    14    1
    14    14    15    1
    15    15    16    2
    16    15    17    1
    17    14    18    1
    18     9     4    1
    19    18    11    1
@<TRIPOS>SUBSTRUCTURE
     1 RES1        1 GROUP             0 ****  ****    0  
@<TRIPOS>MOLECULE
ligand_11
    18    19     1     0     0
SMALL
USER_CHARGES
****
Generated from the CSD

@<TRIPOS>ATOM
     1 O1       0.1814  35.7308 -16.1210   O.co2     1 RES1   0.0000
     2 C2      -0.9596  36.0788 -16.4931   C.2       1 RES1   0.0000
     3 O3      -1.5104  35.4173 -17.4000   O.co2     1 RES1  -1.0000
     4 C4      -1.6868  37.2678 -15.8916   C.2       1 RES1   0.0000
     5 C5      -1.0275  37.9934 -14.8696   C.2       1 RES1   0.0000
     6 C6      -1.6258  39.1061 -14.2536   C.2       1 RES1   0.0000
     7 C7      -2.9016  39.5237 -14.6478   C.2       1 RES1   0.0000
     8 C8      -3.5765  38.8202 -15.6582   C.2       1 RES1   0.0000
     9 C9      -2.9927  37.6921 -16.2950   C.2       1 RES1   0.0000
    10 O10     -3.6520  36.9936 -17.2906   O.3       1 RES1   0.0000
    11 C11     -4.9097  36.3649 -17.0534   C.3       1 RES1   0.0000
    12 C12     -5.6140  36.0057 -18.3449   C.3       1 RES1   0.0000
    13 N13     -5.0321  34.6905 -18.7444   N.2       1 RES1   1.0000
    14 C14     -4.4670  34.0170 -17.5240   C.3       1 RES1   0.0000
    15 C15     -5.1910  32.6880 -17.2510   C.2       1 RES1   0.0000
    16 O16     -6.1810  32.3890 -17.9500   O.co2     1 RES1   0.0000
    17 O17     -4.7600  31.9530 -16.3350   O.co2     1 RES1  -1.0000
    18 C18     -4.6846  35.0230 -16.3973   C.3       1 RES1   0.0000
@<TRIPOS>BOND
     1     1     2    2
     2     2     3    1
     3     2     4    1
     4     4     5    2
     5     5     6    1
     6     6     7    2
     7     7     8    1
     8     8     9    2
     9     9    10    1
    10    11    10    1
    11    11    12    1
    12    12    13    1
    13    13    14    1
    14    14    15    1
    15    15    16    2
    16    15    17    1
    17    14    18    1
    18     9     4    1
    19    18    11    1
@<TRIPOS>SUBSTRUCTURE
     1 RES1        1 GROUP             0 ****  ****    0  
@<TRIPOS>MOLECULE
ligand_12
    18    19     1     0     0
SMALL
USER_CHARGES
****
Generated from the CSD

@<TRIPOS>ATOM
     1 O1      -1.9167  40.0809 -17.0537   O.co2     1 RES1   0.0000
     2 C2      -2.4363  39.0675 -17.5679   C.2       1 RES1   0.0000
     3 O3      -1.7922  37.9963 -17.5383   O.co2     1 RES1  -1.0000
     4 C4      -3.8045  39.0963 -18.2250   C.2       1 RES1   0.0000
     5 C5      -4.5001  40.3298 -18.2416   C.2       1 RES1   0.0000
     6 C6      -5.7731  40.4492 -18.8253   C.2       1 RES1   0.0000
     7 C7      -6.3827  39.3346 -19.4114   C.2       1 RES1   0.0000
     8 C8      -5.7140  38.1001 -19.4068   C.2       1 RES1   0.0000
     9 C9      -4.4272  37.9544 -18.8222   C.2       1 RES1   0.0000
    10 O10     -3.7627  36.7411 -18.8131   O.3       1 RES1   0.0000
    11 C11     -4.3364  35.5719 -19.3936   C.3       1 RES1   0.0000
    12 C12     -3.3040  34.4864 -19.6149   C.3       1 RES1   0.0000
    13 N13     -3.2010  33.7838 -18.3019   N.2       1 RES1   1.0000
    14 C14     -4.4670  34.0170 -17.5240   C.3       1 RES1   0.0000
    15 C15     -5.1910  32.6880 -17.2510   C.2       1 RES1   0.0000
    16 O16     -6.1766  32.3856 -17.9547   O.co2     1 RES1   0.0000
    17 O17     -4.7644  31.9564 -16.3302   O.co2     1 RES1  -1.0000
    18 C18     -5.2955  34.9421 -18.4110   C.3       1 RES1   0.0000
@<TRIPOS>BOND
     1     1     2    2
     2     2     3    1
     3     2     4    1
     4     4     5    2
     5     5     6    1
     6     6     7    2
     7     7     8    1
     8     8     9    2
     9     9    10    1
    10    11    10    1
    11    11    12    1
    12    12    13    1
    13    13    14    1
    14    14    15    1
    15    15    16    2
    16    15    17    1
    17    14    18    1
    18     9     4    1
    19    18    11    1
@<TRIPOS>SUBSTRUCTURE
     1 RES1        1 GROUP             0 ****  ****    0  
@<TRIPOS>MOLECULE
ligand_13
    18    19     1     0     0
SMALL
USER_CHARGES
****
Generated from the CSD

@<TRIPOS>ATOM
     1 O1      -1.5769  36.6362 -19.4445   O.co2     1 RES1   0.0000
     2 C2      -1.3515  37.7705 -18.9716   C.2       1 RES1   0.0000
     3 O3      -0.1608  38.1342 -18.8558   O.co2     1 RES1  -1.0000
     4 C4      -2.4626  38.7072 -18.5327   C.2       1 RES1   0.0000
     5 C5      -2.3918  40.0561 -18.9583   C.2       1 RES1   0.0000
     6 C6      -3.3742  40.9943 -18.5975   C.2       1 RES1   0.0000
     7 C7      -4.4569  40.6046 -17.8017   C.2       1 RES1   0.0000
     8 C8      -4.5491  39.2731 -17.3660   C.2       1 RES1   0.0000
     9 C9      -3.5682  38.3069 -17.7169   C.2       1 RES1   0.0000
    10 O10     -3.6520  36.9936 -17.2906   O.3       1 RES1   0.0000
    11 C11     -4.9097  36.3649 -17.0534   C.3       1 RES1   0.0000
    12 C12     -5.6140  36.0057 -18.3449   C.3       1 RES1   0.0000
    13 N13     -5.0321  34.6905 -18.7444   N.2       1 RES1   1.0000
    14 C14     -4.4670  34.0170 -17.5240   C.3       1 RES1   0.0000
    15 C15     -5.1910  32.6880 -17.2510   C.2       1 RES1   0.0000
    16 O16     -6.1810  32.3890 -17.9500   O.co2     1 RES1   0.0000
    17 O17     -4.7600  31.9530 -16.3350   O.co2     1 RES1  -1.0000
    18 C18     -4.6846  35.0230 -16.3973   C.3       1 RES1   0.0000
@<TRIPOS>BOND
     1     1     2    2
     2     2     3    1
     3     2     4    1
     4     4     5    2
     5     5     6    1
     6     6     7    2
     7     7     8    1
     8     8     9    2
     9     9    10    1
    10    11    10    1
    11    11    12    1
    12    12    13    1
    13    13    14    1
    14    14    15    1
    15    15    16    2
    16    15    17    1
    17    14    18    1
    18     9     4    1
    19    18    11    1
@<TRIPOS>SUBSTRUCTURE
     1 RES1        1 GROUP             0 ****  ****    0  
@<TRIPOS>MOLECULE
ligand_14
    18    19     1     0     0
SMALL
USER_CHARGES
****
Generated from the CSD

@<TRIPOS>ATOM
     1 O1      -0.6953  37.4086 -16.8914   O.co2     1 RES1   0.0000
     2 C2      -1.2090  38.5191 -16.6376   C.2       1 RES1   0.0000
     3 O3      -0.7224  39.1932 -15.7037   O.co2     1 RES1  -1.0000
     4 C4      -2.3940  39.0664 -17.4126   C.2       1 RES1   0.0000
     5 C5      -2.3261  40.4100 -17.8552   C.2       1 RES1   0.0000
     6 C6      -3.3775  41.0013 -18.5766   C.2       1 RES1   0.0000
     7 C7      -4.5254  40.2600 -18.8768   C.2       1 RES1   0.0000
     8 C8      -4.6173  38.9262 -18.4482   C.2       1 RES1   0.0000
     9 C9      -3.5682  38.3069 -17.7169   C.2       1 RES1   0.0000
    10 O10     -3.6520  36.9936 -17.2906   O.3       1 RES1   0.0000
    11 C11     -4.9097  36.3649 -17.0534   C.3       1 RES1   0.0000
    12 C12     -5.5334  35.8489 -18.3332   C.3       1 RES1   0.0000
    13 N13     -4.9066  34.5120 -18.5516   N.2       1 RES1   1.0000
    14 C14     -4.3994  33.9907 -17.2350   C.3       1 RES1   0.0000
    15 C15     -5.1139  32.6829 -16.8554   C.2       1 RES1   0.0000
    16 O16     -6.0573  32.2851 -17.5694   O.co2     1 RES1   0.0000
    17 O17     -4.7223  32.0639 -15.8413   O.co2     1 RES1  -1.0000
    18 C18     -4.6982  35.1092 -16.2407   C.3       1 RES1   0.0000
@<TRIPOS>BOND
     1     1     2    2
     2     2     3    1
     3     2     4    1
     4     4     5    2
     5     5     6    1
     6     6     7    2
     7     7     8    1
     8     8     9    2
     9     9    10    1
    10    11    10    1
    11    11    12    1
    12    12    13    1
    13    13    14    1
    14    14    15    1
    15    15    16    2
    16    15    17    1
    17    14    18    1
    18     9     4    1
    19    18    11    1
@<TRIPOS>SUBSTRUCTURE
     1 RES1        1 GROUP             0 ****  ****    0  
@<TRIPOS>MOLECULE
ligand_15
    18    19     1     0     0
SMALL
USER_CHARGES
****
Generated from the CSD

@<TRIPOS>ATOM
     1 O1      -6.7110  40.6962 -14.1604   O.co2     1 RES1   0.0000
     2 C2      -6.5209  39.6248 -14.7746   C.2       1 RES1   0.0000
     3 O3      -5.9652  39.6782 -15.8934   O.co2     1 RES1  -1.0000
     4 C4      -6.9432  38.2779 -14.2161   C.2       1 RES1   0.0000
     5 C5      -7.5729  38.2603 -12.9477   C.2       1 RES1   0.0000
     6 C6      -7.9945  37.0592 -12.3518   C.2       1 RES1   0.0000
     7 C7      -7.7987  35.8421 -13.0134   C.2       1 RES1   0.0000
     8 C8      -7.1758  35.8329 -14.2716   C.2       1 RES1   0.0000
     9 C9      -6.7402  37.0338 -14.8937   C.2       1 RES1   0.0000
    10 O10     -6.1249  37.0324 -16.1327   O.3       1 RES1   0.0000
    11 C11     -5.8976  35.8221 -16.8515   C.3       1 RES1   0.0000
    12 C12     -5.5733  35.9831 -18.3163   C.3       1 RES1   0.0000
    13 N13     -5.0390  34.6849 -18.7476   N.2       1 RES1   1.0000
    14 C14     -4.4670  34.0170 -17.5240   C.3       1 RES1   0.0000
    15 C15     -5.1910  32.6880 -17.2510   C.2       1 RES1   0.0000
    16 O16     -6.1810  32.3890 -17.9500   O.co2     1 RES1   0.0000
    17 O17     -4.7600  31.9530 -16.3350   O.co2     1 RES1  -1.0000
    18 C18     -4.6473  35.0503 -16.4058   C.3       1 RES1   0.0000
@<TRIPOS>BOND
     1     1     2    2
     2     2     3    1
     3     2     4    1
     4     4     5    2
     5     5     6    1
     6     6     7    2
     7     7     8    1
     8     8     9    2
     9     9    10    1
    10    11    10    1
    11    11    12    1
    12    12    13    1
    13    13    14    1
    14    14    15    1
    15    15    16    2
    16    15    17    1
    17    14    18    1
    18     9     4    1
    19    18    11    1
@<TRIPOS>SUBSTRUCTURE
     1 RES1        1 GROUP             0 ****  ****    0  
@<TRIPOS>MOLECULE
ligand_16
    18    19     1     0     0
SMALL
USER_CHARGES
****
Generated from the CSD

@<TRIPOS>ATOM
     1 O1      -0.9292  37.1399 -18.5707   O.co2     1 RES1   0.0000
     2 C2      -0.6997  37.0489 -17.3458   C.2       1 RES1   0.0000
     3 O3       0.2776  36.3603 -16.9795   O.co2     1 RES1  -1.0000
     4 C4      -1.5622  37.7334 -16.3008   C.2       1 RES1   0.0000
     5 C5      -0.9039  38.4515 -15.2729   C.2       1 RES1   0.0000
     6 C6      -1.6214  39.1136 -14.2618   C.2       1 RES1   0.0000
     7 C7      -3.0200  39.0761 -14.2554   C.2       1 RES1   0.0000
     8 C8      -3.6961  38.3699 -15.2631   C.2       1 RES1   0.0000
     9 C9      -2.9927  37.6921 -16.2950   C.2       1 RES1   0.0000
    10 O10     -3.6520  36.9936 -17.2906   O.3       1 RES1   0.0000
    11 C11     -4.9097  36.3649 -17.0534   C.3       1 RES1   0.0000
    12 C12     -5.6075  35.9926 -18.3448   C.3       1 RES1   0.0000
    13 N13     -5.0215  34.6749 -18.7294   N.2       1 RES1   1.0000
    14 C14     -4.4608  34.0136 -17.5004   C.3       1 RES1   0.0000
    15 C15     -5.1838  32.6859 -17.2185   C.2       1 RES1   0.0000
    16 O16     -6.1701  32.3787 -17.9192   O.co2     1 RES1   0.0000
    17 O17     -4.7558  31.9601 -16.2938   O.co2     1 RES1  -1.0000
    18 C18     -4.6854  35.0295 -16.3839   C.3       1 RES1   0.0000
@<TRIPOS>BOND
     1     1     2    2
     2     2     3    1
     3     2     4    1
     4     4     5    2
     5     5     6    1
     6     6     7    2
     7     7     8    1
     8     8     9    2
     9     9    10    1
    10    11    10    1
    11    11    12    1
    12    12    13    1
    13    13    14    1
    14    14    15    1
    15    15    16    2
    16    15    17    1
    17    14    18    1
    18     9     4    1
    19    18    11    1
@<TRIPOS>SUBSTRUCTURE
     1 RES1        1 GROUP             0 ****  ****    0  
@<TRIPOS>MOLECULE
ligand_17
    18    19     1     0     0
SMALL
USER_CHARGES
****
Generated from the CSD

@<TRIPOS>ATOM
     1 O1      -0.9229  37.1116 -18.5605   O.co2     1 RES1   0.0000
     2 C2      -1.5498  38.0673 -19.0653   C.2       1 RES1   0.0000
     3 O3      -1.3489  38.3322 -20.2707   O.co2     1 RES1  -1.0000
     4 C4      -2.5304  38.9108 -18.2707   C.2       1 RES1   0.0000
     5 C5      -2.4303  40.3187 -18.3858   C.2       1 RES1   0.0000
     6 C6      -3.2939  41.1778 -17.6845   C.2       1 RES1   0.0000
     7 C7      -4.2842  40.6480 -16.8502   C.2       1 RES1   0.0000
     8 C8      -4.4031  39.2553 -16.7184   C.2       1 RES1   0.0000
     9 C9      -3.5414  38.3668 -17.4162   C.2       1 RES1   0.0000
    10 O10     -3.6520  36.9936 -17.2906   O.3       1 RES1   0.0000
    11 C11     -4.9097  36.3649 -17.0534   C.3       1 RES1   0.0000
    12 C12     -5.6224  36.0225 -18.3449   C.3       1 RES1   0.0000
    13 N13     -5.0459  34.7109 -18.7632   N.2       1 RES1   1.0000
    14 C14     -4.4751  34.0218 -17.5543   C.3       1 RES1   0.0000
    15 C15     -5.2005  32.6912 -17.2927   C.2       1 RES1   0.0000
    16 O16     -6.1952  32.4027 -17.9893   O.co2     1 RES1   0.0000
    17 O17     -4.7657  31.9445 -16.3880   O.co2     1 RES1  -1.0000
    18 C18     -4.6838  35.0149 -16.4145   C.3       1 RES1   0.0000
@<TRIPOS>BOND
     1     1     2    2
     2     2     3    1
     3     2     4    1
     4     4     5    2
     5     5     6    1
     6     6     7    2
     7     7     8    1
     8     8     9    2
     9     9    10    1
    10    11    10    1
    11    11    12    1
    12    12    13    1
    13    13    14    1
    14    14    15    1
    15    15    16    2
    16    15    17    1
    17    14    18    1
    18     9     4    1
    19    18    11    1
@<TRIPOS>SUBSTRUCTURE
     1 RES1        1 GROUP             0 ****  ****    0  
@<TRIPOS>MOLECULE
ligand_18
    18    19     1     0     0
SMALL
USER_CHARGES
****
Generated from the CSD

@<TRIPOS>ATOM
     1 O1      -1.2307  37.4120 -15.5479   O.co2     1 RES1   0.0000
     2 C2      -1.1271  38.2727 -16.4477   C.2       1 RES1   0.0000
     3 O3       0.0150  38.5320 -16.8858   O.co2     1 RES1  -1.0000
     4 C4      -2.3273  39.0093 -17.0146   C.2       1 RES1   0.0000
     5 C5      -2.2324  40.4160 -17.1483   C.2       1 RES1   0.0000
     6 C6      -3.2951  41.1801 -17.6605   C.2       1 RES1   0.0000
     7 C7      -4.4821  40.5537 -18.0556   C.2       1 RES1   0.0000
     8 C8      -4.6013  39.1602 -17.9319   C.2       1 RES1   0.0000
     9 C9      -3.5414  38.3668 -17.4162   C.2       1 RES1   0.0000
    10 O10     -3.6520  36.9936 -17.2906   O.3       1 RES1   0.0000
    11 C11     -4.9097  36.3649 -17.0534   C.3       1 RES1   0.0000
    12 C12     -5.6140  36.0057 -18.3449   C.3       1 RES1   0.0000
    13 N13     -5.0321  34.6905 -18.7444   N.2       1 RES1   1.0000
    14 C14     -4.4670  34.0170 -17.5240   C.3       1 RES1   0.0000
    15 C15     -5.1910  32.6880 -17.2510   C.2       1 RES1   0.0000
    16 O16     -6.1810  32.3890 -17.9500   O.co2     1 RES1   0.0000
    17 O17     -4.7600  31.9530 -16.3350   O.co2     1 RES1  -1.0000
    18 C18     -4.6846  35.0230 -16.3973   C.3       1 RES1   0.0000
@<TRIPOS>BOND
     1     1     2    2
     2     2     3    1
     3     2     4    1
     4     4     5    2
     5     5     6    1
     6     6     7    2
     7     7     8    1
     8     8     9    2
     9     9    10    1
    10    11    10    1
    11    11    12    1
    12    12    13    1
    13    13    14    1
    14    14    15    1
    15    15    16    2
    16    15    17    1
    17    14    18    1
    18     9     4    1
    19    18    11    1
@<TRIPOS>SUBSTRUCTURE
     1 RES1        1 GROUP             0 ****  ****    0  
@<TRIPOS>MOLECULE
ligand_19
    18    19     1     0     0
SMALL
USER_CHARGES
****
Generated from the CSD

@<TRIPOS>ATOM
     1 O1      -1.0124  35.9410 -18.2903   O.co2     1 RES1   0.0000
     2 C2      -0.7264  37.0011 -17.6940   C.2       1 RES1   0.0000
     3 O3       0.1787  37.7195 -18.1716   O.co2     1 RES1  -1.0000
     4 C4      -1.4291  37.4363 -16.4207   C.2       1 RES1   0.0000
     5 C5      -0.6231  37.8776 -15.3430   C.2       1 RES1   0.0000
     6 C6      -1.1869  38.2962 -14.1254   C.2       1 RES1   0.0000
     7 C7      -2.5757  38.2863 -13.9561   C.2       1 RES1   0.0000
     8 C8      -3.3964  37.8521 -15.0092   C.2       1 RES1   0.0000
     9 C9      -2.8498  37.4235 -16.2488   C.2       1 RES1   0.0000
    10 O10     -3.6520  36.9936 -17.2906   O.3       1 RES1   0.0000
    11 C11     -4.9097  36.3649 -17.0534   C.3       1 RES1   0.0000
    12 C12     -5.6140  36.0057 -18.3449   C.3       1 RES1   0.0000
    13 N13     -5.0321  34.6905 -18.7444   N.2       1 RES1   1.0000
    14 C14     -4.4670  34.0170 -17.5240   C.3       1 RES1   0.0000
    15 C15     -5.1910  32.6880 -17.2510   C.2       1 RES1   0.0000
    16 O16     -6.1810  32.3890 -17.9500   O.co2     1 RES1   0.0000
    17 O17     -4.7600  31.9530 -16.3350   O.co2     1 RES1  -1.0000
    18 C18     -4.6846  35.0230 -16.3973   C.3       1 RES1   0.0000
@<TRIPOS>BOND
     1     1     2    2
     2     2     3    1
     3     2     4    1
     4     4     5    2
     5     5     6    1
     6     6     7    2
     7     7     8    1
     8     8     9    2
     9     9    10    1
    10    11    10    1
    11    11    12    1
    12    12    13    1
    13    13    14    1
    14    14    15    1
    15    15    16    2
    16    15    17    1
    17    14    18    1
    18     9     4    1
    19    18    11    1
@<TRIPOS>SUBSTRUCTURE
     1 RES1        1 GROUP             0 ****  ****    0  
@<TRIPOS>MOLECULE
ligand_20
    18    19     1     0     0
SMALL
USER_CHARGES
****
Generated from the CSD

@<TRIPOS>ATOM
     1 O1      -5.1706  38.8015 -14.8756   O.co2     1 RES1   0.0000
     2 C2      -4.0421  39.1356 -15.2952   C.2       1 RES1   0.0000
     3 O3      -3.1254  39.2911 -14.4593   O.co2     1 RES1  -1.0000
     4 C4      -3.7534  39.3623 -16.7683   C.2       1 RES1   0.0000
     5 C5      -3.6661  40.7008 -17.2226   C.2       1 RES1   0.0000
     6 C6      -3.4054  41.0053 -18.5698   C.2       1 RES1   0.0000
     7 C7      -3.2220  39.9750 -19.4984   C.2       1 RES1   0.0000
     8 C8      -3.3048  38.6396 -19.0730   C.2       1 RES1   0.0000
     9 C9      -3.5682  38.3069 -17.7169   C.2       1 RES1   0.0000
    10 O10     -3.6520  36.9936 -17.2906   O.3       1 RES1   0.0000
    11 C11     -4.9097  36.3649 -17.0534   C.3       1 RES1   0.0000
    12 C12     -5.6140  36.0057 -18.3449   C.3       1 RES1   0.0000
    13 N13     -5.0321  34.6905 -18.7444   N.2       1 RES1   1.0000
    14 C14     -4.4670  34.0170 -17.5240   C.3       1 RES1   0.0000
    15 C15     -5.1910  32.6880 -17.2510   C.2       1 RES1   0.0000
    16 O16     -6.1810  32.3890 -17.9500   O.co2     1 RES1   0.0000
    17 O17     -4.7600  31.9530 -16.3350   O.co2     1 RES1  -1.0000
    18 C18     -4.6846  35.0230 -16.3973   C.3       1 RES1   0.0000
@<TRIPOS>BOND
     1     1     2    2
     2     2     3    1
     3     2     4    1
     4     4     5    2
     5     5     6    1
     6     6     7    2
     7     7     8    1
     8     8     9    2
     9     9    10    1
    10    11    10    1
    11    11    12    1
    12    12    13    1
    13    13    14    1
    14    14    15    1
    15    15    16    2
    16    15    17    1
    17    14    18    1
    18     9     4    1
    19    18    11    1
@<TRIPOS>SUBSTRUCTURE
     1 RES1        1 GROUP             0 ****  ****    0  
@<TRIPOS>MOLECULE
ligand_21
    18    19     1     0     0
SMALL
USER_CHARGES
****
Generated from the CSD

@<TRIPOS>ATOM
     1 O1      -2.1685  40.8750 -16.9961   O.co2     1 RES1   0.0000
     2 C2      -2.5074  39.6729 -17.0316   C.2       1 RES1   0.0000
     3 O3      -3.5213  39.3663 -17.6961   O.co2     1 RES1  -1.0000
     4 C4      -1.7413  38.5870 -16.2978   C.2       1 RES1   0.0000
     5 C5      -0.6013  38.9757 -15.5529   C.2       1 RES1   0.0000
     6 C6       0.1701  38.0380 -14.8449   C.2       1 RES1   0.0000
     7 C7      -0.1826  36.6842 -14.8621   C.2       1 RES1   0.0000
     8 C8      -1.3080  36.2735 -15.5942   C.2       1 RES1   0.0000
     9 C9      -2.1027  37.2024 -16.3185   C.2       1 RES1   0.0000
    10 O10     -3.2123  36.8050 -17.0427   O.3       1 RES1   0.0000
    11 C11     -4.3291  36.1800 -16.4138   C.3       1 RES1   0.0000
    12 C12     -5.6030  36.3655 -17.2111   C.3       1 RES1   0.0000
    13 N13     -5.5735  35.2809 -18.2362   N.2       1 RES1   1.0000
    14 C14     -4.6806  34.1734 -17.7479   C.3       1 RES1   0.0000
    15 C15     -5.4756  32.8680 -17.5775   C.2       1 RES1   0.0000
    16 O16     -6.5240  32.7131 -18.2370   O.co2     1 RES1   0.0000
    17 O17     -5.0412  32.0066 -16.7811   O.co2     1 RES1  -1.0000
    18 C18     -4.1339  34.6821 -16.4170   C.3       1 RES1   0.0000
@<TRIPOS>BOND
     1     1     2    2
     2     2     3    1
     3     2     4    1
     4     4     5    2
     5     5     6    1
     6     6     7    2
     7     7     8    1
     8     8     9    2
     9     9    10    1
    10    11    10    1
    11    11    12    1
    12    12    13    1
    13    13    14    1
    14    14    15    1
    15    15    16    2
    16    15    17    1
    17    14    18    1
    18     9     4    1
    19    18    11    1
@<TRIPOS>SUBSTRUCTURE
     1 RES1        1 GROUP             0 ****  ****    0  
@<TRIPOS>MOLECULE
ligand_22
    18    19     1     0     0
SMALL
USER_CHARGES
****
Generated from the CSD

@<TRIPOS>ATOM
     1 O1      -1.0739  38.5981 -18.7692   O.co2     1 RES1   0.0000
     2 C2      -1.6956  39.1391 -17.8300   C.2       1 RES1   0.0000
     3 O3      -2.1625  40.2842 -18.0154   O.co2     1 RES1  -1.0000
     4 C4      -1.8943  38.4623 -16.4858   C.2       1 RES1   0.0000
     5 C5      -1.0800  38.8886 -15.4084   C.2       1 RES1   0.0000
     6 C6      -1.1924  38.3164 -14.1295   C.2       1 RES1   0.0000
     7 C7      -2.1273  37.3021 -13.8952   C.2       1 RES1   0.0000
     8 C8      -2.9455  36.8612 -14.9474   C.2       1 RES1   0.0000
     9 C9      -2.8498  37.4235 -16.2488   C.2       1 RES1   0.0000
    10 O10     -3.6520  36.9936 -17.2906   O.3       1 RES1   0.0000
    11 C11     -4.9097  36.3649 -17.0534   C.3       1 RES1   0.0000
    12 C12     -5.7525  36.2959 -18.3096   C.3       1 RES1   0.0000
    13 N13     -5.2763  35.0740 -19.0225   N.2       1 RES1   1.0000
    14 C14     -4.6287  34.1507 -18.0273   C.3       1 RES1   0.0000
    15 C15     -5.3862  32.8145 -17.9510   C.2       1 RES1   0.0000
    16 O16     -6.4526  32.6917 -18.5880   O.co2     1 RES1   0.0000
    17 O17     -4.9045  31.8967 -17.2505   O.co2     1 RES1  -1.0000
    18 C18     -4.6872  34.9118 -16.7058   C.3       1 RES1   0.0000
@<TRIPOS>BOND
     1     1     2    2
     2     2     3    1
     3     2     4    1
     4     4     5    2
     5     5     6    1
     6     6     7    2
     7     7     8    1
     8     8     9    2
     9     9    10    1
    10    11    10    1
    11    11    12    1
    12    12    13    1
    13    13    14    1
    14    14    15    1
    15    15    16    2
    16    15    17    1
    17    14    18    1
    18     9     4    1
    19    18    11    1
@<TRIPOS>SUBSTRUCTURE
     1 RES1        1 GROUP             0 ****  ****    0  
@<TRIPOS>MOLECULE
ligand_23
    18    19     1     0     0
SMALL
USER_CHARGES
****
Generated from the CSD

@<TRIPOS>ATOM
     1 O1      -1.2229  37.0039 -19.6372   O.co2     1 RES1   0.0000
     2 C2      -2.3267  37.5404 -19.8725   C.2       1 RES1   0.0000
     3 O3      -2.9449  37.1887 -20.9009   O.co2     1 RES1  -1.0000
     4 C4      -2.9306  38.5968 -18.9649   C.2       1 RES1   0.0000
     5 C5      -2.8520  39.9471 -19.3847   C.2       1 RES1   0.0000
     6 C6      -3.3811  40.9916 -18.6072   C.2       1 RES1   0.0000
     7 C7      -4.0065  40.7102 -17.3878   C.2       1 RES1   0.0000
     8 C8      -4.0962  39.3795 -16.9490   C.2       1 RES1   0.0000
     9 C9      -3.5682  38.3069 -17.7169   C.2       1 RES1   0.0000
    10 O10     -3.6520  36.9936 -17.2906   O.3       1 RES1   0.0000
    11 C11     -4.9097  36.3649 -17.0534   C.3       1 RES1   0.0000
    12 C12     -5.6140  36.0057 -18.3449   C.3       1 RES1   0.0000
    13 N13     -5.0321  34.6905 -18.7444   N.2       1 RES1   1.0000
    14 C14     -4.4670  34.0170 -17.5240   C.3       1 RES1   0.0000
    15 C15     -5.1910  32.6880 -17.2510   C.2       1 RES1   0.0000
    16 O16     -6.1810  32.3890 -17.9500   O.co2     1 RES1   0.0000
    17 O17     -4.7600  31.9530 -16.3350   O.co2     1 RES1  -1.0000
    18 C18     -4.6846  35.0230 -16.3973   C.3       1 RES1   0.0000
@<TRIPOS>BOND
     1     1     2    2
     2     2     3    1
     3     2     4    1
     4     4     5    2
     5     5     6    1
     6     6     7    2
     7     7     8    1
     8     8     9    2
     9     9    10    1
    10    11    10    1
    11    11    12    1
    12    12    13    1
    13    13    14    1
    14    14    15    1
    15    15    16    2
    16    15    17    1
    17    14    18    1
    18     9     4    1
    19    18    11    1
@<TRIPOS>SUBSTRUCTURE
     1 RES1        1 GROUP             0 ****  ****    0  
@<TRIPOS>MOLECULE
ligand_24
    18    19     1     0     0
SMALL
USER_CHARGES
****
Generated from the CSD

@<TRIPOS>ATOM
     1 O1      -3.1576  38.8012 -14.4807   O.co2     1 RES1   0.0000
     2 C2      -2.4227  38.9734 -15.4765   C.2       1 RES1   0.0000
     3 O3      -1.1854  38.8889 -15.3168   O.co2     1 RES1  -1.0000
     4 C4      -2.9763  39.2845 -16.8554   C.2       1 RES1   0.0000
     5 C5      -2.9006  40.6245 -17.3072   C.2       1 RES1   0.0000
     6 C6      -3.3906  41.0048 -18.5685   C.2       1 RES1   0.0000
     7 C7      -3.9678  40.0503 -19.4131   C.2       1 RES1   0.0000
     8 C8      -4.0555  38.7152 -18.9876   C.2       1 RES1   0.0000
     9 C9      -3.5682  38.3069 -17.7169   C.2       1 RES1   0.0000
    10 O10     -3.6520  36.9936 -17.2906   O.3       1 RES1   0.0000
    11 C11     -4.9097  36.3649 -17.0534   C.3       1 RES1   0.0000
    12 C12     -5.5130  35.8103 -18.3268   C.3       1 RES1   0.0000
    13 N13     -4.8764  34.4713 -18.4995   N.2       1 RES1   1.0000
    14 C14     -4.3850  33.9894 -17.1621   C.3       1 RES1   0.0000
    15 C15     -5.0981  32.6888 -16.7562   C.2       1 RES1   0.0000
    16 O16     -6.0295  32.2663 -17.4718   O.co2     1 RES1   0.0000
    17 O17     -4.7176  32.1001 -15.7200   O.co2     1 RES1  -1.0000
    18 C18     -4.7032  35.1333 -16.2034   C.3       1 RES1   0.0000
@<TRIPOS>BOND
     1     1     2    2
     2     2     3    1
     3     2     4    1
     4     4     5    2
     5     5     6    1
     6     6     7    2
     7     7     8    1
     8     8     9    2
     9     9    10    1
    10    11    10    1
    11    11    12    1
    12    12    13    1
    13    13    14    1
    14    14    15    1
    15    15    16    2
    16    15    17    1
    17    14    18    1
    18     9     4    1
    19    18    11    1
@<TRIPOS>SUBSTRUCTURE
     1 RES1        1 GROUP             0 ****  ****    0  
@<TRIPOS>MOLECULE
ligand_25
    18    19     1     0     0
SMALL
USER_CHARGES
****
Generated from the CSD

@<TRIPOS>ATOM
     1 O1      -3.7141  39.6125 -17.0353   O.co2     1 RES1   0.0000
     2 C2      -2.6481  39.1181 -17.4604   C.2       1 RES1   0.0000
     3 O3      -1.7271  38.9110 -16.6405   O.co2     1 RES1  -1.0000
     4 C4      -2.4356  38.7711 -18.9229   C.2       1 RES1   0.0000
     5 C5      -1.6455  39.6532 -19.6997   C.2       1 RES1   0.0000
     6 C6      -1.3982  39.4134 -21.0624   C.2       1 RES1   0.0000
     7 C7      -1.9345  38.2801 -21.6832   C.2       1 RES1   0.0000
     8 C8      -2.7222  37.3909 -20.9349   C.2       1 RES1   0.0000
     9 C9      -2.9869  37.6124 -19.5565   C.2       1 RES1   0.0000
    10 O10     -3.7627  36.7411 -18.8131   O.3       1 RES1   0.0000
    11 C11     -4.3364  35.5719 -19.3936   C.3       1 RES1   0.0000
    12 C12     -3.3040  34.4864 -19.6149   C.3       1 RES1   0.0000
    13 N13     -3.2010  33.7838 -18.3019   N.2       1 RES1   1.0000
    14 C14     -4.4670  34.0170 -17.5240   C.3       1 RES1   0.0000
    15 C15     -5.1910  32.6880 -17.2510   C.2       1 RES1   0.0000
    16 O16     -6.1766  32.3856 -17.9547   O.co2     1 RES1   0.0000
    17 O17     -4.7644  31.9564 -16.3302   O.co2     1 RES1  -1.0000
    18 C18     -5.2955  34.9421 -18.4110   C.3       1 RES1   0.0000
@<TRIPOS>BOND
     1     1     2    2
     2     2     3    1
     3     2     4    1
     4     4     5    2
     5     5     6    1
     6     6     7    2
     7     7     8    1
     8     8     9    2
     9     9    10    1
    10    11    10    1
    11    11    12    1
    12    12    13    1
    13    13    14    1
    14    14    15    1
    15    15    16    2
    16    15    17    1
    17    14    18    1
    18     9     4    1
    19    18    11    1
@<TRIPOS>SUBSTRUCTURE
     1 RES1        1 GROUP             0 ****  ****    0  
@<TRIPOS>MOLECULE
ligand_26
    18    19     1     0     0
SMALL
USER_CHARGES
****
Generated from the CSD

@<TRIPOS>ATOM
     1 O1      -6.2568  39.0507 -13.4278   O.co2     1 RES1   0.0000
     2 C2      -6.4392  39.5195 -14.5715   C.2       1 RES1   0.0000
     3 O3      -5.7389  40.4923 -14.9276   O.co2     1 RES1  -1.0000
     4 C4      -7.4751  38.9575 -15.5284   C.2       1 RES1   0.0000
     5 C5      -8.6849  39.6770 -15.6843   C.2       1 RES1   0.0000
     6 C6      -9.7014  39.2300 -16.5460   C.2       1 RES1   0.0000
     7 C7      -9.5311  38.0497 -17.2777   C.2       1 RES1   0.0000
     8 C8      -8.3410  37.3177 -17.1397   C.2       1 RES1   0.0000
     9 C9      -7.2997  37.7488 -16.2744   C.2       1 RES1   0.0000
    10 O10     -6.1249  37.0324 -16.1327   O.3       1 RES1   0.0000
    11 C11     -5.8976  35.8221 -16.8515   C.3       1 RES1   0.0000
    12 C12     -5.5733  35.9831 -18.3163   C.3       1 RES1   0.0000
    13 N13     -5.0390  34.6849 -18.7476   N.2       1 RES1   1.0000
    14 C14     -4.4670  34.0170 -17.5240   C.3       1 RES1   0.0000
    15 C15     -5.1910  32.6880 -17.2510   C.2       1 RES1   0.0000
    16 O16     -6.1810  32.3890 -17.9500   O.co2     1 RES1   0.0000
    17 O17     -4.7600  31.9530 -16.3350   O.co2     1 RES1  -1.0000
    18 C18     -4.6473  35.0503 -16.4058   C.3       1 RES1   0.0000
@<TRIPOS>BOND
     1     1     2    2
     2     2     3    1
     3     2     4    1
     4     4     5    2
     5     5     6    1
     6     6     7    2
     7     7     8    1
     8     8     9    2
     9     9    10    1
    10    11    10    1
    11    11    12    1
    12    12    13    1
    13    13    14    1
    14    14    15    1
    15    15    16    2
    16    15    17    1
    17    14    18    1
    18     9     4    1
    19    18    11    1
@<TRIPOS>SUBSTRUCTURE
     1 RES1        1 GROUP             0 ****  ****    0  
@<TRIPOS>MOLECULE
ligand_27
    18    19     1     0     0
SMALL
USER_CHARGES
****
Generated from the CSD

@<TRIPOS>ATOM
     1 O1      -4.4902  40.2282 -17.7820   O.co2     1 RES1   0.0000
     2 C2      -4.5876  39.7194 -16.6450   C.2       1 RES1   0.0000
     3 O3      -5.6859  39.8052 -16.0536   O.co2     1 RES1  -1.0000
     4 C4      -3.4280  39.0147 -15.9642   C.2       1 RES1   0.0000
     5 C5      -2.7403  39.7158 -14.9439   C.2       1 RES1   0.0000
     6 C6      -1.6530  39.1432 -14.2616   C.2       1 RES1   0.0000
     7 C7      -1.2272  37.8496 -14.5821   C.2       1 RES1   0.0000
     8 C8      -1.8920  37.1342 -15.5908   C.2       1 RES1   0.0000
     9 C9      -2.9927  37.6921 -16.2950   C.2       1 RES1   0.0000
    10 O10     -3.6520  36.9936 -17.2906   O.3       1 RES1   0.0000
    11 C11     -4.9097  36.3649 -17.0534   C.3       1 RES1   0.0000
    12 C12     -5.6140  36.0057 -18.3449   C.3       1 RES1   0.0000
    13 N13     -5.0321  34.6905 -18.7444   N.2       1 RES1   1.0000
    14 C14     -4.4670  34.0170 -17.5240   C.3       1 RES1   0.0000
    15 C15     -5.1910  32.6880 -17.2510   C.2       1 RES1   0.0000
    16 O16     -6.1810  32.3890 -17.9500   O.co2     1 RES1   0.0000
    17 O17     -4.7600  31.9530 -16.3350   O.co2     1 RES1  -1.0000
    18 C18     -4.6846  35.0230 -16.3973   C.3       1 RES1   0.0000
@<TRIPOS>BOND
     1     1     2    2
     2     2     3    1
     3     2     4    1
     4     4     5    2
     5     5     6    1
     6     6     7    2
     7     7     8    1
     8     8     9    2
     9     9    10    1
    10    11    10    1
    11    11    12    1
    12    12    13    1
    13    13    14    1
    14    14    15    1
    15    15    16    2
    16    15    17    1
    17    14    18    1
    18     9     4    1
    19    18    11    1
@<TRIPOS>SUBSTRUCTURE
     1 RES1        1 GROUP             0 ****  ****    0  
@<TRIPOS>MOLECULE
ligand_28
    18    19     1     0     0
SMALL
USER_CHARGES
****
Generated from the CSD

@<TRIPOS>ATOM
     1 O1      -2.5692  39.5990 -16.4626   O.co2     1 RES1   0.0000
     2 C2      -2.7717  38.6277 -17.2222   C.2       1 RES1   0.0000
     3 O3      -3.8701  38.0358 -17.1410   O.co2     1 RES1  -1.0000
     4 C4      -1.7375  38.1451 -18.2233   C.2       1 RES1   0.0000
     5 C5      -0.5047  38.8396 -18.2814   C.2       1 RES1   0.0000
     6 C6       0.5096  38.4650 -19.1795   C.2       1 RES1   0.0000
     7 C7       0.3162  37.3810 -20.0426   C.2       1 RES1   0.0000
     8 C8      -0.8979  36.6769 -20.0050   C.2       1 RES1   0.0000
     9 C9      -1.9382  37.0372 -19.1067   C.2       1 RES1   0.0000
    10 O10     -3.1373  36.3488 -19.0646   O.3       1 RES1   0.0000
    11 C11     -3.2129  34.9615 -19.3855   C.3       1 RES1   0.0000
    12 C12     -2.2688  34.1337 -18.5391   C.3       1 RES1   0.0000
    13 N13     -3.0146  33.8809 -17.2711   N.2       1 RES1   1.0000
    14 C14     -4.4884  34.0211 -17.5365   C.3       1 RES1   0.0000
    15 C15     -5.2184  32.6940 -17.2703   C.2       1 RES1   0.0000
    16 O16     -6.2018  32.3969 -17.9793   O.co2     1 RES1   0.0000
    17 O17     -4.7986  31.9585 -16.3495   O.co2     1 RES1  -1.0000
    18 C18     -4.5749  34.4312 -19.0039   C.3       1 RES1   0.0000
@<TRIPOS>BOND
     1     1     2    2
     2     2     3    1
     3     2     4    1
     4     4     5    2
     5     5     6    1
     6     6     7    2
     7     7     8    1
     8     8     9    2
     9     9    10    1
    10    11    10    1
    11    11    12    1
    12    12    13    1
    13    13    14    1
    14    14    15    1
    15    15    16    2
    16    15    17    1
    17    14    18    1
    18     9     4    1
    19    18    11    1
@<TRIPOS>SUBSTRUCTURE
     1 RES1        1 GROUP             0 ****  ****    0  
@<TRIPOS>MOLECULE
ligand_29
    18    19     1     0     0
SMALL
USER_CHARGES
****
Generated from the CSD

@<TRIPOS>ATOM
     1 O1      -4.2957  40.2475 -17.9252   O.co2     1 RES1   0.0000
     2 C2      -3.1234  39.8675 -17.7185   C.2       1 RES1   0.0000
     3 O3      -2.2554  40.1433 -18.5751   O.co2     1 RES1  -1.0000
     4 C4      -2.7255  39.0859 -16.4794   C.2       1 RES1   0.0000
     5 C5      -2.0479  39.7847 -15.4508   C.2       1 RES1   0.0000
     6 C6      -1.6388  39.1416 -14.2699   C.2       1 RES1   0.0000
     7 C7      -1.9009  37.7795 -14.0868   C.2       1 RES1   0.0000
     8 C8      -2.5703  37.0642 -15.0924   C.2       1 RES1   0.0000
     9 C9      -2.9927  37.6921 -16.2950   C.2       1 RES1   0.0000
    10 O10     -3.6520  36.9936 -17.2906   O.3       1 RES1   0.0000
    11 C11     -4.9097  36.3649 -17.0534   C.3       1 RES1   0.0000
    12 C12     -5.7038  36.1905 -18.3309   C.3       1 RES1   0.0000
    13 N13     -5.1859  34.9268 -18.9332   N.2       1 RES1   1.0000
    14 C14     -4.5645  34.0894 -17.8492   C.3       1 RES1   0.0000
    15 C15     -5.3075  32.7511 -17.7015   C.2       1 RES1   0.0000
    16 O16     -6.3476  32.5653 -18.3662   O.co2     1 RES1   0.0000
    17 O17     -4.8409  31.8950 -16.9177   O.co2     1 RES1  -1.0000
    18 C18     -4.6821  34.9450 -16.5909   C.3       1 RES1   0.0000
@<TRIPOS>BOND
     1     1     2    2
     2     2     3    1
     3     2     4    1
     4     4     5    2
     5     5     6    1
     6     6     7    2
     7     7     8    1
     8     8     9    2
     9     9    10    1
    10    11    10    1
    11    11    12    1
    12    12    13    1
    13    13    14    1
    14    14    15    1
    15    15    16    2
    16    15    17    1
    17    14    18    1
    18     9     4    1
    19    18    11    1
@<TRIPOS>SUBSTRUCTURE
     1 RES1        1 GROUP             0 ****  ****    0  
@<TRIPOS>MOLECULE
ligand_30
    18    19     1     0     0
SMALL
USER_CHARGES
****
Generated from the CSD

@<TRIPOS>ATOM
     1 O1      -1.2404  34.8984 -16.1944   O.co2     1 RES1   0.0000
     2 C2      -0.9596  36.0788 -16.4931   C.2       1 RES1   0.0000
     3 O3      -0.0388  36.2748 -17.3160   O.co2     1 RES1  -1.0000
     4 C4      -1.6868  37.2678 -15.8916   C.2       1 RES1   0.0000
     5 C5      -1.0275  37.9934 -14.8696   C.2       1 RES1   0.0000
     6 C6      -1.6258  39.1061 -14.2536   C.2       1 RES1   0.0000
     7 C7      -2.9016  39.5237 -14.6478   C.2       1 RES1   0.0000
     8 C8      -3.5765  38.8202 -15.6582   C.2       1 RES1   0.0000
     9 C9      -2.9927  37.6921 -16.2950   C.2       1 RES1   0.0000
    10 O10     -3.6520  36.9936 -17.2906   O.3       1 RES1   0.0000
    11 C11     -4.9097  36.3649 -17.0534   C.3       1 RES1   0.0000
    12 C12     -5.6140  36.0057 -18.3449   C.3       1 RES1   0.0000
    13 N13     -5.0321  34.6905 -18.7444   N.2       1 RES1   1.0000
    14 C14     -4.4670  34.0170 -17.5240   C.3       1 RES1   0.0000
    15 C15     -5.1910  32.6880 -17.2510   C.2       1 RES1   0.0000
    16 O16     -6.1810  32.3890 -17.9500   O.co2     1 RES1   0.0000
    17 O17     -4.7600  31.9530 -16.3350   O.co2     1 RES1  -1.0000
    18 C18     -4.6846  35.0230 -16.3973   C.3       1 RES1   0.0000
@<TRIPOS>BOND
     1     1     2    2
     2     2     3    1
     3     2     4    1
     4     4     5    2
     5     5     6    1
     6     6     7    2
     7     7     8    1
     8     8     9    2
     9     9    10    1
    10    11    10    1
    11    11    12    1
    12    12    13    1
    13    13    14    1
    14    14    15    1
    15    15    16    2
    16    15    17    1
    17    14    18    1
    18     9     4    1
    19    18    11    1
@<TRIPOS>SUBSTRUCTURE
     1 RES1        1 GROUP             0 ****  ****    0  
@<TRIPOS>MOLECULE
ligand_31
    18    19     1     0     0
SMALL
USER_CHARGES
****
Generated from the CSD

@<TRIPOS>ATOM
     1 O1      -2.2485  38.5918 -16.4279   O.co2     1 RES1   0.0000
     2 C2      -2.4363  39.0675 -17.5679   C.2       1 RES1   0.0000
     3 O3      -1.4525  39.5397 -18.1782   O.co2     1 RES1  -1.0000
     4 C4      -3.8045  39.0963 -18.2250   C.2       1 RES1   0.0000
     5 C5      -4.5001  40.3298 -18.2416   C.2       1 RES1   0.0000
     6 C6      -5.7731  40.4492 -18.8253   C.2       1 RES1   0.0000
     7 C7      -6.3827  39.3346 -19.4114   C.2       1 RES1   0.0000
     8 C8      -5.7140  38.1001 -19.4068   C.2       1 RES1   0.0000
     9 C9      -4.4272  37.9544 -18.8222   C.2       1 RES1   0.0000
    10 O10     -3.7627  36.7411 -18.8131   O.3       1 RES1   0.0000
    11 C11     -4.3364  35.5719 -19.3936   C.3       1 RES1   0.0000
    12 C12     -3.3040  34.4864 -19.6149   C.3       1 RES1   0.0000
    13 N13     -3.2010  33.7838 -18.3019   N.2       1 RES1   1.0000
    14 C14     -4.4670  34.0170 -17.5240   C.3       1 RES1   0.0000
    15 C15     -5.1910  32.6880 -17.2510   C.2       1 RES1   0.0000
    16 O16     -6.1766  32.3856 -17.9547   O.co2     1 RES1   0.0000
    17 O17     -4.7644  31.9564 -16.3302   O.co2     1 RES1  -1.0000
    18 C18     -5.2955  34.9421 -18.4110   C.3       1 RES1   0.0000
@<TRIPOS>BOND
     1     1     2    2
     2     2     3    1
     3     2     4    1
     4     4     5    2
     5     5     6    1
     6     6     7    2
     7     7     8    1
     8     8     9    2
     9     9    10    1
    10    11    10    1
    11    11    12    1
    12    12    13    1
    13    13    14    1
    14    14    15    1
    15    15    16    2
    16    15    17    1
    17    14    18    1
    18     9     4    1
    19    18    11    1
@<TRIPOS>SUBSTRUCTURE
     1 RES1        1 GROUP             0 ****  ****    0  
@<TRIPOS>MOLECULE
ligand_32
    18    19     1     0     0
SMALL
USER_CHARGES
****
Generated from the CSD

@<TRIPOS>ATOM
     1 O1      -5.6689  39.5446 -21.2957   O.co2     1 RES1   0.0000
     2 C2      -5.1352  38.7078 -20.5366   C.2       1 RES1   0.0000
     3 O3      -5.8811  37.9611 -19.8661   O.co2     1 RES1  -1.0000
     4 C4      -3.6292  38.5745 -20.3990   C.2       1 RES1   0.0000
     5 C5      -2.8194  39.4571 -21.1545   C.2       1 RES1   0.0000
     6 C6      -1.4162  39.4040 -21.0922   C.2       1 RES1   0.0000
     7 C7      -0.7863  38.4655 -20.2677   C.2       1 RES1   0.0000
     8 C8      -1.5671  37.5786 -19.5096   C.2       1 RES1   0.0000
     9 C9      -2.9869  37.6124 -19.5565   C.2       1 RES1   0.0000
    10 O10     -3.7627  36.7411 -18.8131   O.3       1 RES1   0.0000
    11 C11     -4.3364  35.5719 -19.3936   C.3       1 RES1   0.0000
    12 C12     -3.3042  34.4859 -19.6137   C.3       1 RES1   0.0000
    13 N13     -3.2025  33.7838 -18.3004   N.2       1 RES1   1.0000
    14 C14     -4.4690  34.0177 -17.5235   C.3       1 RES1   0.0000
    15 C15     -5.1937  32.6891 -17.2506   C.2       1 RES1   0.0000
    16 O16     -6.1784  32.3865 -17.9554   O.co2     1 RES1   0.0000
    17 O17     -4.7685  31.9580 -16.3287   O.co2     1 RES1  -1.0000
    18 C18     -5.2964  34.9428 -18.4115   C.3       1 RES1   0.0000
@<TRIPOS>BOND
     1     1     2    2
     2     2     3    1
     3     2     4    1
     4     4     5    2
     5     5     6    1
     6     6     7    2
     7     7     8    1
     8     8     9    2
     9     9    10    1
    10    11    10    1
    11    11    12    1
    12    12    13    1
    13    13    14    1
    14    14    15    1
    15    15    16    2
    16    15    17    1
    17    14    18    1
    18     9     4    1
    19    18    11    1
@<TRIPOS>SUBSTRUCTURE
     1 RES1        1 GROUP             0 ****  ****    0  
@<TRIPOS>MOLECULE
ligand_33
    18    19     1     0     0
SMALL
USER_CHARGES
****
Generated from the CSD

@<TRIPOS>ATOM
     1 O1      -6.4981  41.2118 -15.9090   O.co2     1 RES1   0.0000
     2 C2      -6.3507  39.9729 -15.9776   C.2       1 RES1   0.0000
     3 O3      -5.1883  39.5229 -16.0761   O.co2     1 RES1  -1.0000
     4 C4      -7.5231  39.0089 -15.9522   C.2       1 RES1   0.0000
     5 C5      -8.8238  39.5585 -15.8440   C.2       1 RES1   0.0000
     6 C6      -9.9674  38.7419 -15.8100   C.2       1 RES1   0.0000
     7 C7      -9.8379  37.3510 -15.8865   C.2       1 RES1   0.0000
     8 C8      -8.5589  36.7817 -15.9932   C.2       1 RES1   0.0000
     9 C9      -7.3883  37.5862 -16.0286   C.2       1 RES1   0.0000
    10 O10     -6.1249  37.0324 -16.1327   O.3       1 RES1   0.0000
    11 C11     -5.8976  35.8221 -16.8515   C.3       1 RES1   0.0000
    12 C12     -5.5973  35.9817 -18.3215   C.3       1 RES1   0.0000
    13 N13     -5.0578  34.6871 -18.7574   N.2       1 RES1   1.0000
    14 C14     -4.4610  34.0281 -17.5408   C.3       1 RES1   0.0000
    15 C15     -5.1686  32.6934 -17.2530   C.2       1 RES1   0.0000
    16 O16     -6.1664  32.3833 -17.9359   O.co2     1 RES1   0.0000
    17 O17     -4.7169  31.9651 -16.3417   O.co2     1 RES1  -1.0000
    18 C18     -4.6336  35.0630 -16.4229   C.3       1 RES1   0.0000
@<TRIPOS>BOND
     1     1     2    2
     2     2     3    1
     3     2     4    1
     4     4     5    2
     5     5     6    1
     6     6     7    2
     7     7     8    1
     8     8     9    2
     9     9    10    1
    10    11    10    1
    11    11    12    1
    12    12    13    1
    13    13    14    1
    14    14    15    1
    15    15    16    2
    16    15    17    1
    17    14    18    1
    18     9     4    1
    19    18    11    1
@<TRIPOS>SUBSTRUCTURE
     1 RES1        1 GROUP             0 ****  ****    0  
@<TRIPOS>MOLECULE
ligand_34
    18    19     1     0     0
SMALL
USER_CHARGES
****
Generated from the CSD

@<TRIPOS>ATOM
     1 O1      -5.3341  40.0155 -14.7606   O.co2     1 RES1   0.0000
     2 C2      -6.5209  39.6248 -14.7746   C.2       1 RES1   0.0000
     3 O3      -7.3849  40.3838 -15.2653   O.co2     1 RES1  -1.0000
     4 C4      -6.9432  38.2779 -14.2161   C.2       1 RES1   0.0000
     5 C5      -7.5729  38.2603 -12.9477   C.2       1 RES1   0.0000
     6 C6      -7.9945  37.0592 -12.3518   C.2       1 RES1   0.0000
     7 C7      -7.7987  35.8421 -13.0134   C.2       1 RES1   0.0000
     8 C8      -7.1758  35.8329 -14.2716   C.2       1 RES1   0.0000
     9 C9      -6.7402  37.0338 -14.8937   C.2       1 RES1   0.0000
    10 O10     -6.1249  37.0324 -16.1327   O.3       1 RES1   0.0000
    11 C11     -5.8976  35.8221 -16.8515   C.3       1 RES1   0.0000
    12 C12     -5.5733  35.9831 -18.3163   C.3       1 RES1   0.0000
    13 N13     -5.0390  34.6849 -18.7476   N.2       1 RES1   1.0000
    14 C14     -4.4670  34.0170 -17.5240   C.3       1 RES1   0.0000
    15 C15     -5.1910  32.6880 -17.2510   C.2       1 RES1   0.0000
    16 O16     -6.1810  32.3890 -17.9500   O.co2     1 RES1   0.0000
    17 O17     -4.7600  31.9530 -16.3350   O.co2     1 RES1  -1.0000
    18 C18     -4.6473  35.0503 -16.4058   C.3       1 RES1   0.0000
@<TRIPOS>BOND
     1     1     2    2
     2     2     3    1
     3     2     4    1
     4     4     5    2
     5     5     6    1
     6     6     7    2
     7     7     8    1
     8     8     9    2
     9     9    10    1
    10    11    10    1
    11    11    12    1
    12    12    13    1
    13    13    14    1
    14    14    15    1
    15    15    16    2
    16    15    17    1
    17    14    18    1
    18     9     4    1
    19    18    11    1
@<TRIPOS>SUBSTRUCTURE
     1 RES1        1 GROUP             0 ****  ****    0  
@<TRIPOS>MOLECULE
ligand_35
    18    19     1     0     0
SMALL
USER_CHARGES
****
Generated from the CSD

@<TRIPOS>ATOM
     1 O1      -9.5421  35.7633 -14.0425   O.co2     1 RES1   0.0000
     2 C2      -8.5037  36.1209 -14.6384   C.2       1 RES1   0.0000
     3 O3      -7.4612  35.4551 -14.4560   O.co2     1 RES1  -1.0000
     4 C4      -8.4658  37.3266 -15.5601   C.2       1 RES1   0.0000
     5 C5      -9.6603  38.0706 -15.7187   C.2       1 RES1   0.0000
     6 C6      -9.7190  39.1995 -16.5540   C.2       1 RES1   0.0000
     7 C7      -8.5796  39.6151 -17.2516   C.2       1 RES1   0.0000
     8 C8      -7.3834  38.8935 -17.1120   C.2       1 RES1   0.0000
     9 C9      -7.2997  37.7488 -16.2744   C.2       1 RES1   0.0000
    10 O10     -6.1249  37.0324 -16.1327   O.3       1 RES1   0.0000
    11 C11     -5.8976  35.8221 -16.8515   C.3       1 RES1   0.0000
    12 C12     -5.5715  35.9832 -18.3159   C.3       1 RES1   0.0000
    13 N13     -5.0376  34.6847 -18.7469   N.2       1 RES1   1.0000
    14 C14     -4.4675  34.0162 -17.5227   C.3       1 RES1   0.0000
    15 C15     -5.1927  32.6876 -17.2509   C.2       1 RES1   0.0000
    16 O16     -6.1821  32.3894 -17.9511   O.co2     1 RES1   0.0000
    17 O17     -4.7633  31.9521 -16.3345   O.co2     1 RES1  -1.0000
    18 C18     -4.6483  35.0494 -16.4045   C.3       1 RES1   0.0000
@<TRIPOS>BOND
     1     1     2    2
     2     2     3    1
     3     2     4    1
     4     4     5    2
     5     5     6    1
     6     6     7    2
     7     7     8    1
     8     8     9    2
     9     9    10    1
    10    11    10    1
    11    11    12    1
    12    12    13    1
    13    13    14    1
    14    14    15    1
    15    15    16    2
    16    15    17    1
    17    14    18    1
    18     9     4    1
    19    18    11    1
@<TRIPOS>SUBSTRUCTURE
     1 RES1        1 GROUP             0 ****  ****    0  
@<TRIPOS>MOLECULE
ligand_36
    18    19     1     0     0
SMALL
USER_CHARGES
****
Generated from the CSD

@<TRIPOS>ATOM
     1 O1      -1.8551  40.4769 -18.5645   O.co2     1 RES1   0.0000
     2 C2      -2.3898  39.3505 -18.6454   C.2       1 RES1   0.0000
     3 O3      -1.6580  38.3680 -18.8956   O.co2     1 RES1  -1.0000
     4 C4      -3.8815  39.1400 -18.4586   C.2       1 RES1   0.0000
     5 C5      -4.6765  40.2786 -18.1809   C.2       1 RES1   0.0000
     6 C6      -6.0654  40.1780 -17.9901   C.2       1 RES1   0.0000
     7 C7      -6.6961  38.9320 -18.0756   C.2       1 RES1   0.0000
     8 C8      -5.9297  37.7878 -18.3489   C.2       1 RES1   0.0000
     9 C9      -4.5244  37.8642 -18.5445   C.2       1 RES1   0.0000
    10 O10     -3.7627  36.7411 -18.8131   O.3       1 RES1   0.0000
    11 C11     -4.3364  35.5719 -19.3936   C.3       1 RES1   0.0000
    12 C12     -3.2778  34.6194 -19.9087   C.3       1 RES1   0.0000
    13 N13     -2.8658  33.8243 -18.7146   N.2       1 RES1   1.0000
    14 C14     -3.9740  33.8617 -17.6983   C.3       1 RES1   0.0000
    15 C15     -4.5173  32.4477 -17.4328   C.2       1 RES1   0.0000
    16 O16     -5.5898  32.1056 -17.9720   O.co2     1 RES1   0.0000
    17 O17     -3.8625  31.6898 -16.6832   O.co2     1 RES1  -1.0000
    18 C18     -5.0324  34.7681 -18.3205   C.3       1 RES1   0.0000
@<TRIPOS>BOND
     1     1     2    2
     2     2     3    1
     3     2     4    1
     4     4     5    2
     5     5     6    1
     6     6     7    2
     7     7     8    1
     8     8     9    2
     9     9    10    1
    10    11    10    1
    11    11    12    1
    12    12    13    1
    13    13    14    1
    14    14    15    1
    15    15    16    2
    16    15    17    1
    17    14    18    1
    18     9     4    1
    19    18    11    1
@<TRIPOS>SUBSTRUCTURE
     1 RES1        1 GROUP             0 ****  ****    0  
@<TRIPOS>MOLECULE
ligand_37
    18    19     1     0     0
SMALL
USER_CHARGES
****
Generated from the CSD

@<TRIPOS>ATOM
     1 O1      -3.8962  38.6819 -17.3170   O.co2     1 RES1   0.0000
     2 C2      -3.1107  39.1608 -18.1626   C.2       1 RES1   0.0000
     3 O3      -3.3447  40.3086 -18.5999   O.co2     1 RES1  -1.0000
     4 C4      -1.9003  38.4010 -18.6745   C.2       1 RES1   0.0000
     5 C5      -0.6646  39.0910 -18.7263   C.2       1 RES1   0.0000
     6 C6       0.5074  38.4682 -19.1890   C.2       1 RES1   0.0000
     7 C7       0.4729  37.1344 -19.6101   C.2       1 RES1   0.0000
     8 C8      -0.7403  36.4290 -19.5694   C.2       1 RES1   0.0000
     9 C9      -1.9382  37.0372 -19.1067   C.2       1 RES1   0.0000
    10 O10     -3.1373  36.3488 -19.0646   O.3       1 RES1   0.0000
    11 C11     -3.2129  34.9615 -19.3855   C.3       1 RES1   0.0000
    12 C12     -2.4107  34.1140 -18.4205   C.3       1 RES1   0.0000
    13 N13     -3.3204  33.8944 -17.2577   N.2       1 RES1   1.0000
    14 C14     -4.7431  34.0753 -17.7112   C.3       1 RES1   0.0000
    15 C15     -5.5409  32.7726 -17.5343   C.2       1 RES1   0.0000
    16 O16     -6.4336  32.4982 -18.3624   O.co2     1 RES1   0.0000
    17 O17     -5.2652  32.0334 -16.5634   O.co2     1 RES1  -1.0000
    18 C18     -4.6280  34.4747 -19.1796   C.3       1 RES1   0.0000
@<TRIPOS>BOND
     1     1     2    2
     2     2     3    1
     3     2     4    1
     4     4     5    2
     5     5     6    1
     6     6     7    2
     7     7     8    1
     8     8     9    2
     9     9    10    1
    10    11    10    1
    11    11    12    1
    12    12    13    1
    13    13    14    1
    14    14    15    1
    15    15    16    2
    16    15    17    1
    17    14    18    1
    18     9     4    1
    19    18    11    1
@<TRIPOS>SUBSTRUCTURE
     1 RES1        1 GROUP             0 ****  ****    0  
@<TRIPOS>MOLECULE
ligand_38
    18    19     1     0     0
SMALL
USER_CHARGES
****
Generated from the CSD

@<TRIPOS>ATOM
     1 O1      -8.2449  40.2924 -14.5406   O.co2     1 RES1   0.0000
     2 C2      -7.6152  39.3393 -15.0469   C.2       1 RES1   0.0000
     3 O3      -7.3496  39.3914 -16.2676   O.co2     1 RES1  -1.0000
     4 C4      -7.1733  38.1323 -14.2392   C.2       1 RES1   0.0000
     5 C5      -7.4971  38.1094 -12.8607   C.2       1 RES1   0.0000
     6 C6      -7.1257  37.0342 -12.0351   C.2       1 RES1   0.0000
     7 C7      -6.4214  35.9503 -12.5704   C.2       1 RES1   0.0000
     8 C8      -6.0876  35.9498 -13.9341   C.2       1 RES1   0.0000
     9 C9      -6.4511  37.0255 -14.7883   C.2       1 RES1   0.0000
    10 O10     -6.1249  37.0324 -16.1327   O.3       1 RES1   0.0000
    11 C11     -5.8976  35.8221 -16.8515   C.3       1 RES1   0.0000
    12 C12     -5.8964  35.9456 -18.3553   C.3       1 RES1   0.0000
    13 N13     -5.3022  34.6984 -18.8536   N.2       1 RES1   1.0000
    14 C14     -4.4177  34.1645 -17.7568   C.3       1 RES1   0.0000
    15 C15     -4.9010  32.7757 -17.3069   C.2       1 RES1   0.0000
    16 O16     -5.9660  32.3283 -17.7799   O.co2     1 RES1   0.0000
    17 O17     -4.2069  32.1432 -16.4803   O.co2     1 RES1  -1.0000
    18 C18     -4.4971  35.2249 -16.6523   C.3       1 RES1   0.0000
@<TRIPOS>BOND
     1     1     2    2
     2     2     3    1
     3     2     4    1
     4     4     5    2
     5     5     6    1
     6     6     7    2
     7     7     8    1
     8     8     9    2
     9     9    10    1
    10    11    10    1
    11    11    12    1
    12    12    13    1
    13    13    14    1
    14    14    15    1
    15    15    16    2
    16    15    17    1
    17    14    18    1
    18     9     4    1
    19    18    11    1
@<TRIPOS>SUBSTRUCTURE
     1 RES1        1 GROUP             0 ****  ****    0  
@<TRIPOS>MOLECULE
ligand_39
    18    19     1     0     0
SMALL
USER_CHARGES
****
Generated from the CSD

@<TRIPOS>ATOM
     1 O1       0.2170  37.4174 -17.6464   O.co2     1 RES1   0.0000
     2 C2      -0.9702  37.1932 -17.9650   C.2       1 RES1   0.0000
     3 O3      -1.6271  36.3935 -17.2634   O.co2     1 RES1  -1.0000
     4 C4      -1.6305  37.8474 -19.1652   C.2       1 RES1   0.0000
     5 C5      -0.8515  38.7439 -19.9367   C.2       1 RES1   0.0000
     6 C6      -1.3807  39.3975 -21.0629   C.2       1 RES1   0.0000
     7 C7      -2.7059  39.1676 -21.4483   C.2       1 RES1   0.0000
     8 C8      -3.4991  38.2840 -20.6991   C.2       1 RES1   0.0000
     9 C9      -2.9869  37.6124 -19.5565   C.2       1 RES1   0.0000
    10 O10     -3.7627  36.7411 -18.8131   O.3       1 RES1   0.0000
    11 C11     -4.3364  35.5719 -19.3936   C.3       1 RES1   0.0000
    12 C12     -3.3040  34.4864 -19.6149   C.3       1 RES1   0.0000
    13 N13     -3.2010  33.7838 -18.3019   N.2       1 RES1   1.0000
    14 C14     -4.4670  34.0170 -17.5240   C.3       1 RES1   0.0000
    15 C15     -5.1910  32.6880 -17.2510   C.2       1 RES1   0.0000
    16 O16     -6.1766  32.3856 -17.9547   O.co2     1 RES1   0.0000
    17 O17     -4.7644  31.9564 -16.3302   O.co2     1 RES1  -1.0000
    18 C18     -5.2955  34.9421 -18.4110   C.3       1 RES1   0.0000
@<TRIPOS>BOND
     1     1     2    2
     2     2     3    1
     3     2     4    1
     4     4     5    2
     5     5     6    1
     6     6     7    2
     7     7     8    1
     8     8     9    2
     9     9    10    1
    10    11    10    1
    11    11    12    1
    12    12    13    1
    13    13    14    1
    14    14    15    1
    15    15    16    2
    16    15    17    1
    17    14    18    1
    18     9     4    1
    19    18    11    1
@<TRIPOS>SUBSTRUCTURE
     1 RES1        1 GROUP             0 ****  ****    0  
@<TRIPOS>MOLECULE
ligand_40
    18    19     1     0     0
SMALL
USER_CHARGES
****
Generated from the CSD

@<TRIPOS>ATOM
     1 O1      -5.1607  40.6486 -19.4719   O.co2     1 RES1   0.0000
     2 C2      -4.7754  39.4797 -19.2567   C.2       1 RES1   0.0000
     3 O3      -5.5110  38.7335 -18.5743   O.co2     1 RES1  -1.0000
     4 C4      -3.4565  38.9448 -19.7848   C.2       1 RES1   0.0000
     5 C5      -2.6502  39.8225 -20.5497   C.2       1 RES1   0.0000
     6 C6      -1.4153  39.4126 -21.0812   C.2       1 RES1   0.0000
     7 C7      -0.9534  38.1110 -20.8576   C.2       1 RES1   0.0000
     8 C8      -1.7350  37.2214 -20.1032   C.2       1 RES1   0.0000
     9 C9      -2.9869  37.6124 -19.5565   C.2       1 RES1   0.0000
    10 O10     -3.7627  36.7411 -18.8131   O.3       1 RES1   0.0000
    11 C11     -4.3364  35.5719 -19.3936   C.3       1 RES1   0.0000
    12 C12     -3.3603  34.4143 -19.4139   C.3       1 RES1   0.0000
    13 N13     -3.4721  33.7966 -18.0597   N.2       1 RES1   1.0000
    14 C14     -4.8075  34.1566 -17.4687   C.3       1 RES1   0.0000
    15 C15     -5.6487  32.8945 -17.2147   C.2       1 RES1   0.0000
    16 O16     -6.5545  32.6041 -18.0229   O.co2     1 RES1   0.0000
    17 O17     -5.3937  32.2032 -16.2038   O.co2     1 RES1  -1.0000
    18 C18     -5.4525  35.0679 -18.5092   C.3       1 RES1   0.0000
@<TRIPOS>BOND
     1     1     2    2
     2     2     3    1
     3     2     4    1
     4     4     5    2
     5     5     6    1
     6     6     7    2
     7     7     8    1
     8     8     9    2
     9     9    10    1
    10    11    10    1
    11    11    12    1
    12    12    13    1
    13    13    14    1
    14    14    15    1
    15    15    16    2
    16    15    17    1
    17    14    18    1
    18     9     4    1
    19    18    11    1
@<TRIPOS>SUBSTRUCTURE
     1 RES1        1 GROUP             0 ****  ****    0  
@<TRIPOS>MOLECULE
ligand_41
    18    19     1     0     0
SMALL
USER_CHARGES
****
Generated from the CSD

@<TRIPOS>ATOM
     1 O1      -8.5359  37.6692 -12.7506   O.co2     1 RES1   0.0000
     2 C2      -7.7953  37.4611 -13.7352   C.2       1 RES1   0.0000
     3 O3      -6.7420  36.8125 -13.5531   O.co2     1 RES1  -1.0000
     4 C4      -8.1258  37.9697 -15.1268   C.2       1 RES1   0.0000
     5 C5      -9.3260  38.7036 -15.2908   C.2       1 RES1   0.0000
     6 C6      -9.7138  39.2101 -16.5432   C.2       1 RES1   0.0000
     7 C7      -8.9066  38.9969 -17.6659   C.2       1 RES1   0.0000
     8 C8      -7.7124  38.2715 -17.5296   C.2       1 RES1   0.0000
     9 C9      -7.2997  37.7488 -16.2744   C.2       1 RES1   0.0000
    10 O10     -6.1249  37.0324 -16.1327   O.3       1 RES1   0.0000
    11 C11     -5.8976  35.8221 -16.8515   C.3       1 RES1   0.0000
    12 C12     -5.5733  35.9831 -18.3163   C.3       1 RES1   0.0000
    13 N13     -5.0390  34.6849 -18.7476   N.2       1 RES1   1.0000
    14 C14     -4.4670  34.0170 -17.5240   C.3       1 RES1   0.0000
    15 C15     -5.1910  32.6880 -17.2510   C.2       1 RES1   0.0000
    16 O16     -6.1810  32.3890 -17.9500   O.co2     1 RES1   0.0000
    17 O17     -4.7600  31.9530 -16.3350   O.co2     1 RES1  -1.0000
    18 C18     -4.6473  35.0503 -16.4058   C.3       1 RES1   0.0000
@<TRIPOS>BOND
     1     1     2    2
     2     2     3    1
     3     2     4    1
     4     4     5    2
     5     5     6    1
     6     6     7    2
     7     7     8    1
     8     8     9    2
     9     9    10    1
    10    11    10    1
    11    11    12    1
    12    12    13    1
    13    13    14    1
    14    14    15    1
    15    15    16    2
    16    15    17    1
    17    14    18    1
    18     9     4    1
    19    18    11    1
@<TRIPOS>SUBSTRUCTURE
     1 RES1        1 GROUP             0 ****  ****    0  
@<TRIPOS>MOLECULE
ligand_42
    18    19     1     0     0
SMALL
USER_CHARGES
****
Generated from the CSD

@<TRIPOS>ATOM
     1 O1      -6.3970  38.4692 -23.6094   O.co2     1 RES1   0.0000
     2 C2      -6.0525  37.6285 -22.7516   C.2       1 RES1   0.0000
     3 O3      -6.2185  37.9155 -21.5460   O.co2     1 RES1  -1.0000
     4 C4      -5.4404  36.2894 -23.1211   C.2       1 RES1   0.0000
     5 C5      -5.2654  36.0039 -24.4972   C.2       1 RES1   0.0000
     6 C6      -4.7098  34.7882 -24.9319   C.2       1 RES1   0.0000
     7 C7      -4.3115  33.8258 -23.9976   C.2       1 RES1   0.0000
     8 C8      -4.4756  34.0847 -22.6275   C.2       1 RES1   0.0000
     9 C9      -5.0356  35.3055 -22.1639   C.2       1 RES1   0.0000
    10 O10     -5.2011  35.5672 -20.8156   O.3       1 RES1   0.0000
    11 C11     -4.8153  34.6228 -19.8194   C.3       1 RES1   0.0000
    12 C12     -3.3317  34.5041 -19.5712   C.3       1 RES1   0.0000
    13 N13     -3.2004  33.7745 -18.3034   N.2       1 RES1   1.0000
    14 C14     -4.4670  34.0170 -17.5240   C.3       1 RES1   0.0000
    15 C15     -5.1910  32.6880 -17.2510   C.2       1 RES1   0.0000
    16 O16     -6.1810  32.3890 -17.9500   O.co2     1 RES1   0.0000
    17 O17     -4.7600  31.9530 -16.3350   O.co2     1 RES1  -1.0000
    18 C18     -5.2747  34.9826 -18.3992   C.3       1 RES1   0.0000
@<TRIPOS>BOND
     1     1     2    2
     2     2     3    1
     3     2     4    1
     4     4     5    2
     5     5     6    1
     6     6     7    2
     7     7     8    1
     8     8     9    2
     9     9    10    1
    10    11    10    1
    11    11    12    1
    12    12    13    1
    13    13    14    1
    14    14    15    1
    15    15    16    2
    16    15    17    1
    17    14    18    1
    18     9     4    1
    19    18    11    1
@<TRIPOS>SUBSTRUCTURE
     1 RES1        1 GROUP             0 ****  ****    0  
@<TRIPOS>MOLECULE
ligand_43
    18    19     1     0     0
SMALL
USER_CHARGES
****
Generated from the CSD

@<TRIPOS>ATOM
     1 O1      -3.6787  39.0764 -22.3053   O.co2     1 RES1   0.0000
     2 C2      -3.6717  38.3632 -21.2794   C.2       1 RES1   0.0000
     3 O3      -3.0436  37.2828 -21.3177   O.co2     1 RES1  -1.0000
     4 C4      -4.3976  38.7581 -20.0059   C.2       1 RES1   0.0000
     5 C5      -5.0817  39.9981 -19.9967   C.2       1 RES1   0.0000
     6 C6      -5.7780  40.4463 -18.8610   C.2       1 RES1   0.0000
     7 C7      -5.8098  39.6612 -17.7034   C.2       1 RES1   0.0000
     8 C8      -5.1384  38.4282 -17.6870   C.2       1 RES1   0.0000
     9 C9      -4.4272  37.9544 -18.8222   C.2       1 RES1   0.0000
    10 O10     -3.7627  36.7411 -18.8131   O.3       1 RES1   0.0000
    11 C11     -4.3364  35.5719 -19.3936   C.3       1 RES1   0.0000
    12 C12     -3.3040  34.4864 -19.6149   C.3       1 RES1   0.0000
    13 N13     -3.2010  33.7838 -18.3019   N.2       1 RES1   1.0000
    14 C14     -4.4670  34.0170 -17.5240   C.3       1 RES1   0.0000
    15 C15     -5.1910  32.6880 -17.2510   C.2       1 RES1   0.0000
    16 O16     -6.1762  32.3853 -17.9551   O.co2     1 RES1   0.0000
    17 O17     -4.7648  31.9567 -16.3298   O.co2     1 RES1  -1.0000
    18 C18     -5.2955  34.9421 -18.4110   C.3       1 RES1   0.0000
@<TRIPOS>BOND
     1     1     2    2
     2     2     3    1
     3     2     4    1
     4     4     5    2
     5     5     6    1
     6     6     7    2
     7     7     8    1
     8     8     9    2
     9     9    10    1
    10    11    10    1
    11    11    12    1
    12    12    13    1
    13    13    14    1
    14    14    15    1
    15    15    16    2
    16    15    17    1
    17    14    18    1
    18     9     4    1
    19    18    11    1
@<TRIPOS>SUBSTRUCTURE
     1 RES1        1 GROUP             0 ****  ****    0  
@<TRIPOS>MOLECULE
ligand_44
    18    19     1     0     0
SMALL
USER_CHARGES
****
Generated from the CSD

@<TRIPOS>ATOM
     1 O1     -10.3137  36.7582 -15.9451   O.co2     1 RES1   0.0000
     2 C2      -9.0712  36.8523 -16.0379   C.2       1 RES1   0.0000
     3 O3      -8.5652  36.8621 -17.1812   O.co2     1 RES1  -1.0000
     4 C4      -8.1669  36.9472 -14.8222   C.2       1 RES1   0.0000
     5 C5      -8.7799  36.9520 -13.5456   C.2       1 RES1   0.0000
     6 C6      -8.0218  37.0399 -12.3653   C.2       1 RES1   0.0000
     7 C7      -6.6268  37.1227 -12.4329   C.2       1 RES1   0.0000
     8 C8      -5.9953  37.1209 -13.6868   C.2       1 RES1   0.0000
     9 C9      -6.7402  37.0338 -14.8937   C.2       1 RES1   0.0000
    10 O10     -6.1249  37.0324 -16.1327   O.3       1 RES1   0.0000
    11 C11     -5.8976  35.8221 -16.8515   C.3       1 RES1   0.0000
    12 C12     -5.5746  35.9830 -18.3166   C.3       1 RES1   0.0000
    13 N13     -5.0400  34.6850 -18.7481   N.2       1 RES1   1.0000
    14 C14     -4.4667  34.0176 -17.5249   C.3       1 RES1   0.0000
    15 C15     -5.1898  32.6883 -17.2511   C.2       1 RES1   0.0000
    16 O16     -6.1802  32.3887 -17.9493   O.co2     1 RES1   0.0000
    17 O17     -4.7577  31.9536 -16.3353   O.co2     1 RES1  -1.0000
    18 C18     -4.6466  35.0510 -16.4067   C.3       1 RES1   0.0000
@<TRIPOS>BOND
     1     1     2    2
     2     2     3    1
     3     2     4    1
     4     4     5    2
     5     5     6    1
     6     6     7    2
     7     7     8    1
     8     8     9    2
     9     9    10    1
    10    11    10    1
    11    11    12    1
    12    12    13    1
    13    13    14    1
    14    14    15    1
    15    15    16    2
    16    15    17    1
    17    14    18    1
    18     9     4    1
    19    18    11    1
@<TRIPOS>SUBSTRUCTURE
     1 RES1        1 GROUP             0 ****  ****    0  
@<TRIPOS>MOLECULE
ligand_45
    18    19     1     0     0
SMALL
USER_CHARGES
****
Generated from the CSD

@<TRIPOS>ATOM
     1 O1       0.8512  36.9658 -18.1007   O.co2     1 RES1   0.0000
     2 C2      -0.3624  36.8929 -17.8125   C.2       1 RES1   0.0000
     3 O3      -1.0790  36.1110 -18.4747   O.co2     1 RES1  -1.0000
     4 C4      -0.9885  37.7176 -16.7023   C.2       1 RES1   0.0000
     5 C5      -0.1440  38.5944 -15.9785   C.2       1 RES1   0.0000
     6 C6      -0.6362  39.3938 -14.9324   C.2       1 RES1   0.0000
     7 C7      -1.9904  39.3379 -14.5851   C.2       1 RES1   0.0000
     8 C8      -2.8478  38.4757 -15.2869   C.2       1 RES1   0.0000
     9 C9      -2.3736  37.6574 -16.3473   C.2       1 RES1   0.0000
    10 O10     -3.2123  36.8050 -17.0427   O.3       1 RES1   0.0000
    11 C11     -4.3291  36.1800 -16.4138   C.3       1 RES1   0.0000
    12 C12     -5.5577  36.1963 -17.2988   C.3       1 RES1   0.0000
    13 N13     -5.3995  35.0124 -18.1940   N.2       1 RES1   1.0000
    14 C14     -4.4771  34.0236 -17.5354   C.3       1 RES1   0.0000
    15 C15     -5.2044  32.6953 -17.2675   C.2       1 RES1   0.0000
    16 O16     -6.1974  32.4032 -17.9651   O.co2     1 RES1   0.0000
    17 O17     -4.7729  31.9540 -16.3568   O.co2     1 RES1  -1.0000
    18 C18     -4.0476  34.7061 -16.2398   C.3       1 RES1   0.0000
@<TRIPOS>BOND
     1     1     2    2
     2     2     3    1
     3     2     4    1
     4     4     5    2
     5     5     6    1
     6     6     7    2
     7     7     8    1
     8     8     9    2
     9     9    10    1
    10    11    10    1
    11    11    12    1
    12    12    13    1
    13    13    14    1
    14    14    15    1
    15    15    16    2
    16    15    17    1
    17    14    18    1
    18     9     4    1
    19    18    11    1
@<TRIPOS>SUBSTRUCTURE
     1 RES1        1 GROUP             0 ****  ****    0  
@<TRIPOS>MOLECULE
ligand_46
    18    19     1     0     0
SMALL
USER_CHARGES
****
Generated from the CSD

@<TRIPOS>ATOM
     1 O1      -8.9140  38.4714 -13.3385   O.co2     1 RES1   0.0000
     2 C2      -8.0697  38.0228 -14.1430   C.2       1 RES1   0.0000
     3 O3      -7.2325  37.1969 -13.7182   O.co2     1 RES1  -1.0000
     4 C4      -8.0241  38.4477 -15.5996   C.2       1 RES1   0.0000
     5 C5      -8.9869  39.3881 -16.0405   C.2       1 RES1   0.0000
     6 C6      -9.0220  39.8362 -17.3723   C.2       1 RES1   0.0000
     7 C7      -8.0900  39.3554 -18.2984   C.2       1 RES1   0.0000
     8 C8      -7.1261  38.4215 -17.8861   C.2       1 RES1   0.0000
     9 C9      -7.0712  37.9530 -16.5458   C.2       1 RES1   0.0000
    10 O10     -6.1249  37.0324 -16.1327   O.3       1 RES1   0.0000
    11 C11     -5.8976  35.8221 -16.8515   C.3       1 RES1   0.0000
    12 C12     -5.5020  35.9858 -18.2984   C.3       1 RES1   0.0000
    13 N13     -4.9838  34.6769 -18.7167   N.2       1 RES1   1.0000
    14 C14     -4.4870  33.9838 -17.4744   C.3       1 RES1   0.0000
    15 C15     -5.2585  32.6731 -17.2472   C.2       1 RES1   0.0000
    16 O16     -6.2230  32.4070 -17.9935   O.co2     1 RES1   0.0000
    17 O17     -4.8901  31.9192 -16.3192   O.co2     1 RES1  -1.0000
    18 C18     -4.6905  35.0127 -16.3561   C.3       1 RES1   0.0000
@<TRIPOS>BOND
     1     1     2    2
     2     2     3    1
     3     2     4    1
     4     4     5    2
     5     5     6    1
     6     6     7    2
     7     7     8    1
     8     8     9    2
     9     9    10    1
    10    11    10    1
    11    11    12    1
    12    12    13    1
    13    13    14    1
    14    14    15    1
    15    15    16    2
    16    15    17    1
    17    14    18    1
    18     9     4    1
    19    18    11    1
@<TRIPOS>SUBSTRUCTURE
     1 RES1        1 GROUP             0 ****  ****    0  
@<TRIPOS>MOLECULE
ligand_47
    18    19     1     0     0
SMALL
USER_CHARGES
****
Generated from the CSD

@<TRIPOS>ATOM
     1 O1      -2.6309  38.7055 -19.5489   O.co2     1 RES1   0.0000
     2 C2      -1.8760  38.9648 -18.5876   C.2       1 RES1   0.0000
     3 O3      -0.6624  39.1491 -18.8251   O.co2     1 RES1  -1.0000
     4 C4      -2.3774  39.0556 -17.1576   C.2       1 RES1   0.0000
     5 C5      -1.9621  40.1672 -16.3847   C.2       1 RES1   0.0000
     6 C6      -2.3743  40.3318 -15.0511   C.2       1 RES1   0.0000
     7 C7      -3.2173  39.3867 -14.4564   C.2       1 RES1   0.0000
     8 C8      -3.6422  38.2751 -15.2015   C.2       1 RES1   0.0000
     9 C9      -3.2382  38.0867 -16.5506   C.2       1 RES1   0.0000
    10 O10     -3.6520  36.9936 -17.2906   O.3       1 RES1   0.0000
    11 C11     -4.9097  36.3649 -17.0534   C.3       1 RES1   0.0000
    12 C12     -5.6140  36.0057 -18.3449   C.3       1 RES1   0.0000
    13 N13     -5.0321  34.6905 -18.7444   N.2       1 RES1   1.0000
    14 C14     -4.4670  34.0170 -17.5240   C.3       1 RES1   0.0000
    15 C15     -5.1910  32.6880 -17.2510   C.2       1 RES1   0.0000
    16 O16     -6.1810  32.3890 -17.9500   O.co2     1 RES1   0.0000
    17 O17     -4.7600  31.9530 -16.3350   O.co2     1 RES1  -1.0000
    18 C18     -4.6846  35.0230 -16.3973   C.3       1 RES1   0.0000
@<TRIPOS>BOND
     1     1     2    2
     2     2     3    1
     3     2     4    1
     4     4     5    2
     5     5     6    1
     6     6     7    2
     7     7     8    1
     8     8     9    2
     9     9    10    1
    10    11    10    1
    11    11    12    1
    12    12    13    1
    13    13    14    1
    14    14    15    1
    15    15    16    2
    16    15    17    1
    17    14    18    1
    18     9     4    1
    19    18    11    1
@<TRIPOS>SUBSTRUCTURE
     1 RES1        1 GROUP             0 ****  ****    0  
@<TRIPOS>MOLECULE
ligand_48
    18    19     1     0     0
SMALL
USER_CHARGES
****
Generated from the CSD

@<TRIPOS>ATOM
     1 O1      -4.4730  38.3512 -14.7301   O.co2     1 RES1   0.0000
     2 C2      -4.9276  39.0814 -15.6365   C.2       1 RES1   0.0000
     3 O3      -6.0458  39.6122 -15.4597   O.co2     1 RES1  -1.0000
     4 C4      -4.1784  39.3363 -16.9319   C.2       1 RES1   0.0000
     5 C5      -4.0844  40.6750 -17.3845   C.2       1 RES1   0.0000
     6 C6      -3.4126  41.0043 -18.5744   C.2       1 RES1   0.0000
     7 C7      -2.8137  39.9997 -19.3422   C.2       1 RES1   0.0000
     8 C8      -2.8939  38.6645 -18.9154   C.2       1 RES1   0.0000
     9 C9      -3.5682  38.3069 -17.7169   C.2       1 RES1   0.0000
    10 O10     -3.6520  36.9936 -17.2906   O.3       1 RES1   0.0000
    11 C11     -4.9097  36.3649 -17.0534   C.3       1 RES1   0.0000
    12 C12     -5.6146  36.0068 -18.3449   C.3       1 RES1   0.0000
    13 N13     -5.0330  34.6919 -18.7456   N.2       1 RES1   1.0000
    14 C14     -4.4675  34.0173 -17.5260   C.3       1 RES1   0.0000
    15 C15     -5.1916  32.6882 -17.2537   C.2       1 RES1   0.0000
    16 O16     -6.1819  32.3899 -17.9526   O.co2     1 RES1   0.0000
    17 O17     -4.7604  31.9524 -16.3385   O.co2     1 RES1  -1.0000
    18 C18     -4.6846  35.0225 -16.3984   C.3       1 RES1   0.0000
@<TRIPOS>BOND
     1     1     2    2
     2     2     3    1
     3     2     4    1
     4     4     5    2
     5     5     6    1
     6     6     7    2
     7     7     8    1
     8     8     9    2
     9     9    10    1
    10    11    10    1
    11    11    12    1
    12    12    13    1
    13    13    14    1
    14    14    15    1
    15    15    16    2
    16    15    17    1
    17    14    18    1
    18     9     4    1
    19    18    11    1
@<TRIPOS>SUBSTRUCTURE
     1 RES1        1 GROUP             0 ****  ****    0  
@<TRIPOS>MOLECULE
ligand_49
    18    19     1     0     0
SMALL
USER_CHARGES
****
Generated from the CSD

@<TRIPOS>ATOM
     1 O1      -4.6829  38.5802 -15.1486   O.co2     1 RES1   0.0000
     2 C2      -4.3937  38.0057 -16.2199   C.2       1 RES1   0.0000
     3 O3      -3.7880  36.9136 -16.1574   O.co2     1 RES1  -1.0000
     4 C4      -4.7437  38.5867 -17.5779   C.2       1 RES1   0.0000
     5 C5      -5.4260  39.8275 -17.6061   C.2       1 RES1   0.0000
     6 C6      -5.7927  40.4385 -18.8175   C.2       1 RES1   0.0000
     7 C7      -5.4824  39.8230 -20.0351   C.2       1 RES1   0.0000
     8 C8      -4.8074  38.5919 -20.0338   C.2       1 RES1   0.0000
     9 C9      -4.4272  37.9544 -18.8222   C.2       1 RES1   0.0000
    10 O10     -3.7627  36.7411 -18.8131   O.3       1 RES1   0.0000
    11 C11     -4.3364  35.5719 -19.3936   C.3       1 RES1   0.0000
    12 C12     -3.3040  34.4864 -19.6149   C.3       1 RES1   0.0000
    13 N13     -3.2010  33.7838 -18.3019   N.2       1 RES1   1.0000
    14 C14     -4.4670  34.0170 -17.5240   C.3       1 RES1   0.0000
    15 C15     -5.1910  32.6880 -17.2510   C.2       1 RES1   0.0000
    16 O16     -6.1766  32.3856 -17.9547   O.co2     1 RES1   0.0000
    17 O17     -4.7644  31.9564 -16.3302   O.co2     1 RES1  -1.0000
    18 C18     -5.2955  34.9421 -18.4110   C.3       1 RES1   0.0000
@<TRIPOS>BOND
     1     1     2    2
     2     2     3    1
     3     2     4    1
     4     4     5    2
     5     5     6    1
     6     6     7    2
     7     7     8    1
     8     8     9    2
     9     9    10    1
    10    11    10    1
    11    11    12    1
    12    12    13    1
    13    13    14    1
    14    14    15    1
    15    15    16    2
    16    15    17    1
    17    14    18    1
    18     9     4    1
    19    18    11    1
@<TRIPOS>SUBSTRUCTURE
     1 RES1        1 GROUP             0 ****  ****    0  
@<TRIPOS>MOLECULE
ligand_50
    18    19     1     0     0
SMALL
USER_CHARGES
****
Generated from the CSD

@<TRIPOS>ATOM
     1 O1      -1.5190  37.1390 -16.8431   O.co2     1 RES1   0.0000
     2 C2      -1.6280  38.2386 -17.4265   C.2       1 RES1   0.0000
     3 O3      -1.4720  39.2805 -16.7530   O.co2     1 RES1  -1.0000
     4 C4      -1.9461  38.3490 -18.9067   C.2       1 RES1   0.0000
     5 C5      -1.1630  39.2379 -19.6829   C.2       1 RES1   0.0000
     6 C6      -1.3883  39.4067 -21.0600   C.2       1 RES1   0.0000
     7 C7      -2.4039  38.6859 -21.6975   C.2       1 RES1   0.0000
     8 C8      -3.1949  37.7992 -20.9497   C.2       1 RES1   0.0000
     9 C9      -2.9869  37.6124 -19.5565   C.2       1 RES1   0.0000
    10 O10     -3.7627  36.7411 -18.8131   O.3       1 RES1   0.0000
    11 C11     -4.3364  35.5719 -19.3936   C.3       1 RES1   0.0000
    12 C12     -3.3040  34.4864 -19.6149   C.3       1 RES1   0.0000
    13 N13     -3.2010  33.7838 -18.3019   N.2       1 RES1   1.0000
    14 C14     -4.4670  34.0170 -17.5240   C.3       1 RES1   0.0000
    15 C15     -5.1910  32.6880 -17.2510   C.2       1 RES1   0.0000
    16 O16     -6.1766  32.3856 -17.9547   O.co2     1 RES1   0.0000
    17 O17     -4.7644  31.9564 -16.3302   O.co2     1 RES1  -1.0000
    18 C18     -5.2955  34.9421 -18.4110   C.3       1 RES1   0.0000
@<TRIPOS>BOND
     1     1     2    2
     2     2     3    1
     3     2     4    1
     4     4     5    2
     5     5     6    1
     6     6     7    2
     7     7     8    1
     8     8     9    2
     9     9    10    1
    10    11    10    1
    11    11    12    1
    12    12    13    1
    13    13    14    1
    14    14    15    1
    15    15    16    2
    16    15    17    1
    17    14    18    1
    18     9     4    1
    19    18    11    1
@<TRIPOS>SUBSTRUCTURE
     1 RES1        1 GROUP             0 ****  ****    0  
@<TRIPOS>MOLECULE
ligand_51
    18    19     1     0     0
SMALL
USER_CHARGES
****
Generated from the CSD

@<TRIPOS>ATOM
     1 O1      -3.6170  39.0112 -16.8385   O.co2     1 RES1   0.0000
     2 C2      -3.6272  39.5649 -17.9586   C.2       1 RES1   0.0000
     3 O3      -4.2644  40.6337 -18.0812   O.co2     1 RES1  -1.0000
     4 C4      -2.9054  38.9856 -19.1619   C.2       1 RES1   0.0000
     5 C5      -2.1082  39.8637 -19.9358   C.2       1 RES1   0.0000
     6 C6      -1.4067  39.4159 -21.0684   C.2       1 RES1   0.0000
     7 C7      -1.4834  38.0734 -21.4548   C.2       1 RES1   0.0000
     8 C8      -2.2681  37.1830 -20.7046   C.2       1 RES1   0.0000
     9 C9      -2.9869  37.6124 -19.5565   C.2       1 RES1   0.0000
    10 O10     -3.7627  36.7411 -18.8131   O.3       1 RES1   0.0000
    11 C11     -4.3364  35.5719 -19.3936   C.3       1 RES1   0.0000
    12 C12     -3.3466  34.4274 -19.4539   C.3       1 RES1   0.0000
    13 N13     -3.4154  33.7914 -18.1053   N.2       1 RES1   1.0000
    14 C14     -4.7395  34.1267 -17.4755   C.3       1 RES1   0.0000
    15 C15     -5.5578  32.8507 -17.2162   C.2       1 RES1   0.0000
    16 O16     -6.4808  32.5588 -18.0043   O.co2     1 RES1   0.0000
    17 O17     -5.2678  32.1499 -16.2213   O.co2     1 RES1  -1.0000
    18 C18     -5.4227  35.0424 -18.4873   C.3       1 RES1   0.0000
@<TRIPOS>BOND
     1     1     2    2
     2     2     3    1
     3     2     4    1
     4     4     5    2
     5     5     6    1
     6     6     7    2
     7     7     8    1
     8     8     9    2
     9     9    10    1
    10    11    10    1
    11    11    12    1
    12    12    13    1
    13    13    14    1
    14    14    15    1
    15    15    16    2
    16    15    17    1
    17    14    18    1
    18     9     4    1
    19    18    11    1
@<TRIPOS>SUBSTRUCTURE
     1 RES1        1 GROUP             0 ****  ****    0  
@<TRIPOS>MOLECULE
ligand_52
    18    19     1     0     0
SMALL
USER_CHARGES
****
Generated from the CSD

@<TRIPOS>ATOM
     1 O1      -4.0295  38.5603 -12.8263   O.co2     1 RES1   0.0000
     2 C2      -4.6235  38.1133 -13.8306   C.2       1 RES1   0.0000
     3 O3      -4.0255  38.1394 -14.9284   O.co2     1 RES1  -1.0000
     4 C4      -6.0326  37.5527 -13.7631   C.2       1 RES1   0.0000
     5 C5      -6.6771  37.5445 -12.5020   C.2       1 RES1   0.0000
     6 C6      -7.9802  37.0418 -12.3446   C.2       1 RES1   0.0000
     7 C7      -8.6744  36.5359 -13.4490   C.2       1 RES1   0.0000
     8 C8      -8.0567  36.5320 -14.7098   C.2       1 RES1   0.0000
     9 C9      -6.7402  37.0338 -14.8937   C.2       1 RES1   0.0000
    10 O10     -6.1249  37.0324 -16.1327   O.3       1 RES1   0.0000
    11 C11     -5.8976  35.8221 -16.8515   C.3       1 RES1   0.0000
    12 C12     -5.5733  35.9831 -18.3163   C.3       1 RES1   0.0000
    13 N13     -5.0390  34.6849 -18.7476   N.2       1 RES1   1.0000
    14 C14     -4.4670  34.0170 -17.5240   C.3       1 RES1   0.0000
    15 C15     -5.1910  32.6880 -17.2510   C.2       1 RES1   0.0000
    16 O16     -6.1810  32.3890 -17.9500   O.co2     1 RES1   0.0000
    17 O17     -4.7600  31.9530 -16.3350   O.co2     1 RES1  -1.0000
    18 C18     -4.6473  35.0503 -16.4058   C.3       1 RES1   0.0000
@<TRIPOS>BOND
     1     1     2    2
     2     2     3    1
     3     2     4    1
     4     4     5    2
     5     5     6    1
     6     6     7    2
     7     7     8    1
     8     8     9    2
     9     9    10    1
    10    11    10    1
    11    11    12    1
    12    12    13    1
    13    13    14    1
    14    14    15    1
    15    15    16    2
    16    15    17    1
    17    14    18    1
    18     9     4    1
    19    18    11    1
@<TRIPOS>SUBSTRUCTURE
     1 RES1        1 GROUP             0 ****  ****    0  
@<TRIPOS>MOLECULE
ligand_53
    18    19     1     0     0
SMALL
USER_CHARGES
****
Generated from the CSD

@<TRIPOS>ATOM
     1 O1      -6.1609  38.4289 -23.7391   O.co2     1 RES1   0.0000
     2 C2      -5.8419  37.5926 -22.8672   C.2       1 RES1   0.0000
     3 O3      -4.6845  37.6446 -22.3970   O.co2     1 RES1  -1.0000
     4 C4      -6.8002  36.5248 -22.3713   C.2       1 RES1   0.0000
     5 C5      -8.1006  36.4970 -22.9316   C.2       1 RES1   0.0000
     6 C6      -9.0547  35.5458 -22.5307   C.2       1 RES1   0.0000
     7 C7      -8.7296  34.5939 -21.5582   C.2       1 RES1   0.0000
     8 C8      -7.4472  34.6013 -20.9867   C.2       1 RES1   0.0000
     9 C9      -6.4663  35.5532 -21.3749   C.2       1 RES1   0.0000
    10 O10     -5.2011  35.5672 -20.8156   O.3       1 RES1   0.0000
    11 C11     -4.8153  34.6228 -19.8194   C.3       1 RES1   0.0000
    12 C12     -3.3317  34.5041 -19.5712   C.3       1 RES1   0.0000
    13 N13     -3.2004  33.7745 -18.3034   N.2       1 RES1   1.0000
    14 C14     -4.4670  34.0170 -17.5240   C.3       1 RES1   0.0000
    15 C15     -5.1910  32.6880 -17.2510   C.2       1 RES1   0.0000
    16 O16     -6.1810  32.3890 -17.9500   O.co2     1 RES1   0.0000
    17 O17     -4.7600  31.9530 -16.3350   O.co2     1 RES1  -1.0000
    18 C18     -5.2747  34.9826 -18.3992   C.3       1 RES1   0.0000
@<TRIPOS>BOND
     1     1     2    2
     2     2     3    1
     3     2     4    1
     4     4     5    2
     5     5     6    1
     6     6     7    2
     7     7     8    1
     8     8     9    2
     9     9    10    1
    10    11    10    1
    11    11    12    1
    12    12    13    1
    13    13    14    1
    14    14    15    1
    15    15    16    2
    16    15    17    1
    17    14    18    1
    18     9     4    1
    19    18    11    1
@<TRIPOS>SUBSTRUCTURE
     1 RES1        1 GROUP             0 ****  ****    0  
@<TRIPOS>MOLECULE
ligand_54
    18    19     1     0     0
SMALL
USER_CHARGES
****
Generated from the CSD

@<TRIPOS>ATOM
     1 O1      -0.5368  36.2179 -16.2412   O.co2     1 RES1   0.0000
     2 C2      -0.7611  37.3212 -16.7831   C.2       1 RES1   0.0000
     3 O3      -0.0578  37.6496 -17.7633   O.co2     1 RES1  -1.0000
     4 C4      -1.8422  38.2669 -16.2918   C.2       1 RES1   0.0000
     5 C5      -1.4368  39.3904 -15.5309   C.2       1 RES1   0.0000
     6 C6      -2.3687  40.3171 -15.0325   C.2       1 RES1   0.0000
     7 C7      -3.7337  40.1438 -15.2861   C.2       1 RES1   0.0000
     8 C8      -4.1611  39.0372 -16.0371   C.2       1 RES1   0.0000
     9 C9      -3.2382  38.0867 -16.5506   C.2       1 RES1   0.0000
    10 O10     -3.6520  36.9936 -17.2906   O.3       1 RES1   0.0000
    11 C11     -4.9097  36.3649 -17.0534   C.3       1 RES1   0.0000
    12 C12     -5.6185  36.0146 -18.3449   C.3       1 RES1   0.0000
    13 N13     -5.0394  34.7013 -18.7544   N.2       1 RES1   1.0000
    14 C14     -4.4713  34.0195 -17.5401   C.3       1 RES1   0.0000
    15 C15     -5.1960  32.6896 -17.2731   C.2       1 RES1   0.0000
    16 O16     -6.1885  32.3962 -17.9709   O.co2     1 RES1   0.0000
    17 O17     -4.7630  31.9484 -16.3631   O.co2     1 RES1  -1.0000
    18 C18     -4.6842  35.0187 -16.4064   C.3       1 RES1   0.0000
@<TRIPOS>BOND
     1     1     2    2
     2     2     3    1
     3     2     4    1
     4     4     5    2
     5     5     6    1
     6     6     7    2
     7     7     8    1
     8     8     9    2
     9     9    10    1
    10    11    10    1
    11    11    12    1
    12    12    13    1
    13    13    14    1
    14    14    15    1
    15    15    16    2
    16    15    17    1
    17    14    18    1
    18     9     4    1
    19    18    11    1
@<TRIPOS>SUBSTRUCTURE
     1 RES1        1 GROUP             0 ****  ****    0  
@<TRIPOS>MOLECULE
ligand_55
    18    19     1     0     0
SMALL
USER_CHARGES
****
Generated from the CSD

@<TRIPOS>ATOM
     1 O1      -2.1219  38.1687 -16.7290   O.co2     1 RES1   0.0000
     2 C2      -3.2803  38.6127 -16.5801   C.2       1 RES1   0.0000
     3 O3      -3.6794  38.8381 -15.4167   O.co2     1 RES1  -1.0000
     4 C4      -4.2094  38.8780 -17.7509   C.2       1 RES1   0.0000
     5 C5      -4.8995  40.1145 -17.7754   C.2       1 RES1   0.0000
     6 C6      -5.7822  40.4443 -18.8184   C.2       1 RES1   0.0000
     7 C7      -5.9950  39.5436 -19.8676   C.2       1 RES1   0.0000
     8 C8      -5.3234  38.3106 -19.8657   C.2       1 RES1   0.0000
     9 C9      -4.4272  37.9544 -18.8222   C.2       1 RES1   0.0000
    10 O10     -3.7627  36.7411 -18.8131   O.3       1 RES1   0.0000
    11 C11     -4.3364  35.5719 -19.3936   C.3       1 RES1   0.0000
    12 C12     -3.3067  34.4813 -19.6018   C.3       1 RES1   0.0000
    13 N13     -3.2175  33.7837 -18.2853   N.2       1 RES1   1.0000
    14 C14     -4.4890  34.0252 -17.5189   C.3       1 RES1   0.0000
    15 C15     -5.2207  32.7003 -17.2465   C.2       1 RES1   0.0000
    16 O16     -6.2019  32.3993 -17.9569   O.co2     1 RES1   0.0000
    17 O17     -4.8046  31.9706 -16.3195   O.co2     1 RES1  -1.0000
    18 C18     -5.3062  34.9501 -18.4165   C.3       1 RES1   0.0000
@<TRIPOS>BOND
     1     1     2    2
     2     2     3    1
     3     2     4    1
     4     4     5    2
     5     5     6    1
     6     6     7    2
     7     7     8    1
     8     8     9    2
     9     9    10    1
    10    11    10    1
    11    11    12    1
    12    12    13    1
    13    13    14    1
    14    14    15    1
    15    15    16    2
    16    15    17    1
    17    14    18    1
    18     9     4    1
    19    18    11    1
@<TRIPOS>SUBSTRUCTURE
     1 RES1        1 GROUP             0 ****  ****    0  
@<TRIPOS>MOLECULE
ligand_56
    18    19     1     0     0
SMALL
USER_CHARGES
****
Generated from the CSD

@<TRIPOS>ATOM
     1 O1      -4.2393  38.8905 -14.6952   O.co2     1 RES1   0.0000
     2 C2      -5.3605  39.1285 -14.1978   C.2       1 RES1   0.0000
     3 O3      -5.6338  40.3121 -13.9011   O.co2     1 RES1  -1.0000
     4 C4      -6.3864  38.0398 -13.9393   C.2       1 RES1   0.0000
     5 C5      -7.0248  38.0249 -12.6752   C.2       1 RES1   0.0000
     6 C6      -7.9851  37.0524 -12.3470   C.2       1 RES1   0.0000
     7 C7      -8.3338  36.0692 -13.2793   C.2       1 RES1   0.0000
     8 C8      -7.7142  36.0619 -14.5392   C.2       1 RES1   0.0000
     9 C9      -6.7402  37.0338 -14.8937   C.2       1 RES1   0.0000
    10 O10     -6.1249  37.0324 -16.1327   O.3       1 RES1   0.0000
    11 C11     -5.8976  35.8221 -16.8515   C.3       1 RES1   0.0000
    12 C12     -5.5507  35.9842 -18.3110   C.3       1 RES1   0.0000
    13 N13     -5.0214  34.6826 -18.7381   N.2       1 RES1   1.0000
    14 C14     -4.4730  34.0065 -17.5082   C.3       1 RES1   0.0000
    15 C15     -5.2123  32.6831 -17.2494   C.2       1 RES1   0.0000
    16 O16     -6.1945  32.3945 -17.9636   O.co2     1 RES1   0.0000
    17 O17     -4.8009  31.9420 -16.3293   O.co2     1 RES1  -1.0000
    18 C18     -4.6606  35.0384 -16.3898   C.3       1 RES1   0.0000
@<TRIPOS>BOND
     1     1     2    2
     2     2     3    1
     3     2     4    1
     4     4     5    2
     5     5     6    1
     6     6     7    2
     7     7     8    1
     8     8     9    2
     9     9    10    1
    10    11    10    1
    11    11    12    1
    12    12    13    1
    13    13    14    1
    14    14    15    1
    15    15    16    2
    16    15    17    1
    17    14    18    1
    18     9     4    1
    19    18    11    1
@<TRIPOS>SUBSTRUCTURE
     1 RES1        1 GROUP             0 ****  ****    0  
@<TRIPOS>MOLECULE
ligand_57
    18    19     1     0     0
SMALL
USER_CHARGES
****
Generated from the CSD

@<TRIPOS>ATOM
     1 O1      -5.3494  39.8054 -15.2481   O.co2     1 RES1   0.0000
     2 C2      -5.3605  39.1285 -14.1978   C.2       1 RES1   0.0000
     3 O3      -4.4846  39.3631 -13.3369   O.co2     1 RES1  -1.0000
     4 C4      -6.3864  38.0398 -13.9393   C.2       1 RES1   0.0000
     5 C5      -7.0248  38.0249 -12.6752   C.2       1 RES1   0.0000
     6 C6      -7.9851  37.0524 -12.3470   C.2       1 RES1   0.0000
     7 C7      -8.3338  36.0692 -13.2793   C.2       1 RES1   0.0000
     8 C8      -7.7142  36.0619 -14.5392   C.2       1 RES1   0.0000
     9 C9      -6.7402  37.0338 -14.8937   C.2       1 RES1   0.0000
    10 O10     -6.1249  37.0324 -16.1327   O.3       1 RES1   0.0000
    11 C11     -5.8976  35.8221 -16.8515   C.3       1 RES1   0.0000
    12 C12     -5.5507  35.9842 -18.3110   C.3       1 RES1   0.0000
    13 N13     -5.0214  34.6826 -18.7381   N.2       1 RES1   1.0000
    14 C14     -4.4730  34.0065 -17.5082   C.3       1 RES1   0.0000
    15 C15     -5.2123  32.6831 -17.2494   C.2       1 RES1   0.0000
    16 O16     -6.1945  32.3945 -17.9636   O.co2     1 RES1   0.0000
    17 O17     -4.8009  31.9420 -16.3293   O.co2     1 RES1  -1.0000
    18 C18     -4.6606  35.0384 -16.3898   C.3       1 RES1   0.0000
@<TRIPOS>BOND
     1     1     2    2
     2     2     3    1
     3     2     4    1
     4     4     5    2
     5     5     6    1
     6     6     7    2
     7     7     8    1
     8     8     9    2
     9     9    10    1
    10    11    10    1
    11    11    12    1
    12    12    13    1
    13    13    14    1
    14    14    15    1
    15    15    16    2
    16    15    17    1
    17    14    18    1
    18     9     4    1
    19    18    11    1
@<TRIPOS>SUBSTRUCTURE
     1 RES1        1 GROUP             0 ****  ****    0  
@<TRIPOS>MOLECULE
ligand_58
    18    19     1     0     0
SMALL
USER_CHARGES
****
Generated from the CSD

@<TRIPOS>ATOM
     1 O1      -1.1013  37.3810 -16.8268   O.co2     1 RES1   0.0000
     2 C2      -1.0471  37.5145 -18.0680   C.2       1 RES1   0.0000
     3 O3      -0.0566  37.0432 -18.6681   O.co2     1 RES1  -1.0000
     4 C4      -2.1283  38.2272 -18.8601   C.2       1 RES1   0.0000
     5 C5      -1.7174  39.1843 -19.8197   C.2       1 RES1   0.0000
     6 C6      -2.6489  39.8946 -20.5965   C.2       1 RES1   0.0000
     7 C7      -4.0190  39.6622 -20.4342   C.2       1 RES1   0.0000
     8 C8      -4.4518  38.7190 -19.4886   C.2       1 RES1   0.0000
     9 C9      -3.5294  37.9894 -18.6911   C.2       1 RES1   0.0000
    10 O10     -3.9485  37.0593 -17.7568   O.3       1 RES1   0.0000
    11 C11     -5.1537  36.3176 -17.9310   C.3       1 RES1   0.0000
    12 C12     -5.1713  35.5694 -19.2475   C.3       1 RES1   0.0000
    13 N13     -4.4308  34.3021 -18.9764   N.2       1 RES1   1.0000
    14 C14     -4.4723  34.0199 -17.4996   C.3       1 RES1   0.0000
    15 C15     -5.1995  32.6943 -17.2187   C.2       1 RES1   0.0000
    16 O16     -6.1861  32.3903 -17.9204   O.co2     1 RES1   0.0000
    17 O17     -4.7746  31.9670 -16.2938   O.co2     1 RES1  -1.0000
    18 C18     -5.2160  35.2118 -16.9037   C.3       1 RES1   0.0000
@<TRIPOS>BOND
     1     1     2    2
     2     2     3    1
     3     2     4    1
     4     4     5    2
     5     5     6    1
     6     6     7    2
     7     7     8    1
     8     8     9    2
     9     9    10    1
    10    11    10    1
    11    11    12    1
    12    12    13    1
    13    13    14    1
    14    14    15    1
    15    15    16    2
    16    15    17    1
    17    14    18    1
    18     9     4    1
    19    18    11    1
@<TRIPOS>SUBSTRUCTURE
     1 RES1        1 GROUP             0 ****  ****    0  
@<TRIPOS>MOLECULE
ligand_59
    18    19     1     0     0
SMALL
USER_CHARGES
****
Generated from the CSD

@<TRIPOS>ATOM
     1 O1      -1.9687  38.6209 -17.4692   O.co2     1 RES1   0.0000
     2 C2      -2.7801  39.1645 -18.2485   C.2       1 RES1   0.0000
     3 O3      -3.4504  40.1297 -17.8213   O.co2     1 RES1  -1.0000
     4 C4      -2.9806  38.6927 -19.6774   C.2       1 RES1   0.0000
     5 C5      -3.0002  39.6750 -20.6974   C.2       1 RES1   0.0000
     6 C6      -3.1833  39.3305 -22.0477   C.2       1 RES1   0.0000
     7 C7      -3.3489  37.9900 -22.4128   C.2       1 RES1   0.0000
     8 C8      -3.3344  36.9975 -21.4199   C.2       1 RES1   0.0000
     9 C9      -3.1519  37.3212 -20.0484   C.2       1 RES1   0.0000
    10 O10     -3.1373  36.3488 -19.0646   O.3       1 RES1   0.0000
    11 C11     -3.2129  34.9615 -19.3855   C.3       1 RES1   0.0000
    12 C12     -2.3367  34.1234 -18.4784   C.3       1 RES1   0.0000
    13 N13     -3.1651  33.8864 -17.2596   N.2       1 RES1   1.0000
    14 C14     -4.6169  34.0470 -17.6185   C.3       1 RES1   0.0000
    15 C15     -5.3819  32.7317 -17.3951   C.2       1 RES1   0.0000
    16 O16     -6.3226  32.4463 -18.1643   O.co2     1 RES1   0.0000
    17 O17     -5.0323  31.9938 -16.4473   O.co2     1 RES1  -1.0000
    18 C18     -4.6041  34.4526 -19.0896   C.3       1 RES1   0.0000
@<TRIPOS>BOND
     1     1     2    2
     2     2     3    1
     3     2     4    1
     4     4     5    2
     5     5     6    1
     6     6     7    2
     7     7     8    1
     8     8     9    2
     9     9    10    1
    10    11    10    1
    11    11    12    1
    12    12    13    1
    13    13    14    1
    14    14    15    1
    15    15    16    2
    16    15    17    1
    17    14    18    1
    18     9     4    1
    19    18    11    1
@<TRIPOS>SUBSTRUCTURE
     1 RES1        1 GROUP             0 ****  ****    0  
@<TRIPOS>MOLECULE
ligand_60
    18    19     1     0     0
SMALL
USER_CHARGES
****
Generated from the CSD

@<TRIPOS>ATOM
     1 O1      -1.6773  35.6077 -15.4155   O.co2     1 RES1   0.0000
     2 C2      -2.2379  36.5007 -14.7451   C.2       1 RES1   0.0000
     3 O3      -2.5530  36.2397 -13.5636   O.co2     1 RES1  -1.0000
     4 C4      -2.5507  37.8731 -15.3137   C.2       1 RES1   0.0000
     5 C5      -2.1361  39.0036 -14.5684   C.2       1 RES1   0.0000
     6 C6      -2.3856  40.3124 -15.0161   C.2       1 RES1   0.0000
     7 C7      -3.0558  40.5234 -16.2260   C.2       1 RES1   0.0000
     8 C8      -3.4780  39.4188 -16.9829   C.2       1 RES1   0.0000
     9 C9      -3.2382  38.0867 -16.5506   C.2       1 RES1   0.0000
    10 O10     -3.6520  36.9936 -17.2906   O.3       1 RES1   0.0000
    11 C11     -4.9097  36.3649 -17.0534   C.3       1 RES1   0.0000
    12 C12     -5.6707  36.1210 -18.3397   C.3       1 RES1   0.0000
    13 N13     -5.1273  34.8347 -18.8669   N.2       1 RES1   1.0000
    14 C14     -4.5256  34.0570 -17.7288   C.3       1 RES1   0.0000
    15 C15     -5.2605  32.7202 -17.5340   C.2       1 RES1   0.0000
    16 O16     -6.2823  32.4922 -18.2136   O.co2     1 RES1   0.0000
    17 O17     -4.8059  31.9077 -16.6984   O.co2     1 RES1  -1.0000
    18 C18     -4.6814  34.9714 -16.5169   C.3       1 RES1   0.0000
@<TRIPOS>BOND
     1     1     2    2
     2     2     3    1
     3     2     4    1
     4     4     5    2
     5     5     6    1
     6     6     7    2
     7     7     8    1
     8     8     9    2
     9     9    10    1
    10    11    10    1
    11    11    12    1
    12    12    13    1
    13    13    14    1
    14    14    15    1
    15    15    16    2
    16    15    17    1
    17    14    18    1
    18     9     4    1
    19    18    11    1
@<TRIPOS>SUBSTRUCTURE
     1 RES1        1 GROUP             0 ****  ****    0  
@<TRIPOS>MOLECULE
ligand_61
    18    19     1     0     0
SMALL
USER_CHARGES
****
Generated from the CSD

@<TRIPOS>ATOM
     1 O1      -4.0337  37.9458 -11.0424   O.co2     1 RES1   0.0000
     2 C2      -4.2665  37.5445 -12.2026   C.2       1 RES1   0.0000
     3 O3      -3.3195  37.0585 -12.8586   O.co2     1 RES1  -1.0000
     4 C4      -5.6434  37.6326 -12.8358   C.2       1 RES1   0.0000
     5 C5      -6.6885  38.1929 -12.0614   C.2       1 RES1   0.0000
     6 C6      -7.9954  38.3116 -12.5648   C.2       1 RES1   0.0000
     7 C7      -8.2898  37.8739 -13.8606   C.2       1 RES1   0.0000
     8 C8      -7.2712  37.3138 -14.6480   C.2       1 RES1   0.0000
     9 C9      -5.9428  37.1824 -14.1608   C.2       1 RES1   0.0000
    10 O10     -4.9344  36.6308 -14.9304   O.3       1 RES1   0.0000
    11 C11     -5.2068  35.6377 -15.9168   C.3       1 RES1   0.0000
    12 C12     -5.5097  36.1571 -17.3007   C.3       1 RES1   0.0000
    13 N13     -5.3987  34.9950 -18.1918   N.2       1 RES1   1.0000
    14 C14     -4.4670  34.0170 -17.5240   C.3       1 RES1   0.0000
    15 C15     -5.1910  32.6880 -17.2510   C.2       1 RES1   0.0000
    16 O16     -6.1810  32.3890 -17.9500   O.co2     1 RES1   0.0000
    17 O17     -4.7600  31.9530 -16.3350   O.co2     1 RES1  -1.0000
    18 C18     -4.0098  34.7352 -16.2489   C.3       1 RES1   0.0000
@<TRIPOS>BOND
     1     1     2    2
     2     2     3    1
     3     2     4    1
     4     4     5    2
     5     5     6    1
     6     6     7    2
     7     7     8    1
     8     8     9    2
     9     9    10    1
    10    11    10    1
    11    11    12    1
    12    12    13    1
    13    13    14    1
    14    14    15    1
    15    15    16    2
    16    15    17    1
    17    14    18    1
    18     9     4    1
    19    18    11    1
@<TRIPOS>SUBSTRUCTURE
     1 RES1        1 GROUP             0 ****  ****    0  
@<TRIPOS>MOLECULE
ligand_62
    18    19     1     0     0
SMALL
USER_CHARGES
****
Generated from the CSD

@<TRIPOS>ATOM
     1 O1      -2.1385  38.1546 -16.7063   O.co2     1 RES1   0.0000
     2 C2      -1.4853  38.2999 -17.7616   C.2       1 RES1   0.0000
     3 O3      -0.2376  38.2562 -17.6925   O.co2     1 RES1  -1.0000
     4 C4      -2.1493  38.5313 -19.1069   C.2       1 RES1   0.0000
     5 C5      -1.6416  39.5739 -19.9200   C.2       1 RES1   0.0000
     6 C6      -2.1959  39.8618 -21.1791   C.2       1 RES1   0.0000
     7 C7      -3.2736  39.1097 -21.6590   C.2       1 RES1   0.0000
     8 C8      -3.7957  38.0714 -20.8713   C.2       1 RES1   0.0000
     9 C9      -3.2530  37.7621 -19.5951   C.2       1 RES1   0.0000
    10 O10     -3.7627  36.7411 -18.8131   O.3       1 RES1   0.0000
    11 C11     -4.3364  35.5719 -19.3936   C.3       1 RES1   0.0000
    12 C12     -3.3006  34.4933 -19.6322   C.3       1 RES1   0.0000
    13 N13     -3.1792  33.7843 -18.3243   N.2       1 RES1   1.0000
    14 C14     -4.4378  34.0062 -17.5312   C.3       1 RES1   0.0000
    15 C15     -5.1515  32.6718 -17.2575   C.2       1 RES1   0.0000
    16 O16     -6.1436  32.3681 -17.9514   O.co2     1 RES1   0.0000
    17 O17     -4.7103  31.9373 -16.3460   O.co2     1 RES1  -1.0000
    18 C18     -5.2811  34.9315 -18.4039   C.3       1 RES1   0.0000
@<TRIPOS>BOND
     1     1     2    2
     2     2     3    1
     3     2     4    1
     4     4     5    2
     5     5     6    1
     6     6     7    2
     7     7     8    1
     8     8     9    2
     9     9    10    1
    10    11    10    1
    11    11    12    1
    12    12    13    1
    13    13    14    1
    14    14    15    1
    15    15    16    2
    16    15    17    1
    17    14    18    1
    18     9     4    1
    19    18    11    1
@<TRIPOS>SUBSTRUCTURE
     1 RES1        1 GROUP             0 ****  ****    0  
@<TRIPOS>MOLECULE
ligand_63
    18    19     1     0     0
SMALL
USER_CHARGES
****
Generated from the CSD

@<TRIPOS>ATOM
     1 O1      -4.9675  39.0788 -17.3438   O.co2     1 RES1   0.0000
     2 C2      -3.8617  39.4949 -17.7505   C.2       1 RES1   0.0000
     3 O3      -3.2138  40.2656 -17.0092   O.co2     1 RES1  -1.0000
     4 C4      -3.2896  39.1049 -19.1015   C.2       1 RES1   0.0000
     5 C5      -2.7652  40.1377 -19.9163   C.2       1 RES1   0.0000
     6 C6      -2.2183  39.8699 -21.1831   C.2       1 RES1   0.0000
     7 C7      -2.1797  38.5576 -21.6667   C.2       1 RES1   0.0000
     8 C8      -2.6944  37.5161 -20.8783   C.2       1 RES1   0.0000
     9 C9      -3.2530  37.7621 -19.5951   C.2       1 RES1   0.0000
    10 O10     -3.7627  36.7411 -18.8131   O.3       1 RES1   0.0000
    11 C11     -4.3364  35.5719 -19.3936   C.3       1 RES1   0.0000
    12 C12     -3.3040  34.4864 -19.6149   C.3       1 RES1   0.0000
    13 N13     -3.2010  33.7838 -18.3019   N.2       1 RES1   1.0000
    14 C14     -4.4670  34.0170 -17.5240   C.3       1 RES1   0.0000
    15 C15     -5.1910  32.6880 -17.2510   C.2       1 RES1   0.0000
    16 O16     -6.1766  32.3856 -17.9547   O.co2     1 RES1   0.0000
    17 O17     -4.7644  31.9564 -16.3302   O.co2     1 RES1  -1.0000
    18 C18     -5.2955  34.9421 -18.4110   C.3       1 RES1   0.0000
@<TRIPOS>BOND
     1     1     2    2
     2     2     3    1
     3     2     4    1
     4     4     5    2
     5     5     6    1
     6     6     7    2
     7     7     8    1
     8     8     9    2
     9     9    10    1
    10    11    10    1
    11    11    12    1
    12    12    13    1
    13    13    14    1
    14    14    15    1
    15    15    16    2
    16    15    17    1
    17    14    18    1
    18     9     4    1
    19    18    11    1
@<TRIPOS>SUBSTRUCTURE
     1 RES1        1 GROUP             0 ****  ****    0  
@<TRIPOS>MOLECULE
ligand_64
    18    19     1     0     0
SMALL
USER_CHARGES
****
Generated from the CSD

@<TRIPOS>ATOM
     1 O1      -5.1663  39.0977 -18.1161   O.co2     1 RES1   0.0000
     2 C2      -6.3604  38.8878 -18.4182   C.2       1 RES1   0.0000
     3 O3      -6.6680  38.8777 -19.6301   O.co2     1 RES1  -1.0000
     4 C4      -7.4374  38.6540 -17.3743   C.2       1 RES1   0.0000
     5 C5      -8.6462  39.3807 -17.5027   C.2       1 RES1   0.0000
     6 C6      -9.6968  39.2305 -16.5811   C.2       1 RES1   0.0000
     7 C7      -9.5650  38.3446 -15.5063   C.2       1 RES1   0.0000
     8 C8      -8.3758  37.6134 -15.3564   C.2       1 RES1   0.0000
     9 C9      -7.2997  37.7488 -16.2744   C.2       1 RES1   0.0000
    10 O10     -6.1249  37.0324 -16.1327   O.3       1 RES1   0.0000
    11 C11     -5.8976  35.8221 -16.8515   C.3       1 RES1   0.0000
    12 C12     -5.5497  35.9842 -18.3107   C.3       1 RES1   0.0000
    13 N13     -5.0206  34.6824 -18.7377   N.2       1 RES1   1.0000
    14 C14     -4.4732  34.0060 -17.5075   C.3       1 RES1   0.0000
    15 C15     -5.2132  32.6829 -17.2494   C.2       1 RES1   0.0000
    16 O16     -6.1951  32.3948 -17.9642   O.co2     1 RES1   0.0000
    17 O17     -4.8027  31.9415 -16.3291   O.co2     1 RES1  -1.0000
    18 C18     -4.6612  35.0378 -16.3891   C.3       1 RES1   0.0000
@<TRIPOS>BOND
     1     1     2    2
     2     2     3    1
     3     2     4    1
     4     4     5    2
     5     5     6    1
     6     6     7    2
     7     7     8    1
     8     8     9    2
     9     9    10    1
    10    11    10    1
    11    11    12    1
    12    12    13    1
    13    13    14    1
    14    14    15    1
    15    15    16    2
    16    15    17    1
    17    14    18    1
    18     9     4    1
    19    18    11    1
@<TRIPOS>SUBSTRUCTURE
     1 RES1        1 GROUP             0 ****  ****    0  
@<TRIPOS>MOLECULE
ligand_65
    18    19     1     0     0
SMALL
USER_CHARGES
****
Generated from the CSD

@<TRIPOS>ATOM
     1 O1      -5.2844  39.3751 -16.4080   O.co2     1 RES1   0.0000
     2 C2      -4.7870  38.9164 -15.3576   C.2       1 RES1   0.0000
     3 O3      -5.4850  38.9309 -14.3203   O.co2     1 RES1  -1.0000
     4 C4      -3.3777  38.3551 -15.2993   C.2       1 RES1   0.0000
     5 C5      -2.5417  38.7860 -14.2404   C.2       1 RES1   0.0000
     6 C6      -1.2217  38.3214 -14.1091   C.2       1 RES1   0.0000
     7 C7      -0.7043  37.4092 -15.0352   C.2       1 RES1   0.0000
     8 C8      -1.5129  36.9676 -16.0946   C.2       1 RES1   0.0000
     9 C9      -2.8498  37.4235 -16.2488   C.2       1 RES1   0.0000
    10 O10     -3.6520  36.9936 -17.2906   O.3       1 RES1   0.0000
    11 C11     -4.9097  36.3649 -17.0534   C.3       1 RES1   0.0000
    12 C12     -5.6077  35.9931 -18.3448   C.3       1 RES1   0.0000
    13 N13     -5.0218  34.6754 -18.7299   N.2       1 RES1   1.0000
    14 C14     -4.4610  34.0137 -17.5011   C.3       1 RES1   0.0000
    15 C15     -5.1840  32.6859 -17.2195   C.2       1 RES1   0.0000
    16 O16     -6.1704  32.3790 -17.9202   O.co2     1 RES1   0.0000
    17 O17     -4.7559  31.9598 -16.2951   O.co2     1 RES1  -1.0000
    18 C18     -4.6853  35.0293 -16.3844   C.3       1 RES1   0.0000
@<TRIPOS>BOND
     1     1     2    2
     2     2     3    1
     3     2     4    1
     4     4     5    2
     5     5     6    1
     6     6     7    2
     7     7     8    1
     8     8     9    2
     9     9    10    1
    10    11    10    1
    11    11    12    1
    12    12    13    1
    13    13    14    1
    14    14    15    1
    15    15    16    2
    16    15    17    1
    17    14    18    1
    18     9     4    1
    19    18    11    1
@<TRIPOS>SUBSTRUCTURE
     1 RES1        1 GROUP             0 ****  ****    0  
@<TRIPOS>MOLECULE
ligand_66
    18    19     1     0     0
SMALL
USER_CHARGES
****
Generated from the CSD

@<TRIPOS>ATOM
     1 O1      -4.8835  40.9316 -17.0875   O.co2     1 RES1   0.0000
     2 C2      -5.2178  39.7636 -16.7956   C.2       1 RES1   0.0000
     3 O3      -4.3236  38.9686 -16.4326   O.co2     1 RES1  -1.0000
     4 C4      -6.6557  39.2828 -16.8728   C.2       1 RES1   0.0000
     5 C5      -7.6381  40.2127 -17.2921   C.2       1 RES1   0.0000
     6 C6      -8.9943  39.8567 -17.3901   C.2       1 RES1   0.0000
     7 C7      -9.4023  38.5566 -17.0727   C.2       1 RES1   0.0000
     8 C8      -8.4475  37.6165 -16.6535   C.2       1 RES1   0.0000
     9 C9      -7.0712  37.9530 -16.5458   C.2       1 RES1   0.0000
    10 O10     -6.1249  37.0324 -16.1327   O.3       1 RES1   0.0000
    11 C11     -5.8976  35.8221 -16.8515   C.3       1 RES1   0.0000
    12 C12     -5.5733  35.9831 -18.3163   C.3       1 RES1   0.0000
    13 N13     -5.0390  34.6849 -18.7476   N.2       1 RES1   1.0000
    14 C14     -4.4670  34.0170 -17.5240   C.3       1 RES1   0.0000
    15 C15     -5.1910  32.6880 -17.2510   C.2       1 RES1   0.0000
    16 O16     -6.1810  32.3890 -17.9500   O.co2     1 RES1   0.0000
    17 O17     -4.7600  31.9530 -16.3350   O.co2     1 RES1  -1.0000
    18 C18     -4.6473  35.0503 -16.4058   C.3       1 RES1   0.0000
@<TRIPOS>BOND
     1     1     2    2
     2     2     3    1
     3     2     4    1
     4     4     5    2
     5     5     6    1
     6     6     7    2
     7     7     8    1
     8     8     9    2
     9     9    10    1
    10    11    10    1
    11    11    12    1
    12    12    13    1
    13    13    14    1
    14    14    15    1
    15    15    16    2
    16    15    17    1
    17    14    18    1
    18     9     4    1
    19    18    11    1
@<TRIPOS>SUBSTRUCTURE
     1 RES1        1 GROUP             0 ****  ****    0  
@<TRIPOS>MOLECULE
ligand_67
    18    19     1     0     0
SMALL
USER_CHARGES
****
Generated from the CSD

@<TRIPOS>ATOM
     1 O1      -2.7281  37.3364 -16.0472   O.co2     1 RES1   0.0000
     2 C2      -2.9663  38.4573 -16.5454   C.2       1 RES1   0.0000
     3 O3      -2.1887  39.3986 -16.2758   O.co2     1 RES1  -1.0000
     4 C4      -4.1580  38.7114 -17.4507   C.2       1 RES1   0.0000
     5 C5      -4.9503  39.8557 -17.1890   C.2       1 RES1   0.0000
     6 C6      -6.0740  40.1681 -17.9733   C.2       1 RES1   0.0000
     7 C7      -6.4328  39.3423 -19.0442   C.2       1 RES1   0.0000
     8 C8      -5.6640  38.2012 -19.3235   C.2       1 RES1   0.0000
     9 C9      -4.5244  37.8642 -18.5445   C.2       1 RES1   0.0000
    10 O10     -3.7627  36.7411 -18.8131   O.3       1 RES1   0.0000
    11 C11     -4.3364  35.5719 -19.3936   C.3       1 RES1   0.0000
    12 C12     -3.3040  34.4864 -19.6149   C.3       1 RES1   0.0000
    13 N13     -3.2010  33.7838 -18.3019   N.2       1 RES1   1.0000
    14 C14     -4.4670  34.0170 -17.5240   C.3       1 RES1   0.0000
    15 C15     -5.1910  32.6880 -17.2510   C.2       1 RES1   0.0000
    16 O16     -6.1766  32.3856 -17.9547   O.co2     1 RES1   0.0000
    17 O17     -4.7644  31.9564 -16.3302   O.co2     1 RES1  -1.0000
    18 C18     -5.2955  34.9421 -18.4110   C.3       1 RES1   0.0000
@<TRIPOS>BOND
     1     1     2    2
     2     2     3    1
     3     2     4    1
     4     4     5    2
     5     5     6    1
     6     6     7    2
     7     7     8    1
     8     8     9    2
     9     9    10    1
    10    11    10    1
    11    11    12    1
    12    12    13    1
    13    13    14    1
    14    14    15    1
    15    15    16    2
    16    15    17    1
    17    14    18    1
    18     9     4    1
    19    18    11    1
@<TRIPOS>SUBSTRUCTURE
     1 RES1        1 GROUP             0 ****  ****    0  
@<TRIPOS>MOLECULE
ligand_68
    18    19     1     0     0
SMALL
USER_CHARGES
****
Generated from the CSD

@<TRIPOS>ATOM
     1 O1      -3.7664  39.3053 -17.5578   O.co2     1 RES1   0.0000
     2 C2      -2.7717  38.6277 -17.2222   C.2       1 RES1   0.0000
     3 O3      -2.6312  38.3477 -16.0117   O.co2     1 RES1  -1.0000
     4 C4      -1.7375  38.1451 -18.2233   C.2       1 RES1   0.0000
     5 C5      -0.5047  38.8396 -18.2814   C.2       1 RES1   0.0000
     6 C6       0.5096  38.4650 -19.1795   C.2       1 RES1   0.0000
     7 C7       0.3162  37.3810 -20.0426   C.2       1 RES1   0.0000
     8 C8      -0.8979  36.6769 -20.0050   C.2       1 RES1   0.0000
     9 C9      -1.9382  37.0372 -19.1067   C.2       1 RES1   0.0000
    10 O10     -3.1373  36.3488 -19.0646   O.3       1 RES1   0.0000
    11 C11     -3.2129  34.9615 -19.3855   C.3       1 RES1   0.0000
    12 C12     -2.2688  34.1337 -18.5391   C.3       1 RES1   0.0000
    13 N13     -3.0146  33.8809 -17.2711   N.2       1 RES1   1.0000
    14 C14     -4.4884  34.0211 -17.5365   C.3       1 RES1   0.0000
    15 C15     -5.2184  32.6940 -17.2703   C.2       1 RES1   0.0000
    16 O16     -6.2018  32.3969 -17.9793   O.co2     1 RES1   0.0000
    17 O17     -4.7986  31.9585 -16.3495   O.co2     1 RES1  -1.0000
    18 C18     -4.5749  34.4312 -19.0039   C.3       1 RES1   0.0000
@<TRIPOS>BOND
     1     1     2    2
     2     2     3    1
     3     2     4    1
     4     4     5    2
     5     5     6    1
     6     6     7    2
     7     7     8    1
     8     8     9    2
     9     9    10    1
    10    11    10    1
    11    11    12    1
    12    12    13    1
    13    13    14    1
    14    14    15    1
    15    15    16    2
    16    15    17    1
    17    14    18    1
    18     9     4    1
    19    18    11    1
@<TRIPOS>SUBSTRUCTURE
     1 RES1        1 GROUP             0 ****  ****    0  
@<TRIPOS>MOLECULE
ligand_69
    18    19     1     0     0
SMALL
USER_CHARGES
****
Generated from the CSD

@<TRIPOS>ATOM
     1 O1      -3.6595  37.1573 -14.4045   O.co2     1 RES1   0.0000
     2 C2      -4.4706  36.4653 -13.7528   C.2       1 RES1   0.0000
     3 O3      -4.0272  35.4909 -13.1068   O.co2     1 RES1  -1.0000
     4 C4      -5.9591  36.7619 -13.7257   C.2       1 RES1   0.0000
     5 C5      -6.6059  36.7655 -12.4658   C.2       1 RES1   0.0000
     6 C6      -7.9816  37.0269 -12.3453   C.2       1 RES1   0.0000
     7 C7      -8.7466  37.2948 -13.4857   C.2       1 RES1   0.0000
     8 C8      -8.1289  37.2960 -14.7465   C.2       1 RES1   0.0000
     9 C9      -6.7402  37.0338 -14.8937   C.2       1 RES1   0.0000
    10 O10     -6.1249  37.0324 -16.1327   O.3       1 RES1   0.0000
    11 C11     -5.8976  35.8221 -16.8515   C.3       1 RES1   0.0000
    12 C12     -5.5969  35.9817 -18.3215   C.3       1 RES1   0.0000
    13 N13     -5.0575  34.6871 -18.7572   N.2       1 RES1   1.0000
    14 C14     -4.4611  34.0279 -17.5405   C.3       1 RES1   0.0000
    15 C15     -5.1690  32.6933 -17.2530   C.2       1 RES1   0.0000
    16 O16     -6.1667  32.3834 -17.9361   O.co2     1 RES1   0.0000
    17 O17     -4.7177  31.9648 -16.3415   O.co2     1 RES1  -1.0000
    18 C18     -4.6338  35.0628 -16.4225   C.3       1 RES1   0.0000
@<TRIPOS>BOND
     1     1     2    2
     2     2     3    1
     3     2     4    1
     4     4     5    2
     5     5     6    1
     6     6     7    2
     7     7     8    1
     8     8     9    2
     9     9    10    1
    10    11    10    1
    11    11    12    1
    12    12    13    1
    13    13    14    1
    14    14    15    1
    15    15    16    2
    16    15    17    1
    17    14    18    1
    18     9     4    1
    19    18    11    1
@<TRIPOS>SUBSTRUCTURE
     1 RES1        1 GROUP             0 ****  ****    0  
@<TRIPOS>MOLECULE
ligand_70
    18    19     1     0     0
SMALL
USER_CHARGES
****
Generated from the CSD

@<TRIPOS>ATOM
     1 O1      -5.2301  39.3771 -14.4665   O.co2     1 RES1   0.0000
     2 C2      -5.6545  39.8843 -15.5267   C.2       1 RES1   0.0000
     3 O3      -5.0533  40.8804 -15.9847   O.co2     1 RES1  -1.0000
     4 C4      -6.8651  39.3408 -16.2639   C.2       1 RES1   0.0000
     5 C5      -7.8451  40.2690 -16.6925   C.2       1 RES1   0.0000
     6 C6      -8.9998  39.8559 -17.3792   C.2       1 RES1   0.0000
     7 C7      -9.2022  38.4998 -17.6576   C.2       1 RES1   0.0000
     8 C8      -8.2457  37.5597 -17.2421   C.2       1 RES1   0.0000
     9 C9      -7.0712  37.9530 -16.5458   C.2       1 RES1   0.0000
    10 O10     -6.1249  37.0324 -16.1327   O.3       1 RES1   0.0000
    11 C11     -5.8976  35.8221 -16.8515   C.3       1 RES1   0.0000
    12 C12     -5.5733  35.9831 -18.3163   C.3       1 RES1   0.0000
    13 N13     -5.0390  34.6849 -18.7476   N.2       1 RES1   1.0000
    14 C14     -4.4670  34.0170 -17.5240   C.3       1 RES1   0.0000
    15 C15     -5.1910  32.6880 -17.2510   C.2       1 RES1   0.0000
    16 O16     -6.1810  32.3890 -17.9500   O.co2     1 RES1   0.0000
    17 O17     -4.7600  31.9530 -16.3350   O.co2     1 RES1  -1.0000
    18 C18     -4.6473  35.0503 -16.4058   C.3       1 RES1   0.0000
@<TRIPOS>BOND
     1     1     2    2
     2     2     3    1
     3     2     4    1
     4     4     5    2
     5     5     6    1
     6     6     7    2
     7     7     8    1
     8     8     9    2
     9     9    10    1
    10    11    10    1
    11    11    12    1
    12    12    13    1
    13    13    14    1
    14    14    15    1
    15    15    16    2
    16    15    17    1
    17    14    18    1
    18     9     4    1
    19    18    11    1
@<TRIPOS>SUBSTRUCTURE
     1 RES1        1 GROUP             0 ****  ****    0  
@<TRIPOS>MOLECULE
ligand_71
    18    19     1     0     0
SMALL
USER_CHARGES
****
Generated from the CSD

@<TRIPOS>ATOM
     1 O1      -4.4867  39.5391 -15.8067   O.co2     1 RES1   0.0000
     2 C2      -5.6545  39.8843 -15.5267   C.2       1 RES1   0.0000
     3 O3      -5.8191  40.7054 -14.5982   O.co2     1 RES1  -1.0000
     4 C4      -6.8651  39.3408 -16.2639   C.2       1 RES1   0.0000
     5 C5      -7.8451  40.2690 -16.6925   C.2       1 RES1   0.0000
     6 C6      -8.9998  39.8559 -17.3792   C.2       1 RES1   0.0000
     7 C7      -9.2022  38.4998 -17.6576   C.2       1 RES1   0.0000
     8 C8      -8.2457  37.5597 -17.2421   C.2       1 RES1   0.0000
     9 C9      -7.0712  37.9530 -16.5458   C.2       1 RES1   0.0000
    10 O10     -6.1249  37.0324 -16.1327   O.3       1 RES1   0.0000
    11 C11     -5.8976  35.8221 -16.8515   C.3       1 RES1   0.0000
    12 C12     -5.5733  35.9831 -18.3163   C.3       1 RES1   0.0000
    13 N13     -5.0390  34.6849 -18.7476   N.2       1 RES1   1.0000
    14 C14     -4.4670  34.0170 -17.5240   C.3       1 RES1   0.0000
    15 C15     -5.1910  32.6880 -17.2510   C.2       1 RES1   0.0000
    16 O16     -6.1810  32.3890 -17.9500   O.co2     1 RES1   0.0000
    17 O17     -4.7600  31.9530 -16.3350   O.co2     1 RES1  -1.0000
    18 C18     -4.6473  35.0503 -16.4058   C.3       1 RES1   0.0000
@<TRIPOS>BOND
     1     1     2    2
     2     2     3    1
     3     2     4    1
     4     4     5    2
     5     5     6    1
     6     6     7    2
     7     7     8    1
     8     8     9    2
     9     9    10    1
    10    11    10    1
    11    11    12    1
    12    12    13    1
    13    13    14    1
    14    14    15    1
    15    15    16    2
    16    15    17    1
    17    14    18    1
    18     9     4    1
    19    18    11    1
@<TRIPOS>SUBSTRUCTURE
     1 RES1        1 GROUP             0 ****  ****    0  
@<TRIPOS>MOLECULE
ligand_72
    18    19     1     0     0
SMALL
USER_CHARGES
****
Generated from the CSD

@<TRIPOS>ATOM
     1 O1      -5.6195  40.1682 -14.9844   O.co2     1 RES1   0.0000
     2 C2      -6.3507  39.9730 -15.9786   C.2       1 RES1   0.0000
     3 O3      -6.1000  40.6061 -17.0273   O.co2     1 RES1  -1.0000
     4 C4      -7.5231  39.0089 -15.9527   C.2       1 RES1   0.0000
     5 C5      -8.8238  39.5585 -15.8445   C.2       1 RES1   0.0000
     6 C6      -9.9674  38.7419 -15.8100   C.2       1 RES1   0.0000
     7 C7      -9.8379  37.3509 -15.8861   C.2       1 RES1   0.0000
     8 C8      -8.5589  36.7817 -15.9928   C.2       1 RES1   0.0000
     9 C9      -7.3883  37.5862 -16.0286   C.2       1 RES1   0.0000
    10 O10     -6.1249  37.0324 -16.1327   O.3       1 RES1   0.0000
    11 C11     -5.8976  35.8221 -16.8515   C.3       1 RES1   0.0000
    12 C12     -5.5973  35.9817 -18.3215   C.3       1 RES1   0.0000
    13 N13     -5.0578  34.6871 -18.7574   N.2       1 RES1   1.0000
    14 C14     -4.4610  34.0281 -17.5408   C.3       1 RES1   0.0000
    15 C15     -5.1686  32.6934 -17.2530   C.2       1 RES1   0.0000
    16 O16     -6.1664  32.3833 -17.9359   O.co2     1 RES1   0.0000
    17 O17     -4.7169  31.9651 -16.3417   O.co2     1 RES1  -1.0000
    18 C18     -4.6336  35.0630 -16.4229   C.3       1 RES1   0.0000
@<TRIPOS>BOND
     1     1     2    2
     2     2     3    1
     3     2     4    1
     4     4     5    2
     5     5     6    1
     6     6     7    2
     7     7     8    1
     8     8     9    2
     9     9    10    1
    10    11    10    1
    11    11    12    1
    12    12    13    1
    13    13    14    1
    14    14    15    1
    15    15    16    2
    16    15    17    1
    17    14    18    1
    18     9     4    1
    19    18    11    1
@<TRIPOS>SUBSTRUCTURE
     1 RES1        1 GROUP             0 ****  ****    0  
@<TRIPOS>MOLECULE
ligand_73
    18    19     1     0     0
SMALL
USER_CHARGES
****
Generated from the CSD

@<TRIPOS>ATOM
     1 O1      -5.8412  39.4333 -13.7746   O.co2     1 RES1   0.0000
     2 C2      -6.7672  38.5968 -13.7115   C.2       1 RES1   0.0000
     3 O3      -6.8978  37.9417 -12.6546   O.co2     1 RES1  -1.0000
     4 C4      -7.7229  38.3487 -14.8646   C.2       1 RES1   0.0000
     5 C5      -9.0214  38.9066 -14.7740   C.2       1 RES1   0.0000
     6 C6      -9.9730  38.7259 -15.7925   C.2       1 RES1   0.0000
     7 C7      -9.6472  37.9825 -16.9321   C.2       1 RES1   0.0000
     8 C8      -8.3666  37.4181 -17.0452   C.2       1 RES1   0.0000
     9 C9      -7.3883  37.5862 -16.0286   C.2       1 RES1   0.0000
    10 O10     -6.1249  37.0324 -16.1327   O.3       1 RES1   0.0000
    11 C11     -5.8976  35.8221 -16.8515   C.3       1 RES1   0.0000
    12 C12     -5.5733  35.9831 -18.3163   C.3       1 RES1   0.0000
    13 N13     -5.0390  34.6849 -18.7476   N.2       1 RES1   1.0000
    14 C14     -4.4670  34.0170 -17.5240   C.3       1 RES1   0.0000
    15 C15     -5.1910  32.6880 -17.2510   C.2       1 RES1   0.0000
    16 O16     -6.1810  32.3890 -17.9500   O.co2     1 RES1   0.0000
    17 O17     -4.7600  31.9530 -16.3350   O.co2     1 RES1  -1.0000
    18 C18     -4.6473  35.0503 -16.4058   C.3       1 RES1   0.0000
@<TRIPOS>BOND
     1     1     2    2
     2     2     3    1
     3     2     4    1
     4     4     5    2
     5     5     6    1
     6     6     7    2
     7     7     8    1
     8     8     9    2
     9     9    10    1
    10    11    10    1
    11    11    12    1
    12    12    13    1
    13    13    14    1
    14    14    15    1
    15    15    16    2
    16    15    17    1
    17    14    18    1
    18     9     4    1
    19    18    11    1
@<TRIPOS>SUBSTRUCTURE
     1 RES1        1 GROUP             0 ****  ****    0  
@<TRIPOS>MOLECULE
ligand_74
    18    19     1     0     0
SMALL
USER_CHARGES
****
Generated from the CSD

@<TRIPOS>ATOM
     1 O1      -8.5738  34.9072 -15.1825   O.co2     1 RES1   0.0000
     2 C2      -8.5284  36.0652 -14.7151   C.2       1 RES1   0.0000
     3 O3      -8.5308  36.1987 -13.4719   O.co2     1 RES1  -1.0000
     4 C4      -8.4777  37.2998 -15.5969   C.2       1 RES1   0.0000
     5 C5      -9.6720  38.0443 -15.7550   C.2       1 RES1   0.0000
     6 C6      -9.7191  39.1991 -16.5548   C.2       1 RES1   0.0000
     7 C7      -8.5682  39.6409 -17.2164   C.2       1 RES1   0.0000
     8 C8      -7.3719  38.9194 -17.0765   C.2       1 RES1   0.0000
     9 C9      -7.2997  37.7488 -16.2744   C.2       1 RES1   0.0000
    10 O10     -6.1249  37.0324 -16.1327   O.3       1 RES1   0.0000
    11 C11     -5.8976  35.8221 -16.8515   C.3       1 RES1   0.0000
    12 C12     -5.5724  35.9831 -18.3161   C.3       1 RES1   0.0000
    13 N13     -5.0383  34.6848 -18.7473   N.2       1 RES1   1.0000
    14 C14     -4.4672  34.0166 -17.5234   C.3       1 RES1   0.0000
    15 C15     -5.1918  32.6878 -17.2509   C.2       1 RES1   0.0000
    16 O16     -6.1815  32.3892 -17.9505   O.co2     1 RES1   0.0000
    17 O17     -4.7615  31.9526 -16.3348   O.co2     1 RES1  -1.0000
    18 C18     -4.6478  35.0499 -16.4052   C.3       1 RES1   0.0000
@<TRIPOS>BOND
     1     1     2    2
     2     2     3    1
     3     2     4    1
     4     4     5    2
     5     5     6    1
     6     6     7    2
     7     7     8    1
     8     8     9    2
     9     9    10    1
    10    11    10    1
    11    11    12    1
    12    12    13    1
    13    13    14    1
    14    14    15    1
    15    15    16    2
    16    15    17    1
    17    14    18    1
    18     9     4    1
    19    18    11    1
@<TRIPOS>SUBSTRUCTURE
     1 RES1        1 GROUP             0 ****  ****    0  
@<TRIPOS>MOLECULE
ligand_75
    18    19     1     0     0
SMALL
USER_CHARGES
****
Generated from the CSD

@<TRIPOS>ATOM
     1 O1      -1.5555  39.0700 -17.7585   O.co2     1 RES1   0.0000
     2 C2      -2.3898  39.3505 -18.6454   C.2       1 RES1   0.0000
     3 O3      -1.9675  39.8273 -19.7214   O.co2     1 RES1  -1.0000
     4 C4      -3.8815  39.1400 -18.4586   C.2       1 RES1   0.0000
     5 C5      -4.6765  40.2786 -18.1809   C.2       1 RES1   0.0000
     6 C6      -6.0654  40.1780 -17.9901   C.2       1 RES1   0.0000
     7 C7      -6.6961  38.9320 -18.0756   C.2       1 RES1   0.0000
     8 C8      -5.9297  37.7878 -18.3489   C.2       1 RES1   0.0000
     9 C9      -4.5244  37.8642 -18.5445   C.2       1 RES1   0.0000
    10 O10     -3.7627  36.7411 -18.8131   O.3       1 RES1   0.0000
    11 C11     -4.3364  35.5719 -19.3936   C.3       1 RES1   0.0000
    12 C12     -3.2778  34.6194 -19.9087   C.3       1 RES1   0.0000
    13 N13     -2.8658  33.8243 -18.7146   N.2       1 RES1   1.0000
    14 C14     -3.9740  33.8617 -17.6983   C.3       1 RES1   0.0000
    15 C15     -4.5173  32.4477 -17.4328   C.2       1 RES1   0.0000
    16 O16     -5.5898  32.1056 -17.9720   O.co2     1 RES1   0.0000
    17 O17     -3.8625  31.6898 -16.6832   O.co2     1 RES1  -1.0000
    18 C18     -5.0324  34.7681 -18.3205   C.3       1 RES1   0.0000
@<TRIPOS>BOND
     1     1     2    2
     2     2     3    1
     3     2     4    1
     4     4     5    2
     5     5     6    1
     6     6     7    2
     7     7     8    1
     8     8     9    2
     9     9    10    1
    10    11    10    1
    11    11    12    1
    12    12    13    1
    13    13    14    1
    14    14    15    1
    15    15    16    2
    16    15    17    1
    17    14    18    1
    18     9     4    1
    19    18    11    1
@<TRIPOS>SUBSTRUCTURE
     1 RES1        1 GROUP             0 ****  ****    0  
@<TRIPOS>MOLECULE
ligand_76
    18    19     1     0     0
SMALL
USER_CHARGES
****
Generated from the CSD

@<TRIPOS>ATOM
     1 O1      -7.6350  38.6949 -12.4599   O.co2     1 RES1   0.0000
     2 C2      -6.8443  38.1004 -13.2233   C.2       1 RES1   0.0000
     3 O3      -6.8607  38.3998 -14.4372   O.co2     1 RES1  -1.0000
     4 C4      -5.8811  37.0350 -12.7317   C.2       1 RES1   0.0000
     5 C5      -5.8961  36.7220 -11.3506   C.2       1 RES1   0.0000
     6 C6      -5.0374  35.7514 -10.8064   C.2       1 RES1   0.0000
     7 C7      -4.1413  35.0656 -11.6335   C.2       1 RES1   0.0000
     8 C8      -4.1063  35.3586 -13.0061   C.2       1 RES1   0.0000
     9 C9      -4.9638  36.3361 -13.5792   C.2       1 RES1   0.0000
    10 O10     -4.9344  36.6308 -14.9304   O.3       1 RES1   0.0000
    11 C11     -5.2068  35.6377 -15.9168   C.3       1 RES1   0.0000
    12 C12     -5.5097  36.1571 -17.3007   C.3       1 RES1   0.0000
    13 N13     -5.3987  34.9950 -18.1918   N.2       1 RES1   1.0000
    14 C14     -4.4670  34.0170 -17.5240   C.3       1 RES1   0.0000
    15 C15     -5.1910  32.6880 -17.2510   C.2       1 RES1   0.0000
    16 O16     -6.1810  32.3890 -17.9500   O.co2     1 RES1   0.0000
    17 O17     -4.7600  31.9530 -16.3350   O.co2     1 RES1  -1.0000
    18 C18     -4.0098  34.7352 -16.2489   C.3       1 RES1   0.0000
@<TRIPOS>BOND
     1     1     2    2
     2     2     3    1
     3     2     4    1
     4     4     5    2
     5     5     6    1
     6     6     7    2
     7     7     8    1
     8     8     9    2
     9     9    10    1
    10    11    10    1
    11    11    12    1
    12    12    13    1
    13    13    14    1
    14    14    15    1
    15    15    16    2
    16    15    17    1
    17    14    18    1
    18     9     4    1
    19    18    11    1
@<TRIPOS>SUBSTRUCTURE
     1 RES1        1 GROUP             0 ****  ****    0  
@<TRIPOS>MOLECULE
ligand_77
    18    19     1     0     0
SMALL
USER_CHARGES
****
Generated from the CSD

@<TRIPOS>ATOM
     1 O1      -1.4814  38.4977 -19.6989   O.co2     1 RES1   0.0000
     2 C2      -2.4975  39.0143 -20.2109   C.2       1 RES1   0.0000
     3 O3      -2.3949  39.5048 -21.3564   O.co2     1 RES1  -1.0000
     4 C4      -3.8340  39.0706 -19.4933   C.2       1 RES1   0.0000
     5 C5      -4.5273  40.3055 -19.4908   C.2       1 RES1   0.0000
     6 C6      -5.7693  40.4511 -18.8490   C.2       1 RES1   0.0000
     7 C7      -6.3518  39.3606 -18.1940   C.2       1 RES1   0.0000
     8 C8      -5.6837  38.1258 -18.1813   C.2       1 RES1   0.0000
     9 C9      -4.4272  37.9544 -18.8222   C.2       1 RES1   0.0000
    10 O10     -3.7627  36.7411 -18.8131   O.3       1 RES1   0.0000
    11 C11     -4.3364  35.5719 -19.3936   C.3       1 RES1   0.0000
    12 C12     -3.2795  34.5674 -19.8023   C.3       1 RES1   0.0000
    13 N13     -2.9786  33.8014 -18.5570   N.2       1 RES1   1.0000
    14 C14     -4.1518  33.9111 -17.6222   C.3       1 RES1   0.0000
    15 C15     -4.7619  32.5261 -17.3490   C.2       1 RES1   0.0000
    16 O16     -5.8062  32.2009 -17.9504   O.co2     1 RES1   0.0000
    17 O17     -4.1873  31.7738 -16.5311   O.co2     1 RES1  -1.0000
    18 C18     -5.1323  34.8297 -18.3459   C.3       1 RES1   0.0000
@<TRIPOS>BOND
     1     1     2    2
     2     2     3    1
     3     2     4    1
     4     4     5    2
     5     5     6    1
     6     6     7    2
     7     7     8    1
     8     8     9    2
     9     9    10    1
    10    11    10    1
    11    11    12    1
    12    12    13    1
    13    13    14    1
    14    14    15    1
    15    15    16    2
    16    15    17    1
    17    14    18    1
    18     9     4    1
    19    18    11    1
@<TRIPOS>SUBSTRUCTURE
     1 RES1        1 GROUP             0 ****  ****    0  
@<TRIPOS>MOLECULE
ligand_78
    18    19     1     0     0
SMALL
USER_CHARGES
****
Generated from the CSD

@<TRIPOS>ATOM
     1 O1      -2.1981  38.0950 -21.0023   O.co2     1 RES1   0.0000
     2 C2      -2.4974  39.0143 -20.2108   C.2       1 RES1   0.0000
     3 O3      -1.6530  39.9135 -20.0064   O.co2     1 RES1  -1.0000
     4 C4      -3.8340  39.0706 -19.4933   C.2       1 RES1   0.0000
     5 C5      -4.5273  40.3055 -19.4907   C.2       1 RES1   0.0000
     6 C6      -5.7693  40.4511 -18.8490   C.2       1 RES1   0.0000
     7 C7      -6.3518  39.3606 -18.1940   C.2       1 RES1   0.0000
     8 C8      -5.6838  38.1258 -18.1814   C.2       1 RES1   0.0000
     9 C9      -4.4272  37.9544 -18.8222   C.2       1 RES1   0.0000
    10 O10     -3.7627  36.7411 -18.8131   O.3       1 RES1   0.0000
    11 C11     -4.3364  35.5719 -19.3936   C.3       1 RES1   0.0000
    12 C12     -3.2795  34.5674 -19.8024   C.3       1 RES1   0.0000
    13 N13     -2.9786  33.8014 -18.5571   N.2       1 RES1   1.0000
    14 C14     -4.1517  33.9111 -17.6222   C.3       1 RES1   0.0000
    15 C15     -4.7617  32.5261 -17.3491   C.2       1 RES1   0.0000
    16 O16     -5.8061  32.2008 -17.9504   O.co2     1 RES1   0.0000
    17 O17     -4.1871  31.7738 -16.5312   O.co2     1 RES1  -1.0000
    18 C18     -5.1322  34.8297 -18.3459   C.3       1 RES1   0.0000
@<TRIPOS>BOND
     1     1     2    2
     2     2     3    1
     3     2     4    1
     4     4     5    2
     5     5     6    1
     6     6     7    2
     7     7     8    1
     8     8     9    2
     9     9    10    1
    10    11    10    1
    11    11    12    1
    12    12    13    1
    13    13    14    1
    14    14    15    1
    15    15    16    2
    16    15    17    1
    17    14    18    1
    18     9     4    1
    19    18    11    1
@<TRIPOS>SUBSTRUCTURE
     1 RES1        1 GROUP             0 ****  ****    0  
@<TRIPOS>MOLECULE
ligand_79
    18    19     1     0     0
SMALL
USER_CHARGES
****
Generated from the CSD

@<TRIPOS>ATOM
     1 O1      -6.8268  40.2494 -15.3808   O.co2     1 RES1   0.0000
     2 C2      -7.6152  39.3393 -15.0469   C.2       1 RES1   0.0000
     3 O3      -8.8124  39.4412 -15.3929   O.co2     1 RES1  -1.0000
     4 C4      -7.1733  38.1323 -14.2392   C.2       1 RES1   0.0000
     5 C5      -7.4971  38.1094 -12.8607   C.2       1 RES1   0.0000
     6 C6      -7.1257  37.0342 -12.0351   C.2       1 RES1   0.0000
     7 C7      -6.4214  35.9503 -12.5704   C.2       1 RES1   0.0000
     8 C8      -6.0876  35.9498 -13.9341   C.2       1 RES1   0.0000
     9 C9      -6.4511  37.0255 -14.7883   C.2       1 RES1   0.0000
    10 O10     -6.1249  37.0324 -16.1327   O.3       1 RES1   0.0000
    11 C11     -5.8976  35.8221 -16.8515   C.3       1 RES1   0.0000
    12 C12     -5.8964  35.9456 -18.3553   C.3       1 RES1   0.0000
    13 N13     -5.3022  34.6984 -18.8536   N.2       1 RES1   1.0000
    14 C14     -4.4177  34.1645 -17.7568   C.3       1 RES1   0.0000
    15 C15     -4.9010  32.7757 -17.3069   C.2       1 RES1   0.0000
    16 O16     -5.9660  32.3283 -17.7799   O.co2     1 RES1   0.0000
    17 O17     -4.2069  32.1432 -16.4803   O.co2     1 RES1  -1.0000
    18 C18     -4.4971  35.2249 -16.6523   C.3       1 RES1   0.0000
@<TRIPOS>BOND
     1     1     2    2
     2     2     3    1
     3     2     4    1
     4     4     5    2
     5     5     6    1
     6     6     7    2
     7     7     8    1
     8     8     9    2
     9     9    10    1
    10    11    10    1
    11    11    12    1
    12    12    13    1
    13    13    14    1
    14    14    15    1
    15    15    16    2
    16    15    17    1
    17    14    18    1
    18     9     4    1
    19    18    11    1
@<TRIPOS>SUBSTRUCTURE
     1 RES1        1 GROUP             0 ****  ****    0  
@<TRIPOS>MOLECULE
ligand_80
    18    19     1     0     0
SMALL
USER_CHARGES
****
Generated from the CSD

@<TRIPOS>ATOM
     1 O1      -5.3471  39.6004 -18.1834   O.co2     1 RES1   0.0000
     2 C2      -5.9536  39.8133 -17.1119   C.2       1 RES1   0.0000
     3 O3      -5.4673  40.6456 -16.3155   O.co2     1 RES1  -1.0000
     4 C4      -7.2421  39.0983 -16.7475   C.2       1 RES1   0.0000
     5 C5      -8.4545  39.8174 -16.8846   C.2       1 RES1   0.0000
     6 C6      -9.6946  39.2367 -16.5676   C.2       1 RES1   0.0000
     7 C7      -9.7533  37.9170 -16.1069   C.2       1 RES1   0.0000
     8 C8      -8.5651  37.1833 -15.9613   C.2       1 RES1   0.0000
     9 C9      -7.2997  37.7488 -16.2744   C.2       1 RES1   0.0000
    10 O10     -6.1249  37.0324 -16.1327   O.3       1 RES1   0.0000
    11 C11     -5.8976  35.8221 -16.8515   C.3       1 RES1   0.0000
    12 C12     -5.5733  35.9831 -18.3163   C.3       1 RES1   0.0000
    13 N13     -5.0390  34.6849 -18.7476   N.2       1 RES1   1.0000
    14 C14     -4.4670  34.0170 -17.5240   C.3       1 RES1   0.0000
    15 C15     -5.1910  32.6880 -17.2510   C.2       1 RES1   0.0000
    16 O16     -6.1810  32.3890 -17.9500   O.co2     1 RES1   0.0000
    17 O17     -4.7600  31.9530 -16.3350   O.co2     1 RES1  -1.0000
    18 C18     -4.6473  35.0503 -16.4058   C.3       1 RES1   0.0000
@<TRIPOS>BOND
     1     1     2    2
     2     2     3    1
     3     2     4    1
     4     4     5    2
     5     5     6    1
     6     6     7    2
     7     7     8    1
     8     8     9    2
     9     9    10    1
    10    11    10    1
    11    11    12    1
    12    12    13    1
    13    13    14    1
    14    14    15    1
    15    15    16    2
    16    15    17    1
    17    14    18    1
    18     9     4    1
    19    18    11    1
@<TRIPOS>SUBSTRUCTURE
     1 RES1        1 GROUP             0 ****  ****    0  
@<TRIPOS>MOLECULE
ligand_81
    18    19     1     0     0
SMALL
USER_CHARGES
****
Generated from the CSD

@<TRIPOS>ATOM
     1 O1      -7.9569  36.2683 -13.4001   O.co2     1 RES1   0.0000
     2 C2      -7.7953  37.4611 -13.7352   C.2       1 RES1   0.0000
     3 O3      -7.3487  38.2574 -12.8809   O.co2     1 RES1  -1.0000
     4 C4      -8.1258  37.9697 -15.1268   C.2       1 RES1   0.0000
     5 C5      -9.3260  38.7036 -15.2908   C.2       1 RES1   0.0000
     6 C6      -9.7138  39.2101 -16.5432   C.2       1 RES1   0.0000
     7 C7      -8.9066  38.9969 -17.6659   C.2       1 RES1   0.0000
     8 C8      -7.7124  38.2715 -17.5296   C.2       1 RES1   0.0000
     9 C9      -7.2997  37.7488 -16.2744   C.2       1 RES1   0.0000
    10 O10     -6.1249  37.0324 -16.1327   O.3       1 RES1   0.0000
    11 C11     -5.8976  35.8221 -16.8515   C.3       1 RES1   0.0000
    12 C12     -5.5733  35.9831 -18.3163   C.3       1 RES1   0.0000
    13 N13     -5.0390  34.6849 -18.7476   N.2       1 RES1   1.0000
    14 C14     -4.4670  34.0170 -17.5240   C.3       1 RES1   0.0000
    15 C15     -5.1910  32.6880 -17.2510   C.2       1 RES1   0.0000
    16 O16     -6.1810  32.3890 -17.9500   O.co2     1 RES1   0.0000
    17 O17     -4.7600  31.9530 -16.3350   O.co2     1 RES1  -1.0000
    18 C18     -4.6473  35.0503 -16.4058   C.3       1 RES1   0.0000
@<TRIPOS>BOND
     1     1     2    2
     2     2     3    1
     3     2     4    1
     4     4     5    2
     5     5     6    1
     6     6     7    2
     7     7     8    1
     8     8     9    2
     9     9    10    1
    10    11    10    1
    11    11    12    1
    12    12    13    1
    13    13    14    1
    14    14    15    1
    15    15    16    2
    16    15    17    1
    17    14    18    1
    18     9     4    1
    19    18    11    1
@<TRIPOS>SUBSTRUCTURE
     1 RES1        1 GROUP             0 ****  ****    0  
@<TRIPOS>MOLECULE
ligand_82
    18    19     1     0     0
SMALL
USER_CHARGES
****
Generated from the CSD

@<TRIPOS>ATOM
     1 O1      -7.2434  37.7466 -22.3924   O.co2     1 RES1   0.0000
     2 C2      -6.0525  37.6285 -22.7516   C.2       1 RES1   0.0000
     3 O3      -5.3499  38.6612 -22.8098   O.co2     1 RES1  -1.0000
     4 C4      -5.4404  36.2894 -23.1211   C.2       1 RES1   0.0000
     5 C5      -5.2654  36.0039 -24.4972   C.2       1 RES1   0.0000
     6 C6      -4.7098  34.7882 -24.9319   C.2       1 RES1   0.0000
     7 C7      -4.3115  33.8258 -23.9976   C.2       1 RES1   0.0000
     8 C8      -4.4756  34.0847 -22.6275   C.2       1 RES1   0.0000
     9 C9      -5.0356  35.3055 -22.1639   C.2       1 RES1   0.0000
    10 O10     -5.2011  35.5672 -20.8156   O.3       1 RES1   0.0000
    11 C11     -4.8153  34.6228 -19.8194   C.3       1 RES1   0.0000
    12 C12     -3.3317  34.5041 -19.5712   C.3       1 RES1   0.0000
    13 N13     -3.2004  33.7745 -18.3034   N.2       1 RES1   1.0000
    14 C14     -4.4670  34.0170 -17.5240   C.3       1 RES1   0.0000
    15 C15     -5.1910  32.6880 -17.2510   C.2       1 RES1   0.0000
    16 O16     -6.1810  32.3890 -17.9500   O.co2     1 RES1   0.0000
    17 O17     -4.7600  31.9530 -16.3350   O.co2     1 RES1  -1.0000
    18 C18     -5.2747  34.9826 -18.3992   C.3       1 RES1   0.0000
@<TRIPOS>BOND
     1     1     2    2
     2     2     3    1
     3     2     4    1
     4     4     5    2
     5     5     6    1
     6     6     7    2
     7     7     8    1
     8     8     9    2
     9     9    10    1
    10    11    10    1
    11    11    12    1
    12    12    13    1
    13    13    14    1
    14    14    15    1
    15    15    16    2
    16    15    17    1
    17    14    18    1
    18     9     4    1
    19    18    11    1
@<TRIPOS>SUBSTRUCTURE
     1 RES1        1 GROUP             0 ****  ****    0  
@<TRIPOS>MOLECULE
ligand_83
    18    19     1     0     0
SMALL
USER_CHARGES
****
Generated from the CSD

@<TRIPOS>ATOM
     1 O1      -9.3743  37.7029 -16.7643   O.co2     1 RES1   0.0000
     2 C2      -9.0619  36.7390 -16.0331   C.2       1 RES1   0.0000
     3 O3      -9.5184  35.6107 -16.3194   O.co2     1 RES1  -1.0000
     4 C4      -8.1624  36.8928 -14.8200   C.2       1 RES1   0.0000
     5 C5      -8.7756  36.8984 -13.5434   C.2       1 RES1   0.0000
     6 C6      -8.0220  37.0389 -12.3653   C.2       1 RES1   0.0000
     7 C7      -6.6312  37.1748 -12.4351   C.2       1 RES1   0.0000
     8 C8      -5.9997  37.1734 -13.6890   C.2       1 RES1   0.0000
     9 C9      -6.7402  37.0338 -14.8937   C.2       1 RES1   0.0000
    10 O10     -6.1249  37.0324 -16.1327   O.3       1 RES1   0.0000
    11 C11     -5.8976  35.8221 -16.8515   C.3       1 RES1   0.0000
    12 C12     -5.5733  35.9831 -18.3163   C.3       1 RES1   0.0000
    13 N13     -5.0390  34.6849 -18.7476   N.2       1 RES1   1.0000
    14 C14     -4.4670  34.0170 -17.5240   C.3       1 RES1   0.0000
    15 C15     -5.1910  32.6880 -17.2510   C.2       1 RES1   0.0000
    16 O16     -6.1810  32.3890 -17.9500   O.co2     1 RES1   0.0000
    17 O17     -4.7600  31.9530 -16.3350   O.co2     1 RES1  -1.0000
    18 C18     -4.6473  35.0503 -16.4058   C.3       1 RES1   0.0000
@<TRIPOS>BOND
     1     1     2    2
     2     2     3    1
     3     2     4    1
     4     4     5    2
     5     5     6    1
     6     6     7    2
     7     7     8    1
     8     8     9    2
     9     9    10    1
    10    11    10    1
    11    11    12    1
    12    12    13    1
    13    13    14    1
    14    14    15    1
    15    15    16    2
    16    15    17    1
    17    14    18    1
    18     9     4    1
    19    18    11    1
@<TRIPOS>SUBSTRUCTURE
     1 RES1        1 GROUP             0 ****  ****    0  
@<TRIPOS>MOLECULE
ligand_84
    18    19     1     0     0
SMALL
USER_CHARGES
****
Generated from the CSD

@<TRIPOS>ATOM
     1 O1      -2.1759  38.6766 -17.4118   O.co2     1 RES1   0.0000
     2 C2      -1.6993  38.8763 -18.5494   C.2       1 RES1   0.0000
     3 O3      -0.5513  39.3655 -18.6292   O.co2     1 RES1  -1.0000
     4 C4      -2.4619  38.5544 -19.8219   C.2       1 RES1   0.0000
     5 C5      -2.4891  39.5393 -20.8391   C.2       1 RES1   0.0000
     6 C6      -3.1729  39.3293 -22.0490   C.2       1 RES1   0.0000
     7 C7      -3.8464  38.1237 -22.2733   C.2       1 RES1   0.0000
     8 C8      -3.8353  37.1317 -21.2797   C.2       1 RES1   0.0000
     9 C9      -3.1519  37.3212 -20.0484   C.2       1 RES1   0.0000
    10 O10     -3.1373  36.3488 -19.0646   O.3       1 RES1   0.0000
    11 C11     -3.2129  34.9615 -19.3855   C.3       1 RES1   0.0000
    12 C12     -2.2581  34.1355 -18.5494   C.3       1 RES1   0.0000
    13 N13     -2.9902  33.8802 -17.2739   N.2       1 RES1   1.0000
    14 C14     -4.4670  34.0170 -17.5240   C.3       1 RES1   0.0000
    15 C15     -5.1910  32.6880 -17.2510   C.2       1 RES1   0.0000
    16 O16     -6.1810  32.3890 -17.9500   O.co2     1 RES1   0.0000
    17 O17     -4.7600  31.9530 -16.3350   O.co2     1 RES1  -1.0000
    18 C18     -4.5696  34.4277 -18.9902   C.3       1 RES1   0.0000
@<TRIPOS>BOND
     1     1     2    2
     2     2     3    1
     3     2     4    1
     4     4     5    2
     5     5     6    1
     6     6     7    2
     7     7     8    1
     8     8     9    2
     9     9    10    1
    10    11    10    1
    11    11    12    1
    12    12    13    1
    13    13    14    1
    14    14    15    1
    15    15    16    2
    16    15    17    1
    17    14    18    1
    18     9     4    1
    19    18    11    1
@<TRIPOS>SUBSTRUCTURE
     1 RES1        1 GROUP             0 ****  ****    0  
@<TRIPOS>MOLECULE
ligand_85
    18    19     1     0     0
SMALL
USER_CHARGES
****
Generated from the CSD

@<TRIPOS>ATOM
     1 O1      -9.3062  37.9947 -16.7315   O.co2     1 RES1   0.0000
     2 C2      -8.6428  38.5453 -15.8271   C.2       1 RES1   0.0000
     3 O3      -8.5393  39.7912 -15.8480   O.co2     1 RES1  -1.0000
     4 C4      -7.9614  37.7596 -14.7211   C.2       1 RES1   0.0000
     5 C5      -8.5764  37.7518 -13.4454   C.2       1 RES1   0.0000
     6 C6      -8.0152  37.0541 -12.3620   C.2       1 RES1   0.0000
     7 C7      -6.8224  36.3422 -12.5291   C.2       1 RES1   0.0000
     8 C8      -6.1926  36.3354 -13.7839   C.2       1 RES1   0.0000
     9 C9      -6.7402  37.0338 -14.8937   C.2       1 RES1   0.0000
    10 O10     -6.1249  37.0324 -16.1327   O.3       1 RES1   0.0000
    11 C11     -5.8976  35.8221 -16.8515   C.3       1 RES1   0.0000
    12 C12     -5.5733  35.9831 -18.3163   C.3       1 RES1   0.0000
    13 N13     -5.0390  34.6849 -18.7476   N.2       1 RES1   1.0000
    14 C14     -4.4670  34.0170 -17.5240   C.3       1 RES1   0.0000
    15 C15     -5.1910  32.6880 -17.2510   C.2       1 RES1   0.0000
    16 O16     -6.1810  32.3890 -17.9500   O.co2     1 RES1   0.0000
    17 O17     -4.7600  31.9530 -16.3350   O.co2     1 RES1  -1.0000
    18 C18     -4.6473  35.0503 -16.4058   C.3       1 RES1   0.0000
@<TRIPOS>BOND
     1     1     2    2
     2     2     3    1
     3     2     4    1
     4     4     5    2
     5     5     6    1
     6     6     7    2
     7     7     8    1
     8     8     9    2
     9     9    10    1
    10    11    10    1
    11    11    12    1
    12    12    13    1
    13    13    14    1
    14    14    15    1
    15    15    16    2
    16    15    17    1
    17    14    18    1
    18     9     4    1
    19    18    11    1
@<TRIPOS>SUBSTRUCTURE
     1 RES1        1 GROUP             0 ****  ****    0  
@<TRIPOS>MOLECULE
ligand_86
    18    19     1     0     0
SMALL
USER_CHARGES
****
Generated from the CSD

@<TRIPOS>ATOM
     1 O1      -4.3741  39.2508 -14.2837   O.co2     1 RES1   0.0000
     2 C2      -4.6235  38.1133 -13.8306   C.2       1 RES1   0.0000
     3 O3      -3.6665  37.4181 -13.4255   O.co2     1 RES1  -1.0000
     4 C4      -6.0326  37.5527 -13.7631   C.2       1 RES1   0.0000
     5 C5      -6.6771  37.5445 -12.5020   C.2       1 RES1   0.0000
     6 C6      -7.9802  37.0418 -12.3446   C.2       1 RES1   0.0000
     7 C7      -8.6744  36.5359 -13.4490   C.2       1 RES1   0.0000
     8 C8      -8.0567  36.5320 -14.7098   C.2       1 RES1   0.0000
     9 C9      -6.7402  37.0338 -14.8937   C.2       1 RES1   0.0000
    10 O10     -6.1249  37.0324 -16.1327   O.3       1 RES1   0.0000
    11 C11     -5.8976  35.8221 -16.8515   C.3       1 RES1   0.0000
    12 C12     -5.5733  35.9831 -18.3163   C.3       1 RES1   0.0000
    13 N13     -5.0390  34.6849 -18.7476   N.2       1 RES1   1.0000
    14 C14     -4.4670  34.0170 -17.5240   C.3       1 RES1   0.0000
    15 C15     -5.1910  32.6880 -17.2510   C.2       1 RES1   0.0000
    16 O16     -6.1810  32.3890 -17.9500   O.co2     1 RES1   0.0000
    17 O17     -4.7600  31.9530 -16.3350   O.co2     1 RES1  -1.0000
    18 C18     -4.6473  35.0503 -16.4058   C.3       1 RES1   0.0000
@<TRIPOS>BOND
     1     1     2    2
     2     2     3    1
     3     2     4    1
     4     4     5    2
     5     5     6    1
     6     6     7    2
     7     7     8    1
     8     8     9    2
     9     9    10    1
    10    11    10    1
    11    11    12    1
    12    12    13    1
    13    13    14    1
    14    14    15    1
    15    15    16    2
    16    15    17    1
    17    14    18    1
    18     9     4    1
    19    18    11    1
@<TRIPOS>SUBSTRUCTURE
     1 RES1        1 GROUP             0 ****  ****    0  
@<TRIPOS>MOLECULE
ligand_87
    18    19     1     0     0
SMALL
USER_CHARGES
****
Generated from the CSD

@<TRIPOS>ATOM
     1 O1      -5.5822  38.6211 -22.2069   O.co2     1 RES1   0.0000
     2 C2      -5.8419  37.5926 -22.8672   C.2       1 RES1   0.0000
     3 O3      -5.2890  37.4520 -23.9798   O.co2     1 RES1  -1.0000
     4 C4      -6.8002  36.5248 -22.3713   C.2       1 RES1   0.0000
     5 C5      -8.1006  36.4970 -22.9316   C.2       1 RES1   0.0000
     6 C6      -9.0547  35.5458 -22.5307   C.2       1 RES1   0.0000
     7 C7      -8.7296  34.5939 -21.5582   C.2       1 RES1   0.0000
     8 C8      -7.4472  34.6013 -20.9867   C.2       1 RES1   0.0000
     9 C9      -6.4663  35.5532 -21.3749   C.2       1 RES1   0.0000
    10 O10     -5.2011  35.5672 -20.8156   O.3       1 RES1   0.0000
    11 C11     -4.8153  34.6228 -19.8194   C.3       1 RES1   0.0000
    12 C12     -3.3317  34.5041 -19.5712   C.3       1 RES1   0.0000
    13 N13     -3.2004  33.7745 -18.3034   N.2       1 RES1   1.0000
    14 C14     -4.4670  34.0170 -17.5240   C.3       1 RES1   0.0000
    15 C15     -5.1910  32.6880 -17.2510   C.2       1 RES1   0.0000
    16 O16     -6.1810  32.3890 -17.9500   O.co2     1 RES1   0.0000
    17 O17     -4.7600  31.9530 -16.3350   O.co2     1 RES1  -1.0000
    18 C18     -5.2747  34.9826 -18.3992   C.3       1 RES1   0.0000
@<TRIPOS>BOND
     1     1     2    2
     2     2     3    1
     3     2     4    1
     4     4     5    2
     5     5     6    1
     6     6     7    2
     7     7     8    1
     8     8     9    2
     9     9    10    1
    10    11    10    1
    11    11    12    1
    12    12    13    1
    13    13    14    1
    14    14    15    1
    15    15    16    2
    16    15    17    1
    17    14    18    1
    18     9     4    1
    19    18    11    1
@<TRIPOS>SUBSTRUCTURE
     1 RES1        1 GROUP             0 ****  ****    0  
@<TRIPOS>MOLECULE
ligand_88
    18    19     1     0     0
SMALL
USER_CHARGES
****
Generated from the CSD

@<TRIPOS>ATOM
     1 O1      -8.0161  33.1385 -22.7736   O.co2     1 RES1   0.0000
     2 C2      -7.2057  33.8681 -22.1635   C.2       1 RES1   0.0000
     3 O3      -7.4147  34.0954 -20.9519   O.co2     1 RES1  -1.0000
     4 C4      -5.9941  34.4849 -22.8390   C.2       1 RES1   0.0000
     5 C5      -5.8078  34.2258 -24.2188   C.2       1 RES1   0.0000
     6 C6      -4.7130  34.7528 -24.9254   C.2       1 RES1   0.0000
     7 C7      -3.7758  35.5569 -24.2677   C.2       1 RES1   0.0000
     8 C8      -3.9377  35.8275 -22.8996   C.2       1 RES1   0.0000
     9 C9      -5.0356  35.3055 -22.1639   C.2       1 RES1   0.0000
    10 O10     -5.2011  35.5672 -20.8156   O.3       1 RES1   0.0000
    11 C11     -4.8153  34.6228 -19.8194   C.3       1 RES1   0.0000
    12 C12     -3.3318  34.5055 -19.5699   C.3       1 RES1   0.0000
    13 N13     -3.2010  33.7755 -18.3022   N.2       1 RES1   1.0000
    14 C14     -4.4685  34.0165 -17.5239   C.3       1 RES1   0.0000
    15 C15     -5.1915  32.6867 -17.2521   C.2       1 RES1   0.0000
    16 O16     -6.1806  32.3870 -17.9521   O.co2     1 RES1   0.0000
    17 O17     -4.7606  31.9518 -16.3359   O.co2     1 RES1  -1.0000
    18 C18     -5.2763  34.9817 -18.3995   C.3       1 RES1   0.0000
@<TRIPOS>BOND
     1     1     2    2
     2     2     3    1
     3     2     4    1
     4     4     5    2
     5     5     6    1
     6     6     7    2
     7     7     8    1
     8     8     9    2
     9     9    10    1
    10    11    10    1
    11    11    12    1
    12    12    13    1
    13    13    14    1
    14    14    15    1
    15    15    16    2
    16    15    17    1
    17    14    18    1
    18     9     4    1
    19    18    11    1
@<TRIPOS>SUBSTRUCTURE
     1 RES1        1 GROUP             0 ****  ****    0  
@<TRIPOS>MOLECULE
ligand_89
    18    19     1     0     0
SMALL
USER_CHARGES
****
Generated from the CSD

@<TRIPOS>ATOM
     1 O1      -2.6320  36.5543 -16.1022   O.co2     1 RES1   0.0000
     2 C2      -2.1655  37.6113 -16.5779   C.2       1 RES1   0.0000
     3 O3      -2.3074  38.6657 -15.9209   O.co2     1 RES1  -1.0000
     4 C4      -1.4466  37.6573 -17.9142   C.2       1 RES1   0.0000
     5 C5      -0.2184  38.3597 -17.9761   C.2       1 RES1   0.0000
     6 C6       0.5144  38.4571 -19.1715   C.2       1 RES1   0.0000
     7 C7       0.0366  37.8499 -20.3380   C.2       1 RES1   0.0000
     8 C8      -1.1792  37.1487 -20.3027   C.2       1 RES1   0.0000
     9 C9      -1.9382  37.0372 -19.1067   C.2       1 RES1   0.0000
    10 O10     -3.1373  36.3488 -19.0646   O.3       1 RES1   0.0000
    11 C11     -3.2129  34.9615 -19.3855   C.3       1 RES1   0.0000
    12 C12     -2.2691  34.1337 -18.5388   C.3       1 RES1   0.0000
    13 N13     -3.0153  33.8809 -17.2710   N.2       1 RES1   1.0000
    14 C14     -4.4891  34.0212 -17.5369   C.3       1 RES1   0.0000
    15 C15     -5.2192  32.6941 -17.2709   C.2       1 RES1   0.0000
    16 O16     -6.2025  32.3972 -17.9802   O.co2     1 RES1   0.0000
    17 O17     -4.7998  31.9586 -16.3499   O.co2     1 RES1  -1.0000
    18 C18     -4.5751  34.4313 -19.0044   C.3       1 RES1   0.0000
@<TRIPOS>BOND
     1     1     2    2
     2     2     3    1
     3     2     4    1
     4     4     5    2
     5     5     6    1
     6     6     7    2
     7     7     8    1
     8     8     9    2
     9     9    10    1
    10    11    10    1
    11    11    12    1
    12    12    13    1
    13    13    14    1
    14    14    15    1
    15    15    16    2
    16    15    17    1
    17    14    18    1
    18     9     4    1
    19    18    11    1
@<TRIPOS>SUBSTRUCTURE
     1 RES1        1 GROUP             0 ****  ****    0  
@<TRIPOS>MOLECULE
ligand_90
    18    19     1     0     0
SMALL
USER_CHARGES
****
Generated from the CSD

@<TRIPOS>ATOM
     1 O1      -3.8704  38.4033 -21.1419   O.co2     1 RES1   0.0000
     2 C2      -2.6568  38.1764 -21.3342   C.2       1 RES1   0.0000
     3 O3      -2.2424  38.1496 -22.5136   O.co2     1 RES1  -1.0000
     4 C4      -1.6826  37.9288 -20.1966   C.2       1 RES1   0.0000
     5 C5      -0.4489  38.6238 -20.2245   C.2       1 RES1   0.0000
     6 C6       0.5145  38.4543 -19.2152   C.2       1 RES1   0.0000
     7 C7       0.2657  37.5847 -18.1478   C.2       1 RES1   0.0000
     8 C8      -0.9495  36.8832 -18.0979   C.2       1 RES1   0.0000
     9 C9      -1.9382  37.0372 -19.1067   C.2       1 RES1   0.0000
    10 O10     -3.1373  36.3488 -19.0646   O.3       1 RES1   0.0000
    11 C11     -3.2129  34.9615 -19.3855   C.3       1 RES1   0.0000
    12 C12     -2.2800  34.1319 -18.5285   C.3       1 RES1   0.0000
    13 N13     -3.0400  33.8816 -17.2685   N.2       1 RES1   1.0000
    14 C14     -4.5106  34.0253 -17.5498   C.3       1 RES1   0.0000
    15 C15     -5.2466  32.7002 -17.2907   C.2       1 RES1   0.0000
    16 O16     -6.2231  32.4052 -18.0101   O.co2     1 RES1   0.0000
    17 O17     -4.8386  31.9642 -16.3650   O.co2     1 RES1  -1.0000
    18 C18     -4.5803  34.4348 -19.0183   C.3       1 RES1   0.0000
@<TRIPOS>BOND
     1     1     2    2
     2     2     3    1
     3     2     4    1
     4     4     5    2
     5     5     6    1
     6     6     7    2
     7     7     8    1
     8     8     9    2
     9     9    10    1
    10    11    10    1
    11    11    12    1
    12    12    13    1
    13    13    14    1
    14    14    15    1
    15    15    16    2
    16    15    17    1
    17    14    18    1
    18     9     4    1
    19    18    11    1
@<TRIPOS>SUBSTRUCTURE
     1 RES1        1 GROUP             0 ****  ****    0  
@<TRIPOS>MOLECULE
ligand_91
    18    19     1     0     0
SMALL
USER_CHARGES
****
Generated from the CSD

@<TRIPOS>ATOM
     1 O1      -6.1244  37.0643 -24.6318   O.co2     1 RES1   0.0000
     2 C2      -5.8142  36.6206 -23.5057   C.2       1 RES1   0.0000
     3 O3      -4.6009  36.4596 -23.2501   O.co2     1 RES1  -1.0000
     4 C4      -6.8502  36.2690 -22.4533   C.2       1 RES1   0.0000
     5 C5      -8.2139  36.4617 -22.7832   C.2       1 RES1   0.0000
     6 C6      -9.2410  36.1662 -21.8703   C.2       1 RES1   0.0000
     7 C7      -8.9284  35.6663 -20.6015   C.2       1 RES1   0.0000
     8 C8      -7.5838  35.4675 -20.2500   C.2       1 RES1   0.0000
     9 C9      -6.5282  35.7596 -21.1553   C.2       1 RES1   0.0000
    10 O10     -5.2011  35.5672 -20.8156   O.3       1 RES1   0.0000
    11 C11     -4.8153  34.6228 -19.8194   C.3       1 RES1   0.0000
    12 C12     -3.3501  34.2632 -19.7924   C.3       1 RES1   0.0000
    13 N13     -3.1327  33.5879 -18.5065   N.2       1 RES1   1.0000
    14 C14     -4.1983  34.0846 -17.5640   C.3       1 RES1   0.0000
    15 C15     -5.0732  32.9160 -17.0805   C.2       1 RES1   0.0000
    16 O16     -6.1995  32.7565 -17.5944   O.co2     1 RES1   0.0000
    17 O17     -4.6227  32.1657 -16.1866   O.co2     1 RES1  -1.0000
    18 C18     -4.9714  35.1287 -18.3781   C.3       1 RES1   0.0000
@<TRIPOS>BOND
     1     1     2    2
     2     2     3    1
     3     2     4    1
     4     4     5    2
     5     5     6    1
     6     6     7    2
     7     7     8    1
     8     8     9    2
     9     9    10    1
    10    11    10    1
    11    11    12    1
    12    12    13    1
    13    13    14    1
    14    14    15    1
    15    15    16    2
    16    15    17    1
    17    14    18    1
    18     9     4    1
    19    18    11    1
@<TRIPOS>SUBSTRUCTURE
     1 RES1        1 GROUP             0 ****  ****    0  
@<TRIPOS>MOLECULE
ligand_92
    18    19     1     0     0
SMALL
USER_CHARGES
****
Generated from the CSD

@<TRIPOS>ATOM
     1 O1      -2.9330  36.6422 -22.8687   O.co2     1 RES1   0.0000
     2 C2      -2.3878  35.6947 -23.4738   C.2       1 RES1   0.0000
     3 O3      -2.6104  35.5720 -24.6980   O.co2     1 RES1  -1.0000
     4 C4      -1.4804  34.6962 -22.7779   C.2       1 RES1   0.0000
     5 C5      -0.2471  34.3839 -23.4000   C.2       1 RES1   0.0000
     6 C6       0.6541  33.4685 -22.8296   C.2       1 RES1   0.0000
     7 C7       0.3443  32.8429 -21.6171   C.2       1 RES1   0.0000
     8 C8      -0.8728  33.1350 -20.9811   C.2       1 RES1   0.0000
     9 C9      -1.8002  34.0559 -21.5386   C.2       1 RES1   0.0000
    10 O10     -3.0016  34.3479 -20.9181   O.3       1 RES1   0.0000
    11 C11     -3.3129  33.8451 -19.6206   C.3       1 RES1   0.0000
    12 C12     -2.4007  34.2992 -18.5077   C.3       1 RES1   0.0000
    13 N13     -3.1029  33.9675 -17.2612   N.2       1 RES1   1.0000
    14 C14     -4.5748  33.9346 -17.5818   C.3       1 RES1   0.0000
    15 C15     -5.1536  32.5379 -17.3002   C.2       1 RES1   0.0000
    16 O16     -6.0715  32.1101 -18.0298   O.co2     1 RES1   0.0000
    17 O17     -4.6818  31.8797 -16.3467   O.co2     1 RES1  -1.0000
    18 C18     -4.6530  34.3405 -19.0582   C.3       1 RES1   0.0000
@<TRIPOS>BOND
     1     1     2    2
     2     2     3    1
     3     2     4    1
     4     4     5    2
     5     5     6    1
     6     6     7    2
     7     7     8    1
     8     8     9    2
     9     9    10    1
    10    11    10    1
    11    11    12    1
    12    12    13    1
    13    13    14    1
    14    14    15    1
    15    15    16    2
    16    15    17    1
    17    14    18    1
    18     9     4    1
    19    18    11    1
@<TRIPOS>SUBSTRUCTURE
     1 RES1        1 GROUP             0 ****  ****    0  
@<TRIPOS>MOLECULE
ligand_93
    18    19     1     0     0
SMALL
USER_CHARGES
****
Generated from the CSD

@<TRIPOS>ATOM
     1 O1      -2.7704  38.1251 -23.0973   O.co2     1 RES1   0.0000
     2 C2      -3.4863  37.3852 -22.3893   C.2       1 RES1   0.0000
     3 O3      -3.5993  37.6620 -21.1752   O.co2     1 RES1  -1.0000
     4 C4      -4.2090  36.1724 -22.9472   C.2       1 RES1   0.0000
     5 C5      -4.0524  35.8906 -24.3263   C.2       1 RES1   0.0000
     6 C6      -4.6865  34.7908 -24.9295   C.2       1 RES1   0.0000
     7 C7      -5.4933  33.9410 -24.1651   C.2       1 RES1   0.0000
     8 C8      -5.6653  34.1997 -22.7959   C.2       1 RES1   0.0000
     9 C9      -5.0356  35.3055 -22.1639   C.2       1 RES1   0.0000
    10 O10     -5.2011  35.5672 -20.8156   O.3       1 RES1   0.0000
    11 C11     -4.8153  34.6228 -19.8194   C.3       1 RES1   0.0000
    12 C12     -3.3317  34.5041 -19.5712   C.3       1 RES1   0.0000
    13 N13     -3.2004  33.7745 -18.3034   N.2       1 RES1   1.0000
    14 C14     -4.4670  34.0170 -17.5240   C.3       1 RES1   0.0000
    15 C15     -5.1910  32.6880 -17.2510   C.2       1 RES1   0.0000
    16 O16     -6.1810  32.3890 -17.9500   O.co2     1 RES1   0.0000
    17 O17     -4.7600  31.9530 -16.3350   O.co2     1 RES1  -1.0000
    18 C18     -5.2747  34.9826 -18.3992   C.3       1 RES1   0.0000
@<TRIPOS>BOND
     1     1     2    2
     2     2     3    1
     3     2     4    1
     4     4     5    2
     5     5     6    1
     6     6     7    2
     7     7     8    1
     8     8     9    2
     9     9    10    1
    10    11    10    1
    11    11    12    1
    12    12    13    1
    13    13    14    1
    14    14    15    1
    15    15    16    2
    16    15    17    1
    17    14    18    1
    18     9     4    1
    19    18    11    1
@<TRIPOS>SUBSTRUCTURE
     1 RES1        1 GROUP             0 ****  ****    0  
@<TRIPOS>MOLECULE
ligand_94
    18    19     1     0     0
SMALL
USER_CHARGES
****
Generated from the CSD

@<TRIPOS>ATOM
     1 O1      -8.5846  35.5272 -23.3071   O.co2     1 RES1   0.0000
     2 C2      -7.6003  35.5467 -22.5377   C.2       1 RES1   0.0000
     3 O3      -7.8028  35.7931 -21.3287   O.co2     1 RES1  -1.0000
     4 C4      -6.1834  35.2905 -23.0185   C.2       1 RES1   0.0000
     5 C5      -5.9955  35.0189 -24.3957   C.2       1 RES1   0.0000
     6 C6      -4.7197  34.7669 -24.9290   C.2       1 RES1   0.0000
     7 C7      -3.5960  34.7831 -24.0955   C.2       1 RES1   0.0000
     8 C8      -3.7562  35.0488 -22.7262   C.2       1 RES1   0.0000
     9 C9      -5.0356  35.3055 -22.1639   C.2       1 RES1   0.0000
    10 O10     -5.2011  35.5672 -20.8156   O.3       1 RES1   0.0000
    11 C11     -4.8153  34.6228 -19.8194   C.3       1 RES1   0.0000
    12 C12     -3.3317  34.5041 -19.5712   C.3       1 RES1   0.0000
    13 N13     -3.2004  33.7745 -18.3034   N.2       1 RES1   1.0000
    14 C14     -4.4670  34.0170 -17.5240   C.3       1 RES1   0.0000
    15 C15     -5.1910  32.6880 -17.2510   C.2       1 RES1   0.0000
    16 O16     -6.1810  32.3890 -17.9500   O.co2     1 RES1   0.0000
    17 O17     -4.7600  31.9530 -16.3350   O.co2     1 RES1  -1.0000
    18 C18     -5.2747  34.9826 -18.3992   C.3       1 RES1   0.0000
@<TRIPOS>BOND
     1     1     2    2
     2     2     3    1
     3     2     4    1
     4     4     5    2
     5     5     6    1
     6     6     7    2
     7     7     8    1
     8     8     9    2
     9     9    10    1
    10    11    10    1
    11    11    12    1
    12    12    13    1
    13    13    14    1
    14    14    15    1
    15    15    16    2
    16    15    17    1
    17    14    18    1
    18     9     4    1
    19    18    11    1
@<TRIPOS>SUBSTRUCTURE
     1 RES1        1 GROUP             0 ****  ****    0  
@<TRIPOS>MOLECULE
ligand_95
    18    19     1     0     0
SMALL
USER_CHARGES
****
Generated from the CSD

@<TRIPOS>ATOM
     1 O1      -5.1943  39.0024 -16.4275   O.co2     1 RES1   0.0000
     2 C2      -4.1033  39.5859 -16.6018   C.2       1 RES1   0.0000
     3 O3      -4.1117  40.6832 -17.2012   O.co2     1 RES1  -1.0000
     4 C4      -2.7837  39.0097 -16.1210   C.2       1 RES1   0.0000
     5 C5      -1.9116  39.8690 -15.4091   C.2       1 RES1   0.0000
     6 C6      -0.6683  39.4226 -14.9290   C.2       1 RES1   0.0000
     7 C7      -0.2663  38.1004 -15.1475   C.2       1 RES1   0.0000
     8 C8      -1.1127  37.2292 -15.8516   C.2       1 RES1   0.0000
     9 C9      -2.3736  37.6574 -16.3473   C.2       1 RES1   0.0000
    10 O10     -3.2123  36.8050 -17.0427   O.3       1 RES1   0.0000
    11 C11     -4.3291  36.1800 -16.4138   C.3       1 RES1   0.0000
    12 C12     -5.5498  36.1710 -17.3099   C.3       1 RES1   0.0000
    13 N13     -5.3728  34.9744 -18.1844   N.2       1 RES1   1.0000
    14 C14     -4.4476  34.0046 -17.5018   C.3       1 RES1   0.0000
    15 C15     -5.1653  32.6743 -17.2191   C.2       1 RES1   0.0000
    16 O16     -6.1494  32.3620 -17.9207   O.co2     1 RES1   0.0000
    17 O17     -4.7354  31.9516 -16.2928   O.co2     1 RES1  -1.0000
    18 C18     -4.0359  34.7117 -16.2136   C.3       1 RES1   0.0000
@<TRIPOS>BOND
     1     1     2    2
     2     2     3    1
     3     2     4    1
     4     4     5    2
     5     5     6    1
     6     6     7    2
     7     7     8    1
     8     8     9    2
     9     9    10    1
    10    11    10    1
    11    11    12    1
    12    12    13    1
    13    13    14    1
    14    14    15    1
    15    15    16    2
    16    15    17    1
    17    14    18    1
    18     9     4    1
    19    18    11    1
@<TRIPOS>SUBSTRUCTURE
     1 RES1        1 GROUP             0 ****  ****    0  
@<TRIPOS>MOLECULE
ligand_96
    18    19     1     0     0
SMALL
USER_CHARGES
****
Generated from the CSD

@<TRIPOS>ATOM
     1 O1      -6.0421  32.8038 -23.8674   O.co2     1 RES1   0.0000
     2 C2      -5.7538  33.6216 -22.9677   C.2       1 RES1   0.0000
     3 O3      -4.5919  33.6038 -22.5061   O.co2     1 RES1  -1.0000
     4 C4      -6.7581  34.6191 -22.4192   C.2       1 RES1   0.0000
     5 C5      -8.0578  34.6203 -22.9816   C.2       1 RES1   0.0000
     6 C6      -9.0509  35.5108 -22.5384   C.2       1 RES1   0.0000
     7 C7      -8.7683  36.4234 -21.5163   C.2       1 RES1   0.0000
     8 C8      -7.4867  36.4428 -20.9432   C.2       1 RES1   0.0000
     9 C9      -6.4663  35.5532 -21.3749   C.2       1 RES1   0.0000
    10 O10     -5.2011  35.5672 -20.8156   O.3       1 RES1   0.0000
    11 C11     -4.8153  34.6228 -19.8194   C.3       1 RES1   0.0000
    12 C12     -3.3316  34.5032 -19.5721   C.3       1 RES1   0.0000
    13 N13     -3.2000  33.7738 -18.3042   N.2       1 RES1   1.0000
    14 C14     -4.4660  34.0174 -17.5241   C.3       1 RES1   0.0000
    15 C15     -5.1907  32.6889 -17.2503   C.2       1 RES1   0.0000
    16 O16     -6.1813  32.3904 -17.9486   O.co2     1 RES1   0.0000
    17 O17     -4.7596  31.9539 -16.3343   O.co2     1 RES1  -1.0000
    18 C18     -5.2735  34.9833 -18.3990   C.3       1 RES1   0.0000
@<TRIPOS>BOND
     1     1     2    2
     2     2     3    1
     3     2     4    1
     4     4     5    2
     5     5     6    1
     6     6     7    2
     7     7     8    1
     8     8     9    2
     9     9    10    1
    10    11    10    1
    11    11    12    1
    12    12    13    1
    13    13    14    1
    14    14    15    1
    15    15    16    2
    16    15    17    1
    17    14    18    1
    18     9     4    1
    19    18    11    1
@<TRIPOS>SUBSTRUCTURE
     1 RES1        1 GROUP             0 ****  ****    0  
@<TRIPOS>MOLECULE
ligand_97
    18    19     1     0     0
SMALL
USER_CHARGES
****
Generated from the CSD

@<TRIPOS>ATOM
     1 O1      -5.6066  39.0325 -18.3548   O.co2     1 RES1   0.0000
     2 C2      -5.4355  39.3437 -17.1568   C.2       1 RES1   0.0000
     3 O3      -6.4207  39.7624 -16.5107   O.co2     1 RES1  -1.0000
     4 C4      -4.0855  39.2373 -16.4708   C.2       1 RES1   0.0000
     5 C5      -3.6450  40.3480 -15.7105   C.2       1 RES1   0.0000
     6 C6      -2.4076  40.3395 -15.0438   C.2       1 RES1   0.0000
     7 C7      -1.5787  39.2149 -15.1190   C.2       1 RES1   0.0000
     8 C8      -1.9924  38.1014 -15.8674   C.2       1 RES1   0.0000
     9 C9      -3.2382  38.0867 -16.5506   C.2       1 RES1   0.0000
    10 O10     -3.6520  36.9936 -17.2906   O.3       1 RES1   0.0000
    11 C11     -4.9097  36.3649 -17.0534   C.3       1 RES1   0.0000
    12 C12     -5.6191  36.0159 -18.3449   C.3       1 RES1   0.0000
    13 N13     -5.0404  34.7028 -18.7558   N.2       1 RES1   1.0000
    14 C14     -4.4719  34.0198 -17.5423   C.3       1 RES1   0.0000
    15 C15     -5.1967  32.6899 -17.2762   C.2       1 RES1   0.0000
    16 O16     -6.1896  32.3972 -17.9738   O.co2     1 RES1   0.0000
    17 O17     -4.7634  31.9478 -16.3670   O.co2     1 RES1  -1.0000
    18 C18     -4.6841  35.0181 -16.4076   C.3       1 RES1   0.0000
@<TRIPOS>BOND
     1     1     2    2
     2     2     3    1
     3     2     4    1
     4     4     5    2
     5     5     6    1
     6     6     7    2
     7     7     8    1
     8     8     9    2
     9     9    10    1
    10    11    10    1
    11    11    12    1
    12    12    13    1
    13    13    14    1
    14    14    15    1
    15    15    16    2
    16    15    17    1
    17    14    18    1
    18     9     4    1
    19    18    11    1
@<TRIPOS>SUBSTRUCTURE
     1 RES1        1 GROUP             0 ****  ****    0  
@<TRIPOS>MOLECULE
ligand_98
    18    19     1     0     0
SMALL
USER_CHARGES
****
Generated from the CSD

@<TRIPOS>ATOM
     1 O1      -7.8592  35.6928 -24.0677   O.co2     1 RES1   0.0000
     2 C2      -7.0975  35.6577 -23.0779   C.2       1 RES1   0.0000
     3 O3      -7.6096  35.7137 -21.9386   O.co2     1 RES1  -1.0000
     4 C4      -5.5887  35.5572 -23.2123   C.2       1 RES1   0.0000
     5 C5      -5.0476  35.5003 -24.5198   C.2       1 RES1   0.0000
     6 C6      -3.6627  35.4033 -24.7397   C.2       1 RES1   0.0000
     7 C7      -2.7817  35.3635 -23.6535   C.2       1 RES1   0.0000
     8 C8      -3.2936  35.4173 -22.3473   C.2       1 RES1   0.0000
     9 C9      -4.6894  35.5146 -22.0998   C.2       1 RES1   0.0000
    10 O10     -5.2011  35.5672 -20.8156   O.3       1 RES1   0.0000
    11 C11     -4.8153  34.6228 -19.8194   C.3       1 RES1   0.0000
    12 C12     -3.3380  34.5561 -19.5194   C.3       1 RES1   0.0000
    13 N13     -3.2242  33.8126 -18.2581   N.2       1 RES1   1.0000
    14 C14     -4.5260  33.9954 -17.5216   C.3       1 RES1   0.0000
    15 C15     -5.2082  32.6362 -17.2935   C.2       1 RES1   0.0000
    16 O16     -6.1606  32.3110 -18.0319   O.co2     1 RES1   0.0000
    17 O17     -4.7823  31.9039 -16.3729   O.co2     1 RES1  -1.0000
    18 C18     -5.3382  34.9433 -18.4118   C.3       1 RES1   0.0000
@<TRIPOS>BOND
     1     1     2    2
     2     2     3    1
     3     2     4    1
     4     4     5    2
     5     5     6    1
     6     6     7    2
     7     7     8    1
     8     8     9    2
     9     9    10    1
    10    11    10    1
    11    11    12    1
    12    12    13    1
    13    13    14    1
    14    14    15    1
    15    15    16    2
    16    15    17    1
    17    14    18    1
    18     9     4    1
    19    18    11    1
@<TRIPOS>SUBSTRUCTURE
     1 RES1        1 GROUP             0 ****  ****    0  
@<TRIPOS>MOLECULE
ligand_99
    18    19     1     0     0
SMALL
USER_CHARGES
****
Generated from the CSD

@<TRIPOS>ATOM
     1 O1      -2.6742  38.1324 -11.7220   O.co2     1 RES1   0.0000
     2 C2      -3.3195  37.6961 -12.6990   C.2       1 RES1   0.0000
     3 O3      -2.8129  37.8081 -13.8366   O.co2     1 RES1  -1.0000
     4 C4      -4.6846  37.0485 -12.5519   C.2       1 RES1   0.0000
     5 C5      -5.2257  36.9444 -11.2473   C.2       1 RES1   0.0000
     6 C6      -6.4815  36.3570 -11.0160   C.2       1 RES1   0.0000
     7 C7      -7.2309  35.8600 -12.0878   C.2       1 RES1   0.0000
     8 C8      -6.7158  35.9504 -13.3908   C.2       1 RES1   0.0000
     9 C9      -5.4487  36.5390 -13.6495   C.2       1 RES1   0.0000
    10 O10     -4.9344  36.6308 -14.9304   O.3       1 RES1   0.0000
    11 C11     -5.2068  35.6377 -15.9168   C.3       1 RES1   0.0000
    12 C12     -5.5228  36.1576 -17.2976   C.3       1 RES1   0.0000
    13 N13     -5.4100  34.9979 -18.1916   N.2       1 RES1   1.0000
    14 C14     -4.4670  34.0251 -17.5321   C.3       1 RES1   0.0000
    15 C15     -5.1801  32.6907 -17.2567   C.2       1 RES1   0.0000
    16 O16     -6.1728  32.3862 -17.9495   O.co2     1 RES1   0.0000
    17 O17     -4.7378  31.9569 -16.3451   O.co2     1 RES1  -1.0000
    18 C18     -4.0060  34.7441 -16.2589   C.3       1 RES1   0.0000
@<TRIPOS>BOND
     1     1     2    2
     2     2     3    1
     3     2     4    1
     4     4     5    2
     5     5     6    1
     6     6     7    2
     7     7     8    1
     8     8     9    2
     9     9    10    1
    10    11    10    1
    11    11    12    1
    12    12    13    1
    13    13    14    1
    14    14    15    1
    15    15    16    2
    16    15    17    1
    17    14    18    1
    18     9     4    1
    19    18    11    1
@<TRIPOS>SUBSTRUCTURE
     1 RES1        1 GROUP             0 ****  ****    0  
