@<TRIPOS>MOLECULE
native
    35    38     1     0     0
SMALL
NO_CHARGES
****
Generated from the CSD

@<TRIPOS>ATOM
     1 C1      23.6350   8.3050 -28.2510   C.3       1 RES1   0.0000
     2 O2      22.6880   9.4550 -28.1930   O.3       1 RES1   0.0000
     3 C3      21.6050   9.4460 -27.3380   C.2       1 RES1   0.0000
     4 C4      20.3870  10.1350 -27.5980   C.2       1 RES1   0.0000
     5 C5      19.3750  10.0510 -26.6430   C.2       1 RES1   0.0000
     6 C6      19.5320   9.2830 -25.4490   C.2       1 RES1   0.0000
     7 O7      18.5070   9.1920 -24.5330   O.3       1 RES1   0.0000
     8 C8      17.8440   7.8970 -24.4510   C.3       1 RES1   0.0000
     9 C9      20.7520   8.6120 -25.1680   C.2       1 RES1   0.0000
    10 C10     21.1100   7.7830 -24.0260   C.3       1 RES1   0.0000
    11 C11     21.6540   6.4610 -24.6000   C.3       1 RES1   0.0000
    12 C12     21.8010   5.2760 -23.6200   C.2       1 RES1   0.0000
    13 O13     22.0350   5.4540 -22.4490   O.2       1 RES1   0.0000
    14 N14     21.8290   4.1070 -24.2690   N.am      1 RES1   0.0000
    15 C15     21.9300   2.8750 -23.7200   C.2       1 RES1   0.0000
    16 C16     22.0530   2.5590 -22.3620   C.2       1 RES1   0.0000
    17 C17     22.2110   1.2280 -21.9120   C.2       1 RES1   0.0000
    18 C18     22.2910   0.9040 -20.5680   C.2       1 RES1   0.0000
    19 N19     21.8280   1.7400 -19.6000   N.2       1 RES1   0.0000
    20 C20     21.9490   1.1620 -18.4400   C.2       1 RES1   0.0000
    21 S21     21.4670   1.9360 -16.9310   S.3       1 RES1   0.0000
    22 C22     21.6990   0.6630 -15.7260   C.3       1 RES1   0.0000
    23 N23     22.4700  -0.0560 -18.6210   N.2       1 RES1   0.0000
    24 C24     22.6950  -0.2460 -19.9190   C.2       1 RES1   0.0000
    25 C25     23.2750  -1.4200 -20.3580   C.2       1 RES1   0.0000
    26 C26     24.4150  -1.4830 -21.1870   C.2       1 RES1   0.0000
    27 C27     25.0020  -2.7060 -21.5950   C.2       1 RES1   0.0000
    28 C28     24.4380  -3.9040 -21.1980   C.2       1 RES1   0.0000
    29 F29     24.9620  -5.1310 -21.6070   F         1 RES1   0.0000
    30 C30     23.2900  -3.8530 -20.3900   C.2       1 RES1   0.0000
    31 C31     22.7050  -2.6600 -19.9680   C.2       1 RES1   0.0000
    32 C32     22.1170   0.2360 -22.9060   C.2       1 RES1   0.0000
    33 C33     21.9640   0.5350 -24.2360   C.2       1 RES1   0.0000
    34 N34     21.8500   1.8860 -24.6550   N.2       1 RES1   0.0000
    35 C35     21.7460   8.7270 -26.1510   C.2       1 RES1   0.0000
@<TRIPOS>BOND
     1     1     2    1
     2     2     3    1
     3     3     4    2
     4     4     5    1
     5     5     6    2
     6     6     7    1
     7     7     8    1
     8     6     9    1
     9     9    10    1
    10    10    11    1
    11    11    12    1
    12    12    13    2
    13    12    14   am
    14    14    15    1
    15    15    16    2
    16    16    17    1
    17    17    18    1
    18    18    19    1
    19    19    20    2
    20    20    21    1
    21    21    22    1
    22    20    23    1
    23    23    24    1
    24    24    25    1
    25    25    26    2
    26    26    27    1
    27    27    28    2
    28    28    29    1
    29    28    30    1
    30    30    31    2
    31    17    32    2
    32    32    33    1
    33    33    34    2
    34     9    35    2
    35    35     3    1
    36    34    15    1
    37    24    18    2
    38    31    25    1
@<TRIPOS>SUBSTRUCTURE
     1 RES1        1 GROUP             0 ****  ****    0  
@<TRIPOS>MOLECULE
ligand_0
    35    38     1     0     0
SMALL
NO_CHARGES
****
Generated from the CSD

@<TRIPOS>ATOM
     1 C1      30.2874  -4.2570  -9.5116   C.3       1 RES1   0.0000
     2 O2      29.6475  -3.8067 -10.7807   O.3       1 RES1   0.0000
     3 C3      29.0340  -4.7053 -11.6293   C.2       1 RES1   0.0000
     4 C4      28.9581  -6.1042 -11.3782   C.2       1 RES1   0.0000
     5 C5      28.3179  -6.9018 -12.3255   C.2       1 RES1   0.0000
     6 C6      27.7318  -6.3444 -13.5027   C.2       1 RES1   0.0000
     7 O7      27.0796  -7.1494 -14.4108   O.3       1 RES1   0.0000
     8 C8      27.0167  -8.5651 -14.0715   C.3       1 RES1   0.0000
     9 C9      27.8235  -4.9534 -13.7752   C.2       1 RES1   0.0000
    10 C10     27.2962  -4.1945 -14.9002   C.3       1 RES1   0.0000
    11 C11     25.7973  -3.9795 -14.6173   C.3       1 RES1   0.0000
    12 C12     24.9884  -3.1905 -15.6706   C.2       1 RES1   0.0000
    13 O13     25.5098  -2.7616 -16.6716   O.2       1 RES1   0.0000
    14 N14     23.7591  -2.9052 -15.2282   N.am      1 RES1   0.0000
    15 C15     22.8538  -2.0886 -15.8139   C.2       1 RES1   0.0000
    16 C16     22.9830  -1.4159 -17.0345   C.2       1 RES1   0.0000
    17 C17     21.9855  -0.5379 -17.5173   C.2       1 RES1   0.0000
    18 C18     22.0874   0.0982 -18.7432   C.2       1 RES1   0.0000
    19 N19     21.6666   1.3790 -18.9237   N.2       1 RES1   0.0000
    20 C20     21.9516   1.7575 -20.1360   C.2       1 RES1   0.0000
    21 S21     21.5515   3.3584 -20.7570   S.3       1 RES1   0.0000
    22 C22     22.1590   3.3167 -22.4171   C.3       1 RES1   0.0000
    23 N23     22.5732   0.7533 -20.7629   N.2       1 RES1   0.0000
    24 C24     22.6708  -0.2842 -19.9349   C.2       1 RES1   0.0000
    25 C25     23.2398  -1.4660 -20.3676   C.2       1 RES1   0.0000
    26 C26     24.3722  -1.5439 -21.2058   C.2       1 RES1   0.0000
    27 C27     24.9481  -2.7744 -21.6071   C.2       1 RES1   0.0000
    28 C28     24.3802  -3.9650 -21.1938   C.2       1 RES1   0.0000
    29 F29     24.8931  -5.1991 -21.5955   F         1 RES1   0.0000
    30 C30     23.2396  -3.8992 -20.3765   C.2       1 RES1   0.0000
    31 C31     22.6656  -2.6986 -19.9609   C.2       1 RES1   0.0000
    32 C32     20.8070  -0.4776 -16.7503   C.2       1 RES1   0.0000
    33 C33     20.6587  -1.1587 -15.5689   C.2       1 RES1   0.0000
    34 N34     21.6990  -1.9994 -15.0947   N.2       1 RES1   0.0000
    35 C35     28.4805  -4.1880 -12.8005   C.2       1 RES1   0.0000
@<TRIPOS>BOND
     1     1     2    1
     2     2     3    1
     3     3     4    2
     4     4     5    1
     5     5     6    2
     6     6     7    1
     7     7     8    1
     8     6     9    1
     9     9    10    1
    10    10    11    1
    11    11    12    1
    12    12    13    2
    13    12    14   am
    14    14    15    1
    15    15    16    2
    16    16    17    1
    17    17    18    1
    18    18    19    1
    19    19    20    2
    20    20    21    1
    21    21    22    1
    22    20    23    1
    23    23    24    1
    24    24    25    1
    25    25    26    2
    26    26    27    1
    27    27    28    2
    28    28    29    1
    29    28    30    1
    30    30    31    2
    31    17    32    2
    32    32    33    1
    33    33    34    2
    34     9    35    2
    35    35     3    1
    36    34    15    1
    37    24    18    2
    38    31    25    1
@<TRIPOS>SUBSTRUCTURE
     1 RES1        1 GROUP             0 ****  ****    0  
@<TRIPOS>MOLECULE
ligand_1
    35    38     1     0     0
SMALL
NO_CHARGES
****
Generated from the CSD

@<TRIPOS>ATOM
     1 C1      29.6918  -2.3510 -11.0994   C.3       1 RES1   0.0000
     2 O2      29.6475  -3.8067 -10.7807   O.3       1 RES1   0.0000
     3 C3      29.0340  -4.7053 -11.6293   C.2       1 RES1   0.0000
     4 C4      28.9581  -6.1042 -11.3782   C.2       1 RES1   0.0000
     5 C5      28.3179  -6.9018 -12.3254   C.2       1 RES1   0.0000
     6 C6      27.7318  -6.3444 -13.5027   C.2       1 RES1   0.0000
     7 O7      27.0796  -7.1494 -14.4108   O.3       1 RES1   0.0000
     8 C8      27.0167  -8.5651 -14.0715   C.3       1 RES1   0.0000
     9 C9      27.8235  -4.9534 -13.7752   C.2       1 RES1   0.0000
    10 C10     27.2962  -4.1945 -14.9002   C.3       1 RES1   0.0000
    11 C11     25.7973  -3.9795 -14.6173   C.3       1 RES1   0.0000
    12 C12     24.9884  -3.1905 -15.6706   C.2       1 RES1   0.0000
    13 O13     25.5098  -2.7616 -16.6716   O.2       1 RES1   0.0000
    14 N14     23.7591  -2.9052 -15.2282   N.am      1 RES1   0.0000
    15 C15     22.8538  -2.0886 -15.8139   C.2       1 RES1   0.0000
    16 C16     22.9830  -1.4159 -17.0345   C.2       1 RES1   0.0000
    17 C17     21.9855  -0.5379 -17.5173   C.2       1 RES1   0.0000
    18 C18     22.0874   0.0982 -18.7432   C.2       1 RES1   0.0000
    19 N19     21.6666   1.3790 -18.9237   N.2       1 RES1   0.0000
    20 C20     21.9516   1.7575 -20.1360   C.2       1 RES1   0.0000
    21 S21     21.5515   3.3584 -20.7571   S.3       1 RES1   0.0000
    22 C22     22.1590   3.3167 -22.4171   C.3       1 RES1   0.0000
    23 N23     22.5732   0.7533 -20.7629   N.2       1 RES1   0.0000
    24 C24     22.6708  -0.2842 -19.9350   C.2       1 RES1   0.0000
    25 C25     23.2398  -1.4660 -20.3676   C.2       1 RES1   0.0000
    26 C26     24.3722  -1.5440 -21.2058   C.2       1 RES1   0.0000
    27 C27     24.9481  -2.7744 -21.6071   C.2       1 RES1   0.0000
    28 C28     24.3802  -3.9650 -21.1938   C.2       1 RES1   0.0000
    29 F29     24.8931  -5.1991 -21.5955   F         1 RES1   0.0000
    30 C30     23.2396  -3.8992 -20.3765   C.2       1 RES1   0.0000
    31 C31     22.6656  -2.6986 -19.9609   C.2       1 RES1   0.0000
    32 C32     20.8070  -0.4776 -16.7503   C.2       1 RES1   0.0000
    33 C33     20.6587  -1.1587 -15.5689   C.2       1 RES1   0.0000
    34 N34     21.6990  -1.9994 -15.0947   N.2       1 RES1   0.0000
    35 C35     28.4805  -4.1880 -12.8005   C.2       1 RES1   0.0000
@<TRIPOS>BOND
     1     1     2    1
     2     2     3    1
     3     3     4    2
     4     4     5    1
     5     5     6    2
     6     6     7    1
     7     7     8    1
     8     6     9    1
     9     9    10    1
    10    10    11    1
    11    11    12    1
    12    12    13    2
    13    12    14   am
    14    14    15    1
    15    15    16    2
    16    16    17    1
    17    17    18    1
    18    18    19    1
    19    19    20    2
    20    20    21    1
    21    21    22    1
    22    20    23    1
    23    23    24    1
    24    24    25    1
    25    25    26    2
    26    26    27    1
    27    27    28    2
    28    28    29    1
    29    28    30    1
    30    30    31    2
    31    17    32    2
    32    32    33    1
    33    33    34    2
    34     9    35    2
    35    35     3    1
    36    34    15    1
    37    24    18    2
    38    31    25    1
@<TRIPOS>SUBSTRUCTURE
     1 RES1        1 GROUP             0 ****  ****    0  
@<TRIPOS>MOLECULE
ligand_2
    35    38     1     0     0
SMALL
NO_CHARGES
****
Generated from the CSD

@<TRIPOS>ATOM
     1 C1      29.2419  -9.5754 -12.6095   C.3       1 RES1   0.0000
     2 O2      28.7078  -8.5261 -13.5240   O.3       1 RES1   0.0000
     3 C3      28.5650  -7.2191 -13.1053   C.2       1 RES1   0.0000
     4 C4      28.9047  -6.7659 -11.7995   C.2       1 RES1   0.0000
     5 C5      28.6998  -5.4190 -11.5042   C.2       1 RES1   0.0000
     6 C6      28.1889  -4.5068 -12.4773   C.2       1 RES1   0.0000
     7 O7      28.0216  -3.1742 -12.1706   O.3       1 RES1   0.0000
     8 C8      28.4185  -2.7792 -10.8253   C.3       1 RES1   0.0000
     9 C9      27.8235  -4.9534 -13.7752   C.2       1 RES1   0.0000
    10 C10     27.2962  -4.1945 -14.9002   C.3       1 RES1   0.0000
    11 C11     25.7973  -3.9795 -14.6173   C.3       1 RES1   0.0000
    12 C12     24.9884  -3.1905 -15.6706   C.2       1 RES1   0.0000
    13 O13     25.5098  -2.7616 -16.6716   O.2       1 RES1   0.0000
    14 N14     23.7591  -2.9052 -15.2282   N.am      1 RES1   0.0000
    15 C15     22.8538  -2.0886 -15.8139   C.2       1 RES1   0.0000
    16 C16     22.9830  -1.4159 -17.0345   C.2       1 RES1   0.0000
    17 C17     21.9855  -0.5379 -17.5173   C.2       1 RES1   0.0000
    18 C18     22.0874   0.0982 -18.7432   C.2       1 RES1   0.0000
    19 N19     21.6666   1.3790 -18.9237   N.2       1 RES1   0.0000
    20 C20     21.9516   1.7575 -20.1360   C.2       1 RES1   0.0000
    21 S21     21.5515   3.3584 -20.7570   S.3       1 RES1   0.0000
    22 C22     22.1590   3.3167 -22.4171   C.3       1 RES1   0.0000
    23 N23     22.5732   0.7533 -20.7629   N.2       1 RES1   0.0000
    24 C24     22.6708  -0.2842 -19.9349   C.2       1 RES1   0.0000
    25 C25     23.2398  -1.4660 -20.3676   C.2       1 RES1   0.0000
    26 C26     24.3722  -1.5439 -21.2058   C.2       1 RES1   0.0000
    27 C27     24.9481  -2.7744 -21.6071   C.2       1 RES1   0.0000
    28 C28     24.3802  -3.9650 -21.1938   C.2       1 RES1   0.0000
    29 F29     24.8931  -5.1991 -21.5955   F         1 RES1   0.0000
    30 C30     23.2396  -3.8992 -20.3765   C.2       1 RES1   0.0000
    31 C31     22.6656  -2.6986 -19.9609   C.2       1 RES1   0.0000
    32 C32     20.8070  -0.4776 -16.7503   C.2       1 RES1   0.0000
    33 C33     20.6587  -1.1587 -15.5689   C.2       1 RES1   0.0000
    34 N34     21.6990  -1.9994 -15.0947   N.2       1 RES1   0.0000
    35 C35     28.0394  -6.3159 -14.0293   C.2       1 RES1   0.0000
@<TRIPOS>BOND
     1     1     2    1
     2     2     3    1
     3     3     4    2
     4     4     5    1
     5     5     6    2
     6     6     7    1
     7     7     8    1
     8     6     9    1
     9     9    10    1
    10    10    11    1
    11    11    12    1
    12    12    13    2
    13    12    14   am
    14    14    15    1
    15    15    16    2
    16    16    17    1
    17    17    18    1
    18    18    19    1
    19    19    20    2
    20    20    21    1
    21    21    22    1
    22    20    23    1
    23    23    24    1
    24    24    25    1
    25    25    26    2
    26    26    27    1
    27    27    28    2
    28    28    29    1
    29    28    30    1
    30    30    31    2
    31    17    32    2
    32    32    33    1
    33    33    34    2
    34     9    35    2
    35    35     3    1
    36    34    15    1
    37    24    18    2
    38    31    25    1
@<TRIPOS>SUBSTRUCTURE
     1 RES1        1 GROUP             0 ****  ****    0  
@<TRIPOS>MOLECULE
ligand_3
    35    38     1     0     0
SMALL
NO_CHARGES
****
Generated from the CSD

@<TRIPOS>ATOM
     1 C1      28.3355  -8.9383 -14.9075   C.3       1 RES1   0.0000
     2 O2      28.7078  -8.5261 -13.5240   O.3       1 RES1   0.0000
     3 C3      28.5650  -7.2191 -13.1053   C.2       1 RES1   0.0000
     4 C4      28.9047  -6.7659 -11.7995   C.2       1 RES1   0.0000
     5 C5      28.6998  -5.4190 -11.5042   C.2       1 RES1   0.0000
     6 C6      28.1889  -4.5068 -12.4773   C.2       1 RES1   0.0000
     7 O7      28.0216  -3.1742 -12.1706   O.3       1 RES1   0.0000
     8 C8      28.4185  -2.7792 -10.8253   C.3       1 RES1   0.0000
     9 C9      27.8235  -4.9534 -13.7752   C.2       1 RES1   0.0000
    10 C10     27.2962  -4.1945 -14.9002   C.3       1 RES1   0.0000
    11 C11     25.7973  -3.9795 -14.6173   C.3       1 RES1   0.0000
    12 C12     24.9884  -3.1905 -15.6706   C.2       1 RES1   0.0000
    13 O13     25.5098  -2.7616 -16.6716   O.2       1 RES1   0.0000
    14 N14     23.7591  -2.9052 -15.2282   N.am      1 RES1   0.0000
    15 C15     22.8538  -2.0886 -15.8139   C.2       1 RES1   0.0000
    16 C16     22.9830  -1.4159 -17.0345   C.2       1 RES1   0.0000
    17 C17     21.9855  -0.5379 -17.5173   C.2       1 RES1   0.0000
    18 C18     22.0874   0.0982 -18.7432   C.2       1 RES1   0.0000
    19 N19     21.6666   1.3790 -18.9237   N.2       1 RES1   0.0000
    20 C20     21.9516   1.7575 -20.1360   C.2       1 RES1   0.0000
    21 S21     21.5515   3.3584 -20.7571   S.3       1 RES1   0.0000
    22 C22     22.1590   3.3167 -22.4171   C.3       1 RES1   0.0000
    23 N23     22.5732   0.7533 -20.7629   N.2       1 RES1   0.0000
    24 C24     22.6708  -0.2842 -19.9350   C.2       1 RES1   0.0000
    25 C25     23.2398  -1.4660 -20.3676   C.2       1 RES1   0.0000
    26 C26     24.3722  -1.5440 -21.2058   C.2       1 RES1   0.0000
    27 C27     24.9481  -2.7744 -21.6071   C.2       1 RES1   0.0000
    28 C28     24.3802  -3.9650 -21.1938   C.2       1 RES1   0.0000
    29 F29     24.8931  -5.1991 -21.5955   F         1 RES1   0.0000
    30 C30     23.2396  -3.8992 -20.3765   C.2       1 RES1   0.0000
    31 C31     22.6656  -2.6986 -19.9609   C.2       1 RES1   0.0000
    32 C32     20.8070  -0.4776 -16.7503   C.2       1 RES1   0.0000
    33 C33     20.6587  -1.1587 -15.5689   C.2       1 RES1   0.0000
    34 N34     21.6990  -1.9994 -15.0947   N.2       1 RES1   0.0000
    35 C35     28.0394  -6.3159 -14.0293   C.2       1 RES1   0.0000
@<TRIPOS>BOND
     1     1     2    1
     2     2     3    1
     3     3     4    2
     4     4     5    1
     5     5     6    2
     6     6     7    1
     7     7     8    1
     8     6     9    1
     9     9    10    1
    10    10    11    1
    11    11    12    1
    12    12    13    2
    13    12    14   am
    14    14    15    1
    15    15    16    2
    16    16    17    1
    17    17    18    1
    18    18    19    1
    19    19    20    2
    20    20    21    1
    21    21    22    1
    22    20    23    1
    23    23    24    1
    24    24    25    1
    25    25    26    2
    26    26    27    1
    27    27    28    2
    28    28    29    1
    29    28    30    1
    30    30    31    2
    31    17    32    2
    32    32    33    1
    33    33    34    2
    34     9    35    2
    35    35     3    1
    36    34    15    1
    37    24    18    2
    38    31    25    1
@<TRIPOS>SUBSTRUCTURE
     1 RES1        1 GROUP             0 ****  ****    0  
@<TRIPOS>MOLECULE
ligand_4
    35    38     1     0     0
SMALL
NO_CHARGES
****
Generated from the CSD

@<TRIPOS>ATOM
     1 C1      12.4186  -4.4159 -11.1871   C.3       1 RES1   0.0000
     2 O2      13.2587  -3.6698 -12.1670   O.3       1 RES1   0.0000
     3 C3      13.9158  -2.5108 -11.8078   C.2       1 RES1   0.0000
     4 C4      13.8535  -1.9378 -10.5064   C.2       1 RES1   0.0000
     5 C5      14.5579  -0.7562 -10.2811   C.2       1 RES1   0.0000
     6 C6      15.3401  -0.1419 -11.3062   C.2       1 RES1   0.0000
     7 O7      16.0505   1.0107 -11.0515   O.3       1 RES1   0.0000
     8 C8      15.9620   1.5214  -9.6897   C.3       1 RES1   0.0000
     9 C9      15.3892  -0.6916 -12.6150   C.2       1 RES1   0.0000
    10 C10     16.1209  -0.2292 -13.7857   C.3       1 RES1   0.0000
    11 C11     17.5782  -0.6931 -13.6007   C.3       1 RES1   0.0000
    12 C12     18.5803  -0.3274 -14.7180   C.2       1 RES1   0.0000
    13 O13     18.2349   0.2951 -15.6932   O.2       1 RES1   0.0000
    14 N14     19.7544  -0.9424 -14.5405   N.am      1 RES1   0.0000
    15 C15     20.7893  -0.9847 -15.4104   C.2       1 RES1   0.0000
    16 C16     20.8794  -0.3469 -16.6530   C.2       1 RES1   0.0000
    17 C17     21.9957  -0.5152 -17.5043   C.2       1 RES1   0.0000
    18 C18     22.1108   0.1455 -18.7159   C.2       1 RES1   0.0000
    19 N19     21.6954   1.4311 -18.8740   N.2       1 RES1   0.0000
    20 C20     21.9926   1.8333 -20.0758   C.2       1 RES1   0.0000
    21 S21     21.6030   3.4478 -20.6675   S.3       1 RES1   0.0000
    22 C22     22.2255   3.4382 -22.3224   C.3       1 RES1   0.0000
    23 N23     22.6170   0.8402 -20.7173   N.2       1 RES1   0.0000
    24 C24     22.7039  -0.2143 -19.9099   C.2       1 RES1   0.0000
    25 C25     23.2734  -1.3888 -20.3615   C.2       1 RES1   0.0000
    26 C26     24.4131  -1.4532 -21.1907   C.2       1 RES1   0.0000
    27 C27     24.9891  -2.6770 -21.6118   C.2       1 RES1   0.0000
    28 C28     24.4139  -3.8740 -21.2281   C.2       1 RES1   0.0000
    29 F29     24.9268  -5.1012 -21.6503   F         1 RES1   0.0000
    30 C30     23.2660  -3.8213 -20.4200   C.2       1 RES1   0.0000
    31 C31     22.6918  -2.6277 -19.9853   C.2       1 RES1   0.0000
    32 C32     23.0584  -1.2677 -16.9702   C.2       1 RES1   0.0000
    33 C33     22.9919  -1.8699 -15.7395   C.2       1 RES1   0.0000
    34 N34     21.8373  -1.7123 -14.9296   N.2       1 RES1   0.0000
    35 C35     14.6620  -1.8765 -12.8011   C.2       1 RES1   0.0000
@<TRIPOS>BOND
     1     1     2    1
     2     2     3    1
     3     3     4    2
     4     4     5    1
     5     5     6    2
     6     6     7    1
     7     7     8    1
     8     6     9    1
     9     9    10    1
    10    10    11    1
    11    11    12    1
    12    12    13    2
    13    12    14   am
    14    14    15    1
    15    15    16    2
    16    16    17    1
    17    17    18    1
    18    18    19    1
    19    19    20    2
    20    20    21    1
    21    21    22    1
    22    20    23    1
    23    23    24    1
    24    24    25    1
    25    25    26    2
    26    26    27    1
    27    27    28    2
    28    28    29    1
    29    28    30    1
    30    30    31    2
    31    17    32    2
    32    32    33    1
    33    33    34    2
    34     9    35    2
    35    35     3    1
    36    34    15    1
    37    24    18    2
    38    31    25    1
@<TRIPOS>SUBSTRUCTURE
     1 RES1        1 GROUP             0 ****  ****    0  
@<TRIPOS>MOLECULE
ligand_5
    35    38     1     0     0
SMALL
NO_CHARGES
****
Generated from the CSD

@<TRIPOS>ATOM
     1 C1      13.3657  -4.2212 -13.5480   C.3       1 RES1   0.0000
     2 O2      13.2587  -3.6698 -12.1670   O.3       1 RES1   0.0000
     3 C3      13.9158  -2.5108 -11.8078   C.2       1 RES1   0.0000
     4 C4      13.8535  -1.9378 -10.5064   C.2       1 RES1   0.0000
     5 C5      14.5579  -0.7562 -10.2811   C.2       1 RES1   0.0000
     6 C6      15.3401  -0.1419 -11.3062   C.2       1 RES1   0.0000
     7 O7      16.0505   1.0107 -11.0515   O.3       1 RES1   0.0000
     8 C8      15.9620   1.5214  -9.6897   C.3       1 RES1   0.0000
     9 C9      15.3892  -0.6916 -12.6150   C.2       1 RES1   0.0000
    10 C10     16.1209  -0.2292 -13.7857   C.3       1 RES1   0.0000
    11 C11     17.5782  -0.6932 -13.6007   C.3       1 RES1   0.0000
    12 C12     18.5803  -0.3274 -14.7180   C.2       1 RES1   0.0000
    13 O13     18.2349   0.2951 -15.6932   O.2       1 RES1   0.0000
    14 N14     19.7544  -0.9424 -14.5405   N.am      1 RES1   0.0000
    15 C15     20.7893  -0.9847 -15.4104   C.2       1 RES1   0.0000
    16 C16     20.8795  -0.3469 -16.6530   C.2       1 RES1   0.0000
    17 C17     21.9957  -0.5152 -17.5043   C.2       1 RES1   0.0000
    18 C18     22.1108   0.1455 -18.7159   C.2       1 RES1   0.0000
    19 N19     21.6954   1.4311 -18.8740   N.2       1 RES1   0.0000
    20 C20     21.9926   1.8333 -20.0757   C.2       1 RES1   0.0000
    21 S21     21.6030   3.4478 -20.6675   S.3       1 RES1   0.0000
    22 C22     22.2255   3.4382 -22.3224   C.3       1 RES1   0.0000
    23 N23     22.6170   0.8402 -20.7173   N.2       1 RES1   0.0000
    24 C24     22.7039  -0.2143 -19.9099   C.2       1 RES1   0.0000
    25 C25     23.2734  -1.3887 -20.3615   C.2       1 RES1   0.0000
    26 C26     24.4131  -1.4532 -21.1907   C.2       1 RES1   0.0000
    27 C27     24.9891  -2.6770 -21.6118   C.2       1 RES1   0.0000
    28 C28     24.4139  -3.8740 -21.2281   C.2       1 RES1   0.0000
    29 F29     24.9268  -5.1012 -21.6503   F         1 RES1   0.0000
    30 C30     23.2660  -3.8213 -20.4200   C.2       1 RES1   0.0000
    31 C31     22.6918  -2.6276 -19.9853   C.2       1 RES1   0.0000
    32 C32     23.0584  -1.2678 -16.9702   C.2       1 RES1   0.0000
    33 C33     22.9919  -1.8699 -15.7395   C.2       1 RES1   0.0000
    34 N34     21.8373  -1.7123 -14.9296   N.2       1 RES1   0.0000
    35 C35     14.6620  -1.8765 -12.8012   C.2       1 RES1   0.0000
@<TRIPOS>BOND
     1     1     2    1
     2     2     3    1
     3     3     4    2
     4     4     5    1
     5     5     6    2
     6     6     7    1
     7     7     8    1
     8     6     9    1
     9     9    10    1
    10    10    11    1
    11    11    12    1
    12    12    13    2
    13    12    14   am
    14    14    15    1
    15    15    16    2
    16    16    17    1
    17    17    18    1
    18    18    19    1
    19    19    20    2
    20    20    21    1
    21    21    22    1
    22    20    23    1
    23    23    24    1
    24    24    25    1
    25    25    26    2
    26    26    27    1
    27    27    28    2
    28    28    29    1
    29    28    30    1
    30    30    31    2
    31    17    32    2
    32    32    33    1
    33    33    34    2
    34     9    35    2
    35    35     3    1
    36    34    15    1
    37    24    18    2
    38    31    25    1
@<TRIPOS>SUBSTRUCTURE
     1 RES1        1 GROUP             0 ****  ****    0  
@<TRIPOS>MOLECULE
ligand_6
    35    38     1     0     0
SMALL
NO_CHARGES
****
Generated from the CSD

@<TRIPOS>ATOM
     1 C1      13.4882   1.0470  -8.3609   C.3       1 RES1   0.0000
     2 O2      14.2189   1.1723  -9.6544   O.3       1 RES1   0.0000
     3 C3      14.3981   0.0828 -10.4819   C.2       1 RES1   0.0000
     4 C4      13.9158  -1.2229 -10.1851   C.2       1 RES1   0.0000
     5 C5      14.1762  -2.2377 -11.1048   C.2       1 RES1   0.0000
     6 C6      14.8820  -1.9853 -12.3206   C.2       1 RES1   0.0000
     7 O7      15.1028  -2.9987 -13.2275   O.3       1 RES1   0.0000
     8 C8      14.5542  -4.3001 -12.8689   C.3       1 RES1   0.0000
     9 C9      15.3892  -0.6916 -12.6150   C.2       1 RES1   0.0000
    10 C10     16.1209  -0.2292 -13.7857   C.3       1 RES1   0.0000
    11 C11     17.5782  -0.6931 -13.6007   C.3       1 RES1   0.0000
    12 C12     18.5803  -0.3274 -14.7180   C.2       1 RES1   0.0000
    13 O13     18.2349   0.2951 -15.6932   O.2       1 RES1   0.0000
    14 N14     19.7544  -0.9424 -14.5405   N.am      1 RES1   0.0000
    15 C15     20.7893  -0.9847 -15.4104   C.2       1 RES1   0.0000
    16 C16     20.8794  -0.3469 -16.6530   C.2       1 RES1   0.0000
    17 C17     21.9957  -0.5152 -17.5043   C.2       1 RES1   0.0000
    18 C18     22.1108   0.1455 -18.7159   C.2       1 RES1   0.0000
    19 N19     21.6954   1.4311 -18.8740   N.2       1 RES1   0.0000
    20 C20     21.9926   1.8333 -20.0758   C.2       1 RES1   0.0000
    21 S21     21.6030   3.4478 -20.6675   S.3       1 RES1   0.0000
    22 C22     22.2255   3.4382 -22.3224   C.3       1 RES1   0.0000
    23 N23     22.6170   0.8402 -20.7173   N.2       1 RES1   0.0000
    24 C24     22.7039  -0.2143 -19.9099   C.2       1 RES1   0.0000
    25 C25     23.2734  -1.3888 -20.3615   C.2       1 RES1   0.0000
    26 C26     24.4131  -1.4532 -21.1907   C.2       1 RES1   0.0000
    27 C27     24.9891  -2.6770 -21.6118   C.2       1 RES1   0.0000
    28 C28     24.4139  -3.8740 -21.2281   C.2       1 RES1   0.0000
    29 F29     24.9268  -5.1012 -21.6503   F         1 RES1   0.0000
    30 C30     23.2660  -3.8213 -20.4200   C.2       1 RES1   0.0000
    31 C31     22.6918  -2.6277 -19.9853   C.2       1 RES1   0.0000
    32 C32     23.0584  -1.2677 -16.9702   C.2       1 RES1   0.0000
    33 C33     22.9919  -1.8699 -15.7395   C.2       1 RES1   0.0000
    34 N34     21.8373  -1.7123 -14.9296   N.2       1 RES1   0.0000
    35 C35     15.1110   0.2987 -11.6614   C.2       1 RES1   0.0000
@<TRIPOS>BOND
     1     1     2    1
     2     2     3    1
     3     3     4    2
     4     4     5    1
     5     5     6    2
     6     6     7    1
     7     7     8    1
     8     6     9    1
     9     9    10    1
    10    10    11    1
    11    11    12    1
    12    12    13    2
    13    12    14   am
    14    14    15    1
    15    15    16    2
    16    16    17    1
    17    17    18    1
    18    18    19    1
    19    19    20    2
    20    20    21    1
    21    21    22    1
    22    20    23    1
    23    23    24    1
    24    24    25    1
    25    25    26    2
    26    26    27    1
    27    27    28    2
    28    28    29    1
    29    28    30    1
    30    30    31    2
    31    17    32    2
    32    32    33    1
    33    33    34    2
    34     9    35    2
    35    35     3    1
    36    34    15    1
    37    24    18    2
    38    31    25    1
@<TRIPOS>SUBSTRUCTURE
     1 RES1        1 GROUP             0 ****  ****    0  
@<TRIPOS>MOLECULE
ligand_7
    35    38     1     0     0
SMALL
NO_CHARGES
****
Generated from the CSD

@<TRIPOS>ATOM
     1 C1      14.7473   2.5168 -10.0232   C.3       1 RES1   0.0000
     2 O2      14.2189   1.1723  -9.6544   O.3       1 RES1   0.0000
     3 C3      14.3981   0.0828 -10.4819   C.2       1 RES1   0.0000
     4 C4      13.9158  -1.2230 -10.1852   C.2       1 RES1   0.0000
     5 C5      14.1762  -2.2377 -11.1048   C.2       1 RES1   0.0000
     6 C6      14.8820  -1.9853 -12.3206   C.2       1 RES1   0.0000
     7 O7      15.1028  -2.9987 -13.2275   O.3       1 RES1   0.0000
     8 C8      14.5542  -4.3001 -12.8689   C.3       1 RES1   0.0000
     9 C9      15.3892  -0.6916 -12.6150   C.2       1 RES1   0.0000
    10 C10     16.1209  -0.2292 -13.7857   C.3       1 RES1   0.0000
    11 C11     17.5782  -0.6932 -13.6007   C.3       1 RES1   0.0000
    12 C12     18.5803  -0.3274 -14.7180   C.2       1 RES1   0.0000
    13 O13     18.2349   0.2951 -15.6932   O.2       1 RES1   0.0000
    14 N14     19.7544  -0.9424 -14.5405   N.am      1 RES1   0.0000
    15 C15     20.7893  -0.9847 -15.4104   C.2       1 RES1   0.0000
    16 C16     20.8795  -0.3469 -16.6530   C.2       1 RES1   0.0000
    17 C17     21.9957  -0.5152 -17.5043   C.2       1 RES1   0.0000
    18 C18     22.1108   0.1455 -18.7159   C.2       1 RES1   0.0000
    19 N19     21.6954   1.4311 -18.8740   N.2       1 RES1   0.0000
    20 C20     21.9926   1.8333 -20.0757   C.2       1 RES1   0.0000
    21 S21     21.6030   3.4478 -20.6675   S.3       1 RES1   0.0000
    22 C22     22.2255   3.4382 -22.3224   C.3       1 RES1   0.0000
    23 N23     22.6170   0.8402 -20.7173   N.2       1 RES1   0.0000
    24 C24     22.7039  -0.2143 -19.9099   C.2       1 RES1   0.0000
    25 C25     23.2734  -1.3887 -20.3615   C.2       1 RES1   0.0000
    26 C26     24.4131  -1.4532 -21.1907   C.2       1 RES1   0.0000
    27 C27     24.9891  -2.6770 -21.6118   C.2       1 RES1   0.0000
    28 C28     24.4139  -3.8740 -21.2281   C.2       1 RES1   0.0000
    29 F29     24.9268  -5.1012 -21.6503   F         1 RES1   0.0000
    30 C30     23.2660  -3.8213 -20.4200   C.2       1 RES1   0.0000
    31 C31     22.6918  -2.6276 -19.9853   C.2       1 RES1   0.0000
    32 C32     23.0584  -1.2678 -16.9702   C.2       1 RES1   0.0000
    33 C33     22.9919  -1.8699 -15.7395   C.2       1 RES1   0.0000
    34 N34     21.8373  -1.7123 -14.9296   N.2       1 RES1   0.0000
    35 C35     15.1110   0.2987 -11.6614   C.2       1 RES1   0.0000
@<TRIPOS>BOND
     1     1     2    1
     2     2     3    1
     3     3     4    2
     4     4     5    1
     5     5     6    2
     6     6     7    1
     7     7     8    1
     8     6     9    1
     9     9    10    1
    10    10    11    1
    11    11    12    1
    12    12    13    2
    13    12    14   am
    14    14    15    1
    15    15    16    2
    16    16    17    1
    17    17    18    1
    18    18    19    1
    19    19    20    2
    20    20    21    1
    21    21    22    1
    22    20    23    1
    23    23    24    1
    24    24    25    1
    25    25    26    2
    26    26    27    1
    27    27    28    2
    28    28    29    1
    29    28    30    1
    30    30    31    2
    31    17    32    2
    32    32    33    1
    33    33    34    2
    34     9    35    2
    35    35     3    1
    36    34    15    1
    37    24    18    2
    38    31    25    1
@<TRIPOS>SUBSTRUCTURE
     1 RES1        1 GROUP             0 ****  ****    0  
@<TRIPOS>MOLECULE
ligand_8
    35    38     1     0     0
SMALL
NO_CHARGES
****
Generated from the CSD

@<TRIPOS>ATOM
     1 C1      35.0459  -3.2933 -23.1282   C.3       1 RES1   0.0000
     2 O2      33.6342  -3.1672 -22.6656   O.3       1 RES1   0.0000
     3 C3      33.3292  -3.0590 -21.3242   C.2       1 RES1   0.0000
     4 C4      34.3061  -3.0580 -20.2891   C.2       1 RES1   0.0000
     5 C5      33.8595  -2.9529 -18.9727   C.2       1 RES1   0.0000
     6 C6      32.4718  -2.8259 -18.6591   C.2       1 RES1   0.0000
     7 O7      32.0566  -2.6950 -17.3520   O.3       1 RES1   0.0000
     8 C8      33.1149  -2.6729 -16.3506   C.3       1 RES1   0.0000
     9 C9      31.4871  -2.8507 -19.6825   C.2       1 RES1   0.0000
    10 C10     30.0399  -2.7318 -19.5768   C.3       1 RES1   0.0000
    11 C11     29.7369  -1.2313 -19.4042   C.3       1 RES1   0.0000
    12 C12     28.2531  -0.8244 -19.2667   C.2       1 RES1   0.0000
    13 O13     27.3704  -1.6476 -19.2936   O.2       1 RES1   0.0000
    14 N14     28.1050   0.5039 -19.3163   N.am      1 RES1   0.0000
    15 C15     26.9420   1.1893 -19.4002   C.2       1 RES1   0.0000
    16 C16     25.6450   0.6631 -19.3950   C.2       1 RES1   0.0000
    17 C17     24.5021   1.4811 -19.5487   C.2       1 RES1   0.0000
    18 C18     23.2147   0.9730 -19.5024   C.2       1 RES1   0.0000
    19 N19     22.1616   1.7250 -19.0831   N.2       1 RES1   0.0000
    20 C20     21.0640   1.0380 -19.2158   C.2       1 RES1   0.0000
    21 S21     19.4805   1.6692 -18.7656   S.3       1 RES1   0.0000
    22 C22     18.3840   0.3374 -19.1534   C.3       1 RES1   0.0000
    23 N23     21.3668  -0.1564 -19.7348   N.2       1 RES1   0.0000
    24 C24     22.6826  -0.2305 -19.9211   C.2       1 RES1   0.0000
    25 C25     23.2498  -1.3910 -20.4100   C.2       1 RES1   0.0000
    26 C26     24.3457  -1.4284 -21.2979   C.2       1 RES1   0.0000
    27 C27     24.9220  -2.6383 -21.7570   C.2       1 RES1   0.0000
    28 C28     24.3904  -3.8485 -21.3523   C.2       1 RES1   0.0000
    29 F29     24.9037  -5.0630 -21.8093   F         1 RES1   0.0000
    30 C30     23.2855  -3.8228 -20.4852   C.2       1 RES1   0.0000
    31 C31     22.7123  -2.6431 -20.0127   C.2       1 RES1   0.0000
    32 C32     24.7479   2.8664 -19.5874   C.2       1 RES1   0.0000
    33 C33     26.0142   3.3931 -19.5604   C.2       1 RES1   0.0000
    34 N34     27.1405   2.5373 -19.4467   N.2       1 RES1   0.0000
    35 C35     31.9778  -2.9640 -20.9916   C.2       1 RES1   0.0000
@<TRIPOS>BOND
     1     1     2    1
     2     2     3    1
     3     3     4    2
     4     4     5    1
     5     5     6    2
     6     6     7    1
     7     7     8    1
     8     6     9    1
     9     9    10    1
    10    10    11    1
    11    11    12    1
    12    12    13    2
    13    12    14   am
    14    14    15    1
    15    15    16    2
    16    16    17    1
    17    17    18    1
    18    18    19    1
    19    19    20    2
    20    20    21    1
    21    21    22    1
    22    20    23    1
    23    23    24    1
    24    24    25    1
    25    25    26    2
    26    26    27    1
    27    27    28    2
    28    28    29    1
    29    28    30    1
    30    30    31    2
    31    17    32    2
    32    32    33    1
    33    33    34    2
    34     9    35    2
    35    35     3    1
    36    34    15    1
    37    24    18    2
    38    31    25    1
@<TRIPOS>SUBSTRUCTURE
     1 RES1        1 GROUP             0 ****  ****    0  
@<TRIPOS>MOLECULE
ligand_9
    35    38     1     0     0
SMALL
NO_CHARGES
****
Generated from the CSD

@<TRIPOS>ATOM
     1 C1      32.5640  -3.1601 -23.7034   C.3       1 RES1   0.0000
     2 O2      33.6342  -3.1672 -22.6656   O.3       1 RES1   0.0000
     3 C3      33.3292  -3.0590 -21.3242   C.2       1 RES1   0.0000
     4 C4      34.3061  -3.0580 -20.2891   C.2       1 RES1   0.0000
     5 C5      33.8595  -2.9529 -18.9727   C.2       1 RES1   0.0000
     6 C6      32.4718  -2.8259 -18.6591   C.2       1 RES1   0.0000
     7 O7      32.0566  -2.6950 -17.3520   O.3       1 RES1   0.0000
     8 C8      33.1149  -2.6729 -16.3506   C.3       1 RES1   0.0000
     9 C9      31.4871  -2.8507 -19.6825   C.2       1 RES1   0.0000
    10 C10     30.0399  -2.7318 -19.5768   C.3       1 RES1   0.0000
    11 C11     29.7369  -1.2313 -19.4042   C.3       1 RES1   0.0000
    12 C12     28.2531  -0.8244 -19.2667   C.2       1 RES1   0.0000
    13 O13     27.3704  -1.6476 -19.2936   O.2       1 RES1   0.0000
    14 N14     28.1050   0.5039 -19.3163   N.am      1 RES1   0.0000
    15 C15     26.9420   1.1893 -19.4002   C.2       1 RES1   0.0000
    16 C16     25.6450   0.6631 -19.3950   C.2       1 RES1   0.0000
    17 C17     24.5021   1.4811 -19.5487   C.2       1 RES1   0.0000
    18 C18     23.2147   0.9730 -19.5024   C.2       1 RES1   0.0000
    19 N19     22.1616   1.7250 -19.0831   N.2       1 RES1   0.0000
    20 C20     21.0640   1.0380 -19.2158   C.2       1 RES1   0.0000
    21 S21     19.4805   1.6692 -18.7656   S.3       1 RES1   0.0000
    22 C22     18.3840   0.3374 -19.1534   C.3       1 RES1   0.0000
    23 N23     21.3668  -0.1564 -19.7348   N.2       1 RES1   0.0000
    24 C24     22.6826  -0.2305 -19.9211   C.2       1 RES1   0.0000
    25 C25     23.2498  -1.3910 -20.4100   C.2       1 RES1   0.0000
    26 C26     24.3457  -1.4284 -21.2979   C.2       1 RES1   0.0000
    27 C27     24.9220  -2.6383 -21.7570   C.2       1 RES1   0.0000
    28 C28     24.3904  -3.8485 -21.3523   C.2       1 RES1   0.0000
    29 F29     24.9037  -5.0630 -21.8092   F         1 RES1   0.0000
    30 C30     23.2855  -3.8228 -20.4851   C.2       1 RES1   0.0000
    31 C31     22.7123  -2.6431 -20.0127   C.2       1 RES1   0.0000
    32 C32     24.7479   2.8664 -19.5874   C.2       1 RES1   0.0000
    33 C33     26.0142   3.3931 -19.5604   C.2       1 RES1   0.0000
    34 N34     27.1405   2.5373 -19.4467   N.2       1 RES1   0.0000
    35 C35     31.9778  -2.9640 -20.9916   C.2       1 RES1   0.0000
@<TRIPOS>BOND
     1     1     2    1
     2     2     3    1
     3     3     4    2
     4     4     5    1
     5     5     6    2
     6     6     7    1
     7     7     8    1
     8     6     9    1
     9     9    10    1
    10    10    11    1
    11    11    12    1
    12    12    13    2
    13    12    14   am
    14    14    15    1
    15    15    16    2
    16    16    17    1
    17    17    18    1
    18    18    19    1
    19    19    20    2
    20    20    21    1
    21    21    22    1
    22    20    23    1
    23    23    24    1
    24    24    25    1
    25    25    26    2
    26    26    27    1
    27    27    28    2
    28    28    29    1
    29    28    30    1
    30    30    31    2
    31    17    32    2
    32    32    33    1
    33    33    34    2
    34     9    35    2
    35    35     3    1
    36    34    15    1
    37    24    18    2
    38    31    25    1
@<TRIPOS>SUBSTRUCTURE
     1 RES1        1 GROUP             0 ****  ****    0  
@<TRIPOS>MOLECULE
ligand_10
    35    38     1     0     0
SMALL
NO_CHARGES
****
Generated from the CSD

@<TRIPOS>ATOM
     1 C1      35.4192  -4.2283 -16.9669   C.3       1 RES1   0.0000
     2 O2      33.9667  -3.9837 -17.1971   O.3       1 RES1   0.0000
     3 C3      33.5032  -3.5284 -18.4144   C.2       1 RES1   0.0000
     4 C4      34.3451  -3.2583 -19.5298   C.2       1 RES1   0.0000
     5 C5      33.7466  -2.7914 -20.6990   C.2       1 RES1   0.0000
     6 C6      32.3335  -2.6079 -20.7970   C.2       1 RES1   0.0000
     7 O7      31.7620  -2.1722 -21.9724   O.3       1 RES1   0.0000
     8 C8      32.6832  -1.9448 -23.0783   C.3       1 RES1   0.0000
     9 C9      31.4871  -2.8507 -19.6825   C.2       1 RES1   0.0000
    10 C10     30.0399  -2.7318 -19.5768   C.3       1 RES1   0.0000
    11 C11     29.7369  -1.2313 -19.4042   C.3       1 RES1   0.0000
    12 C12     28.2531  -0.8244 -19.2667   C.2       1 RES1   0.0000
    13 O13     27.3704  -1.6476 -19.2936   O.2       1 RES1   0.0000
    14 N14     28.1050   0.5039 -19.3163   N.am      1 RES1   0.0000
    15 C15     26.9420   1.1893 -19.4002   C.2       1 RES1   0.0000
    16 C16     25.6450   0.6631 -19.3950   C.2       1 RES1   0.0000
    17 C17     24.5021   1.4811 -19.5487   C.2       1 RES1   0.0000
    18 C18     23.2147   0.9730 -19.5024   C.2       1 RES1   0.0000
    19 N19     22.1616   1.7250 -19.0831   N.2       1 RES1   0.0000
    20 C20     21.0640   1.0380 -19.2158   C.2       1 RES1   0.0000
    21 S21     19.4805   1.6692 -18.7656   S.3       1 RES1   0.0000
    22 C22     18.3840   0.3374 -19.1534   C.3       1 RES1   0.0000
    23 N23     21.3668  -0.1564 -19.7348   N.2       1 RES1   0.0000
    24 C24     22.6826  -0.2305 -19.9211   C.2       1 RES1   0.0000
    25 C25     23.2498  -1.3910 -20.4100   C.2       1 RES1   0.0000
    26 C26     24.3457  -1.4284 -21.2979   C.2       1 RES1   0.0000
    27 C27     24.9220  -2.6383 -21.7570   C.2       1 RES1   0.0000
    28 C28     24.3904  -3.8485 -21.3523   C.2       1 RES1   0.0000
    29 F29     24.9037  -5.0630 -21.8093   F         1 RES1   0.0000
    30 C30     23.2855  -3.8228 -20.4852   C.2       1 RES1   0.0000
    31 C31     22.7123  -2.6431 -20.0127   C.2       1 RES1   0.0000
    32 C32     24.7479   2.8664 -19.5874   C.2       1 RES1   0.0000
    33 C33     26.0142   3.3931 -19.5604   C.2       1 RES1   0.0000
    34 N34     27.1405   2.5373 -19.4467   N.2       1 RES1   0.0000
    35 C35     32.1294  -3.3130 -18.5244   C.2       1 RES1   0.0000
@<TRIPOS>BOND
     1     1     2    1
     2     2     3    1
     3     3     4    2
     4     4     5    1
     5     5     6    2
     6     6     7    1
     7     7     8    1
     8     6     9    1
     9     9    10    1
    10    10    11    1
    11    11    12    1
    12    12    13    2
    13    12    14   am
    14    14    15    1
    15    15    16    2
    16    16    17    1
    17    17    18    1
    18    18    19    1
    19    19    20    2
    20    20    21    1
    21    21    22    1
    22    20    23    1
    23    23    24    1
    24    24    25    1
    25    25    26    2
    26    26    27    1
    27    27    28    2
    28    28    29    1
    29    28    30    1
    30    30    31    2
    31    17    32    2
    32    32    33    1
    33    33    34    2
    34     9    35    2
    35    35     3    1
    36    34    15    1
    37    24    18    2
    38    31    25    1
@<TRIPOS>SUBSTRUCTURE
     1 RES1        1 GROUP             0 ****  ****    0  
@<TRIPOS>MOLECULE
ligand_11
    35    38     1     0     0
SMALL
NO_CHARGES
****
Generated from the CSD

@<TRIPOS>ATOM
     1 C1      33.0324  -4.2502 -16.0663   C.3       1 RES1   0.0000
     2 O2      33.9667  -3.9837 -17.1971   O.3       1 RES1   0.0000
     3 C3      33.5032  -3.5284 -18.4144   C.2       1 RES1   0.0000
     4 C4      34.3451  -3.2583 -19.5298   C.2       1 RES1   0.0000
     5 C5      33.7466  -2.7914 -20.6990   C.2       1 RES1   0.0000
     6 C6      32.3335  -2.6079 -20.7970   C.2       1 RES1   0.0000
     7 O7      31.7620  -2.1722 -21.9724   O.3       1 RES1   0.0000
     8 C8      32.6832  -1.9448 -23.0783   C.3       1 RES1   0.0000
     9 C9      31.4871  -2.8507 -19.6825   C.2       1 RES1   0.0000
    10 C10     30.0399  -2.7318 -19.5768   C.3       1 RES1   0.0000
    11 C11     29.7369  -1.2313 -19.4042   C.3       1 RES1   0.0000
    12 C12     28.2531  -0.8244 -19.2667   C.2       1 RES1   0.0000
    13 O13     27.3704  -1.6476 -19.2936   O.2       1 RES1   0.0000
    14 N14     28.1050   0.5039 -19.3163   N.am      1 RES1   0.0000
    15 C15     26.9420   1.1893 -19.4002   C.2       1 RES1   0.0000
    16 C16     25.6450   0.6631 -19.3950   C.2       1 RES1   0.0000
    17 C17     24.5021   1.4811 -19.5487   C.2       1 RES1   0.0000
    18 C18     23.2147   0.9730 -19.5024   C.2       1 RES1   0.0000
    19 N19     22.1616   1.7250 -19.0831   N.2       1 RES1   0.0000
    20 C20     21.0640   1.0380 -19.2158   C.2       1 RES1   0.0000
    21 S21     19.4805   1.6692 -18.7656   S.3       1 RES1   0.0000
    22 C22     18.3840   0.3374 -19.1534   C.3       1 RES1   0.0000
    23 N23     21.3668  -0.1564 -19.7348   N.2       1 RES1   0.0000
    24 C24     22.6826  -0.2305 -19.9211   C.2       1 RES1   0.0000
    25 C25     23.2498  -1.3910 -20.4100   C.2       1 RES1   0.0000
    26 C26     24.3457  -1.4284 -21.2979   C.2       1 RES1   0.0000
    27 C27     24.9220  -2.6383 -21.7570   C.2       1 RES1   0.0000
    28 C28     24.3904  -3.8485 -21.3523   C.2       1 RES1   0.0000
    29 F29     24.9037  -5.0630 -21.8092   F         1 RES1   0.0000
    30 C30     23.2855  -3.8228 -20.4851   C.2       1 RES1   0.0000
    31 C31     22.7123  -2.6431 -20.0127   C.2       1 RES1   0.0000
    32 C32     24.7479   2.8664 -19.5874   C.2       1 RES1   0.0000
    33 C33     26.0142   3.3931 -19.5604   C.2       1 RES1   0.0000
    34 N34     27.1405   2.5373 -19.4467   N.2       1 RES1   0.0000
    35 C35     32.1294  -3.3130 -18.5244   C.2       1 RES1   0.0000
@<TRIPOS>BOND
     1     1     2    1
     2     2     3    1
     3     3     4    2
     4     4     5    1
     5     5     6    2
     6     6     7    1
     7     7     8    1
     8     6     9    1
     9     9    10    1
    10    10    11    1
    11    11    12    1
    12    12    13    2
    13    12    14   am
    14    14    15    1
    15    15    16    2
    16    16    17    1
    17    17    18    1
    18    18    19    1
    19    19    20    2
    20    20    21    1
    21    21    22    1
    22    20    23    1
    23    23    24    1
    24    24    25    1
    25    25    26    2
    26    26    27    1
    27    27    28    2
    28    28    29    1
    29    28    30    1
    30    30    31    2
    31    17    32    2
    32    32    33    1
    33    33    34    2
    34     9    35    2
    35    35     3    1
    36    34    15    1
    37    24    18    2
    38    31    25    1
@<TRIPOS>SUBSTRUCTURE
     1 RES1        1 GROUP             0 ****  ****    0  
@<TRIPOS>MOLECULE
ligand_12
    35    38     1     0     0
SMALL
NO_CHARGES
****
Generated from the CSD

@<TRIPOS>ATOM
     1 C1      32.0370   5.1356 -10.8077   C.3       1 RES1   0.0000
     2 O2      30.7929   4.7582 -11.5374   O.3       1 RES1   0.0000
     3 C3      30.1098   5.6773 -12.3073   C.2       1 RES1   0.0000
     4 C4      30.5185   7.0308 -12.4707   C.2       1 RES1   0.0000
     5 C5      29.7292   7.8572 -13.2691   C.2       1 RES1   0.0000
     6 C6      28.5591   7.3695 -13.9272   C.2       1 RES1   0.0000
     7 O7      27.8106   8.1981 -14.7340   O.3       1 RES1   0.0000
     8 C8      28.3072   9.5606 -14.8768   C.3       1 RES1   0.0000
     9 C9      28.1286   6.0274 -13.7510   C.2       1 RES1   0.0000
    10 C10     26.9825   5.3402 -14.3288   C.3       1 RES1   0.0000
    11 C11     27.3813   4.9604 -15.7675   C.3       1 RES1   0.0000
    12 C12     26.3296   4.2103 -16.6145   C.2       1 RES1   0.0000
    13 O13     25.2427   3.9343 -16.1670   O.2       1 RES1   0.0000
    14 N14     26.8529   3.7697 -17.7637   N.am      1 RES1   0.0000
    15 C15     26.2700   2.9364 -18.6554   C.2       1 RES1   0.0000
    16 C16     24.9761   2.4054 -18.5999   C.2       1 RES1   0.0000
    17 C17     24.4970   1.4923 -19.5672   C.2       1 RES1   0.0000
    18 C18     23.2046   0.9955 -19.5422   C.2       1 RES1   0.0000
    19 N19     22.1202   1.8165 -19.5653   N.2       1 RES1   0.0000
    20 C20     21.0375   1.0958 -19.6174   C.2       1 RES1   0.0000
    21 S21     19.4212   1.7993 -19.6493   S.3       1 RES1   0.0000
    22 C22     18.3612   0.3858 -19.7186   C.3       1 RES1   0.0000
    23 N23     21.3838  -0.1953 -19.6475   N.2       1 RES1   0.0000
    24 C24     22.7104  -0.2926 -19.6000   C.2       1 RES1   0.0000
    25 C25     23.3144  -1.5343 -19.5745   C.2       1 RES1   0.0000
    26 C26     24.5023  -1.8558 -20.2648   C.2       1 RES1   0.0000
    27 C27     25.1114  -3.1327 -20.1930   C.2       1 RES1   0.0000
    28 C28     24.5231  -4.1324 -19.4410   C.2       1 RES1   0.0000
    29 F29     25.0694  -5.4146 -19.3723   F         1 RES1   0.0000
    30 C30     23.3285  -3.8295 -18.7667   C.2       1 RES1   0.0000
    31 C31     22.7205  -2.5759 -18.8149   C.2       1 RES1   0.0000
    32 C32     25.3615   1.2461 -20.6502   C.2       1 RES1   0.0000
    33 C33     26.6193   1.7877 -20.7293   C.2       1 RES1   0.0000
    34 N34     27.0818   2.6686 -19.7175   N.2       1 RES1   0.0000
    35 C35     28.9469   5.2316 -12.9357   C.2       1 RES1   0.0000
@<TRIPOS>BOND
     1     1     2    1
     2     2     3    1
     3     3     4    2
     4     4     5    1
     5     5     6    2
     6     6     7    1
     7     7     8    1
     8     6     9    1
     9     9    10    1
    10    10    11    1
    11    11    12    1
    12    12    13    2
    13    12    14   am
    14    14    15    1
    15    15    16    2
    16    16    17    1
    17    17    18    1
    18    18    19    1
    19    19    20    2
    20    20    21    1
    21    21    22    1
    22    20    23    1
    23    23    24    1
    24    24    25    1
    25    25    26    2
    26    26    27    1
    27    27    28    2
    28    28    29    1
    29    28    30    1
    30    30    31    2
    31    17    32    2
    32    32    33    1
    33    33    34    2
    34     9    35    2
    35    35     3    1
    36    34    15    1
    37    24    18    2
    38    31    25    1
@<TRIPOS>SUBSTRUCTURE
     1 RES1        1 GROUP             0 ****  ****    0  
@<TRIPOS>MOLECULE
ligand_13
    35    38     1     0     0
SMALL
NO_CHARGES
****
Generated from the CSD

@<TRIPOS>ATOM
     1 C1      30.3141   3.3523 -11.4077   C.3       1 RES1   0.0000
     2 O2      30.7929   4.7582 -11.5374   O.3       1 RES1   0.0000
     3 C3      30.1098   5.6773 -12.3073   C.2       1 RES1   0.0000
     4 C4      30.5185   7.0308 -12.4707   C.2       1 RES1   0.0000
     5 C5      29.7292   7.8572 -13.2691   C.2       1 RES1   0.0000
     6 C6      28.5591   7.3695 -13.9272   C.2       1 RES1   0.0000
     7 O7      27.8106   8.1981 -14.7340   O.3       1 RES1   0.0000
     8 C8      28.3072   9.5606 -14.8768   C.3       1 RES1   0.0000
     9 C9      28.1286   6.0274 -13.7510   C.2       1 RES1   0.0000
    10 C10     26.9825   5.3402 -14.3288   C.3       1 RES1   0.0000
    11 C11     27.3813   4.9604 -15.7675   C.3       1 RES1   0.0000
    12 C12     26.3296   4.2103 -16.6145   C.2       1 RES1   0.0000
    13 O13     25.2427   3.9343 -16.1670   O.2       1 RES1   0.0000
    14 N14     26.8529   3.7697 -17.7637   N.am      1 RES1   0.0000
    15 C15     26.2700   2.9364 -18.6554   C.2       1 RES1   0.0000
    16 C16     24.9761   2.4054 -18.5999   C.2       1 RES1   0.0000
    17 C17     24.4970   1.4923 -19.5672   C.2       1 RES1   0.0000
    18 C18     23.2046   0.9955 -19.5422   C.2       1 RES1   0.0000
    19 N19     22.1202   1.8165 -19.5653   N.2       1 RES1   0.0000
    20 C20     21.0375   1.0958 -19.6174   C.2       1 RES1   0.0000
    21 S21     19.4212   1.7993 -19.6493   S.3       1 RES1   0.0000
    22 C22     18.3611   0.3858 -19.7186   C.3       1 RES1   0.0000
    23 N23     21.3838  -0.1953 -19.6475   N.2       1 RES1   0.0000
    24 C24     22.7104  -0.2926 -19.6000   C.2       1 RES1   0.0000
    25 C25     23.3144  -1.5343 -19.5745   C.2       1 RES1   0.0000
    26 C26     24.5023  -1.8558 -20.2648   C.2       1 RES1   0.0000
    27 C27     25.1114  -3.1327 -20.1930   C.2       1 RES1   0.0000
    28 C28     24.5231  -4.1324 -19.4410   C.2       1 RES1   0.0000
    29 F29     25.0693  -5.4146 -19.3723   F         1 RES1   0.0000
    30 C30     23.3285  -3.8295 -18.7667   C.2       1 RES1   0.0000
    31 C31     22.7205  -2.5759 -18.8149   C.2       1 RES1   0.0000
    32 C32     25.3615   1.2461 -20.6502   C.2       1 RES1   0.0000
    33 C33     26.6193   1.7877 -20.7293   C.2       1 RES1   0.0000
    34 N34     27.0818   2.6686 -19.7175   N.2       1 RES1   0.0000
    35 C35     28.9469   5.2317 -12.9357   C.2       1 RES1   0.0000
@<TRIPOS>BOND
     1     1     2    1
     2     2     3    1
     3     3     4    2
     4     4     5    1
     5     5     6    2
     6     6     7    1
     7     7     8    1
     8     6     9    1
     9     9    10    1
    10    10    11    1
    11    11    12    1
    12    12    13    2
    13    12    14   am
    14    14    15    1
    15    15    16    2
    16    16    17    1
    17    17    18    1
    18    18    19    1
    19    19    20    2
    20    20    21    1
    21    21    22    1
    22    20    23    1
    23    23    24    1
    24    24    25    1
    25    25    26    2
    26    26    27    1
    27    27    28    2
    28    28    29    1
    29    28    30    1
    30    30    31    2
    31    17    32    2
    32    32    33    1
    33    33    34    2
    34     9    35    2
    35    35     3    1
    36    34    15    1
    37    24    18    2
    38    31    25    1
@<TRIPOS>SUBSTRUCTURE
     1 RES1        1 GROUP             0 ****  ****    0  
@<TRIPOS>MOLECULE
ligand_14
    35    38     1     0     0
SMALL
NO_CHARGES
****
Generated from the CSD

@<TRIPOS>ATOM
     1 C1      29.6529  10.6196 -12.6013   C.3       1 RES1   0.0000
     2 O2      28.6840   9.6229 -13.1402   O.3       1 RES1   0.0000
     3 C3      28.9689   8.2728 -13.1314   C.2       1 RES1   0.0000
     4 C4      30.1790   7.7237 -12.6216   C.2       1 RES1   0.0000
     5 C5      30.3434   6.3409 -12.6838   C.2       1 RES1   0.0000
     6 C6      29.3293   5.4880 -13.2171   C.2       1 RES1   0.0000
     7 O7      29.5028   4.1216 -13.2421   O.3       1 RES1   0.0000
     8 C8      30.7530   3.6315 -12.6762   C.3       1 RES1   0.0000
     9 C9      28.1286   6.0274 -13.7510   C.2       1 RES1   0.0000
    10 C10     26.9825   5.3402 -14.3288   C.3       1 RES1   0.0000
    11 C11     27.3813   4.9604 -15.7675   C.3       1 RES1   0.0000
    12 C12     26.3296   4.2103 -16.6145   C.2       1 RES1   0.0000
    13 O13     25.2427   3.9343 -16.1670   O.2       1 RES1   0.0000
    14 N14     26.8529   3.7697 -17.7637   N.am      1 RES1   0.0000
    15 C15     26.2700   2.9364 -18.6554   C.2       1 RES1   0.0000
    16 C16     24.9761   2.4054 -18.5999   C.2       1 RES1   0.0000
    17 C17     24.4970   1.4923 -19.5672   C.2       1 RES1   0.0000
    18 C18     23.2046   0.9955 -19.5422   C.2       1 RES1   0.0000
    19 N19     22.1202   1.8165 -19.5653   N.2       1 RES1   0.0000
    20 C20     21.0375   1.0958 -19.6174   C.2       1 RES1   0.0000
    21 S21     19.4212   1.7993 -19.6493   S.3       1 RES1   0.0000
    22 C22     18.3612   0.3858 -19.7186   C.3       1 RES1   0.0000
    23 N23     21.3838  -0.1953 -19.6475   N.2       1 RES1   0.0000
    24 C24     22.7104  -0.2926 -19.6000   C.2       1 RES1   0.0000
    25 C25     23.3144  -1.5343 -19.5745   C.2       1 RES1   0.0000
    26 C26     24.5023  -1.8558 -20.2648   C.2       1 RES1   0.0000
    27 C27     25.1114  -3.1327 -20.1930   C.2       1 RES1   0.0000
    28 C28     24.5231  -4.1324 -19.4410   C.2       1 RES1   0.0000
    29 F29     25.0694  -5.4146 -19.3723   F         1 RES1   0.0000
    30 C30     23.3285  -3.8295 -18.7667   C.2       1 RES1   0.0000
    31 C31     22.7205  -2.5759 -18.8149   C.2       1 RES1   0.0000
    32 C32     25.3615   1.2461 -20.6502   C.2       1 RES1   0.0000
    33 C33     26.6193   1.7877 -20.7293   C.2       1 RES1   0.0000
    34 N34     27.0818   2.6686 -19.7175   N.2       1 RES1   0.0000
    35 C35     28.0057   7.4226 -13.6748   C.2       1 RES1   0.0000
@<TRIPOS>BOND
     1     1     2    1
     2     2     3    1
     3     3     4    2
     4     4     5    1
     5     5     6    2
     6     6     7    1
     7     7     8    1
     8     6     9    1
     9     9    10    1
    10    10    11    1
    11    11    12    1
    12    12    13    2
    13    12    14   am
    14    14    15    1
    15    15    16    2
    16    16    17    1
    17    17    18    1
    18    18    19    1
    19    19    20    2
    20    20    21    1
    21    21    22    1
    22    20    23    1
    23    23    24    1
    24    24    25    1
    25    25    26    2
    26    26    27    1
    27    27    28    2
    28    28    29    1
    29    28    30    1
    30    30    31    2
    31    17    32    2
    32    32    33    1
    33    33    34    2
    34     9    35    2
    35    35     3    1
    36    34    15    1
    37    24    18    2
    38    31    25    1
@<TRIPOS>SUBSTRUCTURE
     1 RES1        1 GROUP             0 ****  ****    0  
@<TRIPOS>MOLECULE
ligand_15
    35    38     1     0     0
SMALL
NO_CHARGES
****
Generated from the CSD

@<TRIPOS>ATOM
     1 C1      27.3955  10.1361 -13.6870   C.3       1 RES1   0.0000
     2 O2      28.6840   9.6229 -13.1402   O.3       1 RES1   0.0000
     3 C3      28.9689   8.2728 -13.1314   C.2       1 RES1   0.0000
     4 C4      30.1790   7.7237 -12.6216   C.2       1 RES1   0.0000
     5 C5      30.3434   6.3409 -12.6838   C.2       1 RES1   0.0000
     6 C6      29.3293   5.4880 -13.2171   C.2       1 RES1   0.0000
     7 O7      29.5028   4.1216 -13.2421   O.3       1 RES1   0.0000
     8 C8      30.7530   3.6315 -12.6762   C.3       1 RES1   0.0000
     9 C9      28.1286   6.0274 -13.7510   C.2       1 RES1   0.0000
    10 C10     26.9825   5.3402 -14.3288   C.3       1 RES1   0.0000
    11 C11     27.3813   4.9604 -15.7675   C.3       1 RES1   0.0000
    12 C12     26.3296   4.2103 -16.6145   C.2       1 RES1   0.0000
    13 O13     25.2427   3.9343 -16.1670   O.2       1 RES1   0.0000
    14 N14     26.8529   3.7697 -17.7637   N.am      1 RES1   0.0000
    15 C15     26.2700   2.9364 -18.6554   C.2       1 RES1   0.0000
    16 C16     24.9761   2.4054 -18.5999   C.2       1 RES1   0.0000
    17 C17     24.4970   1.4923 -19.5672   C.2       1 RES1   0.0000
    18 C18     23.2046   0.9955 -19.5422   C.2       1 RES1   0.0000
    19 N19     22.1202   1.8165 -19.5653   N.2       1 RES1   0.0000
    20 C20     21.0375   1.0958 -19.6174   C.2       1 RES1   0.0000
    21 S21     19.4212   1.7993 -19.6493   S.3       1 RES1   0.0000
    22 C22     18.3611   0.3858 -19.7186   C.3       1 RES1   0.0000
    23 N23     21.3838  -0.1953 -19.6475   N.2       1 RES1   0.0000
    24 C24     22.7104  -0.2926 -19.6000   C.2       1 RES1   0.0000
    25 C25     23.3144  -1.5343 -19.5745   C.2       1 RES1   0.0000
    26 C26     24.5023  -1.8558 -20.2648   C.2       1 RES1   0.0000
    27 C27     25.1114  -3.1327 -20.1930   C.2       1 RES1   0.0000
    28 C28     24.5231  -4.1324 -19.4410   C.2       1 RES1   0.0000
    29 F29     25.0693  -5.4146 -19.3723   F         1 RES1   0.0000
    30 C30     23.3285  -3.8295 -18.7667   C.2       1 RES1   0.0000
    31 C31     22.7205  -2.5759 -18.8149   C.2       1 RES1   0.0000
    32 C32     25.3615   1.2461 -20.6502   C.2       1 RES1   0.0000
    33 C33     26.6193   1.7877 -20.7293   C.2       1 RES1   0.0000
    34 N34     27.0818   2.6686 -19.7175   N.2       1 RES1   0.0000
    35 C35     28.0057   7.4226 -13.6748   C.2       1 RES1   0.0000
@<TRIPOS>BOND
     1     1     2    1
     2     2     3    1
     3     3     4    2
     4     4     5    1
     5     5     6    2
     6     6     7    1
     7     7     8    1
     8     6     9    1
     9     9    10    1
    10    10    11    1
    11    11    12    1
    12    12    13    2
    13    12    14   am
    14    14    15    1
    15    15    16    2
    16    16    17    1
    17    17    18    1
    18    18    19    1
    19    19    20    2
    20    20    21    1
    21    21    22    1
    22    20    23    1
    23    23    24    1
    24    24    25    1
    25    25    26    2
    26    26    27    1
    27    27    28    2
    28    28    29    1
    29    28    30    1
    30    30    31    2
    31    17    32    2
    32    32    33    1
    33    33    34    2
    34     9    35    2
    35    35     3    1
    36    34    15    1
    37    24    18    2
    38    31    25    1
@<TRIPOS>SUBSTRUCTURE
     1 RES1        1 GROUP             0 ****  ****    0  
@<TRIPOS>MOLECULE
ligand_16
    35    38     1     0     0
SMALL
NO_CHARGES
****
Generated from the CSD

@<TRIPOS>ATOM
     1 C1      29.0789  12.2394 -16.3933   C.3       1 RES1   0.0000
     2 O2      28.1161  11.1734 -16.7926   O.3       1 RES1   0.0000
     3 C3      27.9064  10.8611 -18.1201   C.2       1 RES1   0.0000
     4 C4      28.5709  11.5092 -19.1991   C.2       1 RES1   0.0000
     5 C5      28.2572  11.1029 -20.4951   C.2       1 RES1   0.0000
     6 C6      27.3192  10.0554 -20.7466   C.2       1 RES1   0.0000
     7 O7      27.0464   9.6519 -22.0353   O.3       1 RES1   0.0000
     8 C8      27.7865  10.3406 -23.0847   C.3       1 RES1   0.0000
     9 C9      26.6321   9.4191 -19.6786   C.2       1 RES1   0.0000
    10 C10     25.6548   8.3408 -19.7196   C.3       1 RES1   0.0000
    11 C11     26.4524   7.0359 -19.9049   C.3       1 RES1   0.0000
    12 C12     25.6439   5.7218 -19.9810   C.2       1 RES1   0.0000
    13 O13     24.4394   5.7191 -19.8988   O.2       1 RES1   0.0000
    14 N14     26.4468   4.6527 -19.9485   N.am      1 RES1   0.0000
    15 C15     26.0724   3.3589 -19.8246   C.2       1 RES1   0.0000
    16 C16     24.7678   2.8553 -19.7648   C.2       1 RES1   0.0000
    17 C17     24.5018   1.4799 -19.5742   C.2       1 RES1   0.0000
    18 C18     23.2148   0.9689 -19.5561   C.2       1 RES1   0.0000
    19 N19     22.1606   1.6968 -19.0989   N.2       1 RES1   0.0000
    20 C20     21.0638   1.0167 -19.2687   C.2       1 RES1   0.0000
    21 S21     19.4792   1.6219 -18.7877   S.3       1 RES1   0.0000
    22 C22     18.3843   0.3114 -19.2462   C.3       1 RES1   0.0000
    23 N23     21.3682  -0.1485 -19.8495   N.2       1 RES1   0.0000
    24 C24     22.6843  -0.2115 -20.0380   C.2       1 RES1   0.0000
    25 C25     23.2531  -1.3441 -20.5867   C.2       1 RES1   0.0000
    26 C26     24.3237  -1.3317 -21.5056   C.2       1 RES1   0.0000
    27 C27     24.9031  -2.5147 -22.0267   C.2       1 RES1   0.0000
    28 C28     24.3999  -3.7470 -21.6540   C.2       1 RES1   0.0000
    29 F29     24.9165  -4.9357 -22.1713   F         1 RES1   0.0000
    30 C30     23.3199  -3.7705 -20.7560   C.2       1 RES1   0.0000
    31 C31     22.7443  -2.6182 -20.2228   C.2       1 RES1   0.0000
    32 C32     25.6301   0.6385 -19.5682   C.2       1 RES1   0.0000
    33 C33     26.9113   1.1202 -19.6588   C.2       1 RES1   0.0000
    34 N34     27.1411   2.5125 -19.8082   N.2       1 RES1   0.0000
    35 C35     26.9721   9.8615 -18.3917   C.2       1 RES1   0.0000
@<TRIPOS>BOND
     1     1     2    1
     2     2     3    1
     3     3     4    2
     4     4     5    1
     5     5     6    2
     6     6     7    1
     7     7     8    1
     8     6     9    1
     9     9    10    1
    10    10    11    1
    11    11    12    1
    12    12    13    2
    13    12    14   am
    14    14    15    1
    15    15    16    2
    16    16    17    1
    17    17    18    1
    18    18    19    1
    19    19    20    2
    20    20    21    1
    21    21    22    1
    22    20    23    1
    23    23    24    1
    24    24    25    1
    25    25    26    2
    26    26    27    1
    27    27    28    2
    28    28    29    1
    29    28    30    1
    30    30    31    2
    31    17    32    2
    32    32    33    1
    33    33    34    2
    34     9    35    2
    35    35     3    1
    36    34    15    1
    37    24    18    2
    38    31    25    1
@<TRIPOS>SUBSTRUCTURE
     1 RES1        1 GROUP             0 ****  ****    0  
@<TRIPOS>MOLECULE
ligand_17
    35    38     1     0     0
SMALL
NO_CHARGES
****
Generated from the CSD

@<TRIPOS>ATOM
     1 C1      27.3894  10.4553 -15.7067   C.3       1 RES1   0.0000
     2 O2      28.1161  11.1734 -16.7926   O.3       1 RES1   0.0000
     3 C3      27.9064  10.8611 -18.1201   C.2       1 RES1   0.0000
     4 C4      28.5709  11.5092 -19.1991   C.2       1 RES1   0.0000
     5 C5      28.2572  11.1029 -20.4951   C.2       1 RES1   0.0000
     6 C6      27.3192  10.0554 -20.7466   C.2       1 RES1   0.0000
     7 O7      27.0464   9.6519 -22.0353   O.3       1 RES1   0.0000
     8 C8      27.7865  10.3406 -23.0847   C.3       1 RES1   0.0000
     9 C9      26.6321   9.4191 -19.6786   C.2       1 RES1   0.0000
    10 C10     25.6548   8.3408 -19.7196   C.3       1 RES1   0.0000
    11 C11     26.4524   7.0359 -19.9049   C.3       1 RES1   0.0000
    12 C12     25.6439   5.7218 -19.9810   C.2       1 RES1   0.0000
    13 O13     24.4394   5.7191 -19.8988   O.2       1 RES1   0.0000
    14 N14     26.4468   4.6527 -19.9485   N.am      1 RES1   0.0000
    15 C15     26.0724   3.3589 -19.8246   C.2       1 RES1   0.0000
    16 C16     24.7678   2.8553 -19.7648   C.2       1 RES1   0.0000
    17 C17     24.5018   1.4799 -19.5742   C.2       1 RES1   0.0000
    18 C18     23.2148   0.9689 -19.5561   C.2       1 RES1   0.0000
    19 N19     22.1606   1.6968 -19.0989   N.2       1 RES1   0.0000
    20 C20     21.0638   1.0167 -19.2687   C.2       1 RES1   0.0000
    21 S21     19.4792   1.6219 -18.7877   S.3       1 RES1   0.0000
    22 C22     18.3843   0.3114 -19.2462   C.3       1 RES1   0.0000
    23 N23     21.3682  -0.1485 -19.8495   N.2       1 RES1   0.0000
    24 C24     22.6843  -0.2115 -20.0380   C.2       1 RES1   0.0000
    25 C25     23.2531  -1.3441 -20.5867   C.2       1 RES1   0.0000
    26 C26     24.3237  -1.3317 -21.5056   C.2       1 RES1   0.0000
    27 C27     24.9031  -2.5147 -22.0267   C.2       1 RES1   0.0000
    28 C28     24.3999  -3.7470 -21.6540   C.2       1 RES1   0.0000
    29 F29     24.9165  -4.9357 -22.1713   F         1 RES1   0.0000
    30 C30     23.3199  -3.7705 -20.7560   C.2       1 RES1   0.0000
    31 C31     22.7443  -2.6182 -20.2228   C.2       1 RES1   0.0000
    32 C32     25.6301   0.6385 -19.5682   C.2       1 RES1   0.0000
    33 C33     26.9113   1.1202 -19.6588   C.2       1 RES1   0.0000
    34 N34     27.1411   2.5125 -19.8082   N.2       1 RES1   0.0000
    35 C35     26.9721   9.8615 -18.3917   C.2       1 RES1   0.0000
@<TRIPOS>BOND
     1     1     2    1
     2     2     3    1
     3     3     4    2
     4     4     5    1
     5     5     6    2
     6     6     7    1
     7     7     8    1
     8     6     9    1
     9     9    10    1
    10    10    11    1
    11    11    12    1
    12    12    13    2
    13    12    14   am
    14    14    15    1
    15    15    16    2
    16    16    17    1
    17    17    18    1
    18    18    19    1
    19    19    20    2
    20    20    21    1
    21    21    22    1
    22    20    23    1
    23    23    24    1
    24    24    25    1
    25    25    26    2
    26    26    27    1
    27    27    28    2
    28    28    29    1
    29    28    30    1
    30    30    31    2
    31    17    32    2
    32    32    33    1
    33    33    34    2
    34     9    35    2
    35    35     3    1
    36    34    15    1
    37    24    18    2
    38    31    25    1
@<TRIPOS>SUBSTRUCTURE
     1 RES1        1 GROUP             0 ****  ****    0  
@<TRIPOS>MOLECULE
ligand_18
    35    38     1     0     0
SMALL
NO_CHARGES
****
Generated from the CSD

@<TRIPOS>ATOM
     1 C1      28.4287  13.0627 -22.5476   C.3       1 RES1   0.0000
     2 O2      27.5488  11.8952 -22.2551   O.3       1 RES1   0.0000
     3 C3      27.5785  11.2687 -21.0260   C.2       1 RES1   0.0000
     4 C4      28.4275  11.6680 -19.9556   C.2       1 RES1   0.0000
     5 C5      28.3646  10.9398 -18.7686   C.2       1 RES1   0.0000
     6 C6      27.4657   9.8415 -18.6089   C.2       1 RES1   0.0000
     7 O7      27.4014   9.1546 -17.4164   O.3       1 RES1   0.0000
     8 C8      28.2780   9.6394 -16.3582   C.3       1 RES1   0.0000
     9 C9      26.6321   9.4191 -19.6786   C.2       1 RES1   0.0000
    10 C10     25.6548   8.3408 -19.7196   C.3       1 RES1   0.0000
    11 C11     26.4524   7.0359 -19.9049   C.3       1 RES1   0.0000
    12 C12     25.6439   5.7218 -19.9810   C.2       1 RES1   0.0000
    13 O13     24.4394   5.7191 -19.8988   O.2       1 RES1   0.0000
    14 N14     26.4468   4.6527 -19.9485   N.am      1 RES1   0.0000
    15 C15     26.0724   3.3589 -19.8246   C.2       1 RES1   0.0000
    16 C16     24.7678   2.8553 -19.7648   C.2       1 RES1   0.0000
    17 C17     24.5018   1.4799 -19.5742   C.2       1 RES1   0.0000
    18 C18     23.2148   0.9689 -19.5561   C.2       1 RES1   0.0000
    19 N19     22.1606   1.6968 -19.0989   N.2       1 RES1   0.0000
    20 C20     21.0638   1.0167 -19.2687   C.2       1 RES1   0.0000
    21 S21     19.4792   1.6219 -18.7877   S.3       1 RES1   0.0000
    22 C22     18.3843   0.3114 -19.2462   C.3       1 RES1   0.0000
    23 N23     21.3682  -0.1485 -19.8495   N.2       1 RES1   0.0000
    24 C24     22.6843  -0.2115 -20.0380   C.2       1 RES1   0.0000
    25 C25     23.2531  -1.3441 -20.5867   C.2       1 RES1   0.0000
    26 C26     24.3237  -1.3317 -21.5056   C.2       1 RES1   0.0000
    27 C27     24.9031  -2.5147 -22.0267   C.2       1 RES1   0.0000
    28 C28     24.3999  -3.7470 -21.6540   C.2       1 RES1   0.0000
    29 F29     24.9165  -4.9357 -22.1713   F         1 RES1   0.0000
    30 C30     23.3199  -3.7705 -20.7560   C.2       1 RES1   0.0000
    31 C31     22.7443  -2.6182 -20.2228   C.2       1 RES1   0.0000
    32 C32     25.6301   0.6385 -19.5682   C.2       1 RES1   0.0000
    33 C33     26.9113   1.1202 -19.6588   C.2       1 RES1   0.0000
    34 N34     27.1411   2.5125 -19.8082   N.2       1 RES1   0.0000
    35 C35     26.7306  10.1741 -20.8567   C.2       1 RES1   0.0000
@<TRIPOS>BOND
     1     1     2    1
     2     2     3    1
     3     3     4    2
     4     4     5    1
     5     5     6    2
     6     6     7    1
     7     7     8    1
     8     6     9    1
     9     9    10    1
    10    10    11    1
    11    11    12    1
    12    12    13    2
    13    12    14   am
    14    14    15    1
    15    15    16    2
    16    16    17    1
    17    17    18    1
    18    18    19    1
    19    19    20    2
    20    20    21    1
    21    21    22    1
    22    20    23    1
    23    23    24    1
    24    24    25    1
    25    25    26    2
    26    26    27    1
    27    27    28    2
    28    28    29    1
    29    28    30    1
    30    30    31    2
    31    17    32    2
    32    32    33    1
    33    33    34    2
    34     9    35    2
    35    35     3    1
    36    34    15    1
    37    24    18    2
    38    31    25    1
@<TRIPOS>SUBSTRUCTURE
     1 RES1        1 GROUP             0 ****  ****    0  
@<TRIPOS>MOLECULE
ligand_19
    35    38     1     0     0
SMALL
NO_CHARGES
****
Generated from the CSD

@<TRIPOS>ATOM
     1 C1      26.6342  11.4299 -23.3365   C.3       1 RES1   0.0000
     2 O2      27.5488  11.8952 -22.2551   O.3       1 RES1   0.0000
     3 C3      27.5785  11.2687 -21.0260   C.2       1 RES1   0.0000
     4 C4      28.4275  11.6680 -19.9556   C.2       1 RES1   0.0000
     5 C5      28.3646  10.9398 -18.7686   C.2       1 RES1   0.0000
     6 C6      27.4657   9.8415 -18.6089   C.2       1 RES1   0.0000
     7 O7      27.4014   9.1546 -17.4164   O.3       1 RES1   0.0000
     8 C8      28.2780   9.6394 -16.3582   C.3       1 RES1   0.0000
     9 C9      26.6321   9.4191 -19.6786   C.2       1 RES1   0.0000
    10 C10     25.6548   8.3408 -19.7196   C.3       1 RES1   0.0000
    11 C11     26.4524   7.0359 -19.9049   C.3       1 RES1   0.0000
    12 C12     25.6439   5.7218 -19.9810   C.2       1 RES1   0.0000
    13 O13     24.4394   5.7191 -19.8988   O.2       1 RES1   0.0000
    14 N14     26.4468   4.6527 -19.9485   N.am      1 RES1   0.0000
    15 C15     26.0724   3.3589 -19.8246   C.2       1 RES1   0.0000
    16 C16     24.7678   2.8553 -19.7648   C.2       1 RES1   0.0000
    17 C17     24.5018   1.4799 -19.5742   C.2       1 RES1   0.0000
    18 C18     23.2148   0.9689 -19.5561   C.2       1 RES1   0.0000
    19 N19     22.1606   1.6968 -19.0989   N.2       1 RES1   0.0000
    20 C20     21.0638   1.0167 -19.2687   C.2       1 RES1   0.0000
    21 S21     19.4792   1.6219 -18.7877   S.3       1 RES1   0.0000
    22 C22     18.3843   0.3114 -19.2462   C.3       1 RES1   0.0000
    23 N23     21.3682  -0.1485 -19.8495   N.2       1 RES1   0.0000
    24 C24     22.6843  -0.2115 -20.0380   C.2       1 RES1   0.0000
    25 C25     23.2531  -1.3441 -20.5867   C.2       1 RES1   0.0000
    26 C26     24.3237  -1.3317 -21.5056   C.2       1 RES1   0.0000
    27 C27     24.9031  -2.5147 -22.0267   C.2       1 RES1   0.0000
    28 C28     24.3999  -3.7470 -21.6540   C.2       1 RES1   0.0000
    29 F29     24.9165  -4.9357 -22.1713   F         1 RES1   0.0000
    30 C30     23.3199  -3.7705 -20.7560   C.2       1 RES1   0.0000
    31 C31     22.7443  -2.6182 -20.2228   C.2       1 RES1   0.0000
    32 C32     25.6301   0.6385 -19.5682   C.2       1 RES1   0.0000
    33 C33     26.9113   1.1202 -19.6588   C.2       1 RES1   0.0000
    34 N34     27.1411   2.5125 -19.8082   N.2       1 RES1   0.0000
    35 C35     26.7306  10.1741 -20.8567   C.2       1 RES1   0.0000
@<TRIPOS>BOND
     1     1     2    1
     2     2     3    1
     3     3     4    2
     4     4     5    1
     5     5     6    2
     6     6     7    1
     7     7     8    1
     8     6     9    1
     9     9    10    1
    10    10    11    1
    11    11    12    1
    12    12    13    2
    13    12    14   am
    14    14    15    1
    15    15    16    2
    16    16    17    1
    17    17    18    1
    18    18    19    1
    19    19    20    2
    20    20    21    1
    21    21    22    1
    22    20    23    1
    23    23    24    1
    24    24    25    1
    25    25    26    2
    26    26    27    1
    27    27    28    2
    28    28    29    1
    29    28    30    1
    30    30    31    2
    31    17    32    2
    32    32    33    1
    33    33    34    2
    34     9    35    2
    35    35     3    1
    36    34    15    1
    37    24    18    2
    38    31    25    1
@<TRIPOS>SUBSTRUCTURE
     1 RES1        1 GROUP             0 ****  ****    0  
@<TRIPOS>MOLECULE
ligand_20
    35    38     1     0     0
SMALL
NO_CHARGES
****
Generated from the CSD

@<TRIPOS>ATOM
     1 C1      32.0947   3.8131 -28.7063   C.3       1 RES1   0.0000
     2 O2      30.9636   3.2503 -27.9148   O.3       1 RES1   0.0000
     3 C3      31.1295   2.1265 -27.1315   C.2       1 RES1   0.0000
     4 C4      32.3602   1.4219 -27.0108   C.2       1 RES1   0.0000
     5 C5      32.3867   0.2935 -26.1926   C.2       1 RES1   0.0000
     6 C6      31.2307  -0.1395 -25.4740   C.2       1 RES1   0.0000
     7 O7      31.2889  -1.2414 -24.6492   O.3       1 RES1   0.0000
     8 C8      32.5888  -1.8929 -24.5533   C.3       1 RES1   0.0000
     9 C9      29.9914   0.5417 -25.6067   C.2       1 RES1   0.0000
    10 C10     28.7129   0.2692 -24.9658   C.3       1 RES1   0.0000
    11 C11     28.8082   0.8444 -23.5399   C.3       1 RES1   0.0000
    12 C12     27.5674   0.6872 -22.6333   C.2       1 RES1   0.0000
    13 O13     26.5672   0.1371 -23.0265   O.2       1 RES1   0.0000
    14 N14     27.6988   1.3868 -21.5011   N.am      1 RES1   0.0000
    15 C15     26.7445   1.6118 -20.5695   C.2       1 RES1   0.0000
    16 C16     25.4366   1.1134 -20.5575   C.2       1 RES1   0.0000
    17 C17     24.5066   1.4688 -19.5535   C.2       1 RES1   0.0000
    18 C18     23.2246   0.9469 -19.5117   C.2       1 RES1   0.0000
    19 N19     22.1237   1.7428 -19.5821   N.2       1 RES1   0.0000
    20 C20     21.0565   0.9979 -19.6048   C.2       1 RES1   0.0000
    21 S21     19.4263   1.6648 -19.6814   S.3       1 RES1   0.0000
    22 C22     18.3962   0.2277 -19.6867   C.3       1 RES1   0.0000
    23 N23     21.4296  -0.2856 -19.5686   N.2       1 RES1   0.0000
    24 C24     22.7575  -0.3526 -19.5083   C.2       1 RES1   0.0000
    25 C25     23.3869  -1.5786 -19.4174   C.2       1 RES1   0.0000
    26 C26     24.5489  -1.9317 -20.1356   C.2       1 RES1   0.0000
    27 C27     25.1861  -3.1892 -19.9963   C.2       1 RES1   0.0000
    28 C28     24.6522  -4.1385 -19.1449   C.2       1 RES1   0.0000
    29 F29     25.2266  -5.4026 -19.0053   F         1 RES1   0.0000
    30 C30     23.4831  -3.8052 -18.4409   C.2       1 RES1   0.0000
    31 C31     22.8486  -2.5691 -18.5551   C.2       1 RES1   0.0000
    32 C32     25.0165   2.2587 -18.5061   C.2       1 RES1   0.0000
    33 C33     26.3064   2.7252 -18.4931   C.2       1 RES1   0.0000
    34 N34     27.2002   2.3810 -19.5402   N.2       1 RES1   0.0000
    35 C35     30.0062   1.6672 -26.4436   C.2       1 RES1   0.0000
@<TRIPOS>BOND
     1     1     2    1
     2     2     3    1
     3     3     4    2
     4     4     5    1
     5     5     6    2
     6     6     7    1
     7     7     8    1
     8     6     9    1
     9     9    10    1
    10    10    11    1
    11    11    12    1
    12    12    13    2
    13    12    14   am
    14    14    15    1
    15    15    16    2
    16    16    17    1
    17    17    18    1
    18    18    19    1
    19    19    20    2
    20    20    21    1
    21    21    22    1
    22    20    23    1
    23    23    24    1
    24    24    25    1
    25    25    26    2
    26    26    27    1
    27    27    28    2
    28    28    29    1
    29    28    30    1
    30    30    31    2
    31    17    32    2
    32    32    33    1
    33    33    34    2
    34     9    35    2
    35    35     3    1
    36    34    15    1
    37    24    18    2
    38    31    25    1
@<TRIPOS>SUBSTRUCTURE
     1 RES1        1 GROUP             0 ****  ****    0  
@<TRIPOS>MOLECULE
ligand_21
    35    38     1     0     0
SMALL
NO_CHARGES
****
Generated from the CSD

@<TRIPOS>ATOM
     1 C1      29.6475   3.9458 -27.9977   C.3       1 RES1   0.0000
     2 O2      30.9636   3.2503 -27.9148   O.3       1 RES1   0.0000
     3 C3      31.1295   2.1265 -27.1315   C.2       1 RES1   0.0000
     4 C4      32.3602   1.4219 -27.0108   C.2       1 RES1   0.0000
     5 C5      32.3867   0.2935 -26.1926   C.2       1 RES1   0.0000
     6 C6      31.2307  -0.1395 -25.4740   C.2       1 RES1   0.0000
     7 O7      31.2889  -1.2414 -24.6492   O.3       1 RES1   0.0000
     8 C8      32.5888  -1.8929 -24.5533   C.3       1 RES1   0.0000
     9 C9      29.9914   0.5417 -25.6067   C.2       1 RES1   0.0000
    10 C10     28.7129   0.2692 -24.9658   C.3       1 RES1   0.0000
    11 C11     28.8082   0.8444 -23.5399   C.3       1 RES1   0.0000
    12 C12     27.5674   0.6872 -22.6333   C.2       1 RES1   0.0000
    13 O13     26.5672   0.1371 -23.0265   O.2       1 RES1   0.0000
    14 N14     27.6988   1.3868 -21.5011   N.am      1 RES1   0.0000
    15 C15     26.7445   1.6118 -20.5695   C.2       1 RES1   0.0000
    16 C16     25.4366   1.1134 -20.5575   C.2       1 RES1   0.0000
    17 C17     24.5066   1.4688 -19.5535   C.2       1 RES1   0.0000
    18 C18     23.2246   0.9469 -19.5117   C.2       1 RES1   0.0000
    19 N19     22.1237   1.7428 -19.5821   N.2       1 RES1   0.0000
    20 C20     21.0565   0.9979 -19.6048   C.2       1 RES1   0.0000
    21 S21     19.4263   1.6648 -19.6814   S.3       1 RES1   0.0000
    22 C22     18.3962   0.2277 -19.6867   C.3       1 RES1   0.0000
    23 N23     21.4296  -0.2856 -19.5686   N.2       1 RES1   0.0000
    24 C24     22.7575  -0.3526 -19.5083   C.2       1 RES1   0.0000
    25 C25     23.3869  -1.5786 -19.4174   C.2       1 RES1   0.0000
    26 C26     24.5489  -1.9317 -20.1357   C.2       1 RES1   0.0000
    27 C27     25.1861  -3.1892 -19.9963   C.2       1 RES1   0.0000
    28 C28     24.6522  -4.1385 -19.1449   C.2       1 RES1   0.0000
    29 F29     25.2266  -5.4026 -19.0054   F         1 RES1   0.0000
    30 C30     23.4831  -3.8052 -18.4409   C.2       1 RES1   0.0000
    31 C31     22.8486  -2.5691 -18.5551   C.2       1 RES1   0.0000
    32 C32     25.0165   2.2587 -18.5061   C.2       1 RES1   0.0000
    33 C33     26.3064   2.7252 -18.4931   C.2       1 RES1   0.0000
    34 N34     27.2002   2.3810 -19.5402   N.2       1 RES1   0.0000
    35 C35     30.0062   1.6672 -26.4436   C.2       1 RES1   0.0000
@<TRIPOS>BOND
     1     1     2    1
     2     2     3    1
     3     3     4    2
     4     4     5    1
     5     5     6    2
     6     6     7    1
     7     7     8    1
     8     6     9    1
     9     9    10    1
    10    10    11    1
    11    11    12    1
    12    12    13    2
    13    12    14   am
    14    14    15    1
    15    15    16    2
    16    16    17    1
    17    17    18    1
    18    18    19    1
    19    19    20    2
    20    20    21    1
    21    21    22    1
    22    20    23    1
    23    23    24    1
    24    24    25    1
    25    25    26    2
    26    26    27    1
    27    27    28    2
    28    28    29    1
    29    28    30    1
    30    30    31    2
    31    17    32    2
    32    32    33    1
    33    33    34    2
    34     9    35    2
    35    35     3    1
    36    34    15    1
    37    24    18    2
    38    31    25    1
@<TRIPOS>SUBSTRUCTURE
     1 RES1        1 GROUP             0 ****  ****    0  
@<TRIPOS>MOLECULE
ligand_22
    35    38     1     0     0
SMALL
NO_CHARGES
****
Generated from the CSD

@<TRIPOS>ATOM
     1 C1      34.1906  -1.7851 -26.9055   C.3       1 RES1   0.0000
     2 O2      32.8276  -1.7114 -26.3058   O.3       1 RES1   0.0000
     3 C3      32.1112  -0.5321 -26.3034   C.2       1 RES1   0.0000
     4 C4      32.5938   0.6870 -26.8572   C.2       1 RES1   0.0000
     5 C5      31.7704   1.8090 -26.7778   C.2       1 RES1   0.0000
     6 C6      30.4727   1.7468 -26.1843   C.2       1 RES1   0.0000
     7 O7      29.6655   2.8625 -26.1428   O.3       1 RES1   0.0000
     8 C8      30.2151   4.0649 -26.7554   C.3       1 RES1   0.0000
     9 C9      29.9914   0.5417 -25.6067   C.2       1 RES1   0.0000
    10 C10     28.7129   0.2692 -24.9658   C.3       1 RES1   0.0000
    11 C11     28.8082   0.8444 -23.5399   C.3       1 RES1   0.0000
    12 C12     27.5674   0.6872 -22.6333   C.2       1 RES1   0.0000
    13 O13     26.5672   0.1371 -23.0265   O.2       1 RES1   0.0000
    14 N14     27.6988   1.3868 -21.5011   N.am      1 RES1   0.0000
    15 C15     26.7445   1.6118 -20.5695   C.2       1 RES1   0.0000
    16 C16     25.4366   1.1134 -20.5575   C.2       1 RES1   0.0000
    17 C17     24.5066   1.4688 -19.5535   C.2       1 RES1   0.0000
    18 C18     23.2246   0.9469 -19.5117   C.2       1 RES1   0.0000
    19 N19     22.1237   1.7428 -19.5821   N.2       1 RES1   0.0000
    20 C20     21.0565   0.9979 -19.6048   C.2       1 RES1   0.0000
    21 S21     19.4263   1.6648 -19.6814   S.3       1 RES1   0.0000
    22 C22     18.3962   0.2277 -19.6867   C.3       1 RES1   0.0000
    23 N23     21.4296  -0.2856 -19.5686   N.2       1 RES1   0.0000
    24 C24     22.7575  -0.3526 -19.5083   C.2       1 RES1   0.0000
    25 C25     23.3869  -1.5786 -19.4174   C.2       1 RES1   0.0000
    26 C26     24.5489  -1.9317 -20.1356   C.2       1 RES1   0.0000
    27 C27     25.1861  -3.1892 -19.9963   C.2       1 RES1   0.0000
    28 C28     24.6522  -4.1385 -19.1449   C.2       1 RES1   0.0000
    29 F29     25.2266  -5.4026 -19.0053   F         1 RES1   0.0000
    30 C30     23.4831  -3.8052 -18.4409   C.2       1 RES1   0.0000
    31 C31     22.8486  -2.5691 -18.5551   C.2       1 RES1   0.0000
    32 C32     25.0165   2.2587 -18.5061   C.2       1 RES1   0.0000
    33 C33     26.3064   2.7252 -18.4931   C.2       1 RES1   0.0000
    34 N34     27.2002   2.3810 -19.5402   N.2       1 RES1   0.0000
    35 C35     30.8528  -0.5612 -25.7022   C.2       1 RES1   0.0000
@<TRIPOS>BOND
     1     1     2    1
     2     2     3    1
     3     3     4    2
     4     4     5    1
     5     5     6    2
     6     6     7    1
     7     7     8    1
     8     6     9    1
     9     9    10    1
    10    10    11    1
    11    11    12    1
    12    12    13    2
    13    12    14   am
    14    14    15    1
    15    15    16    2
    16    16    17    1
    17    17    18    1
    18    18    19    1
    19    19    20    2
    20    20    21    1
    21    21    22    1
    22    20    23    1
    23    23    24    1
    24    24    25    1
    25    25    26    2
    26    26    27    1
    27    27    28    2
    28    28    29    1
    29    28    30    1
    30    30    31    2
    31    17    32    2
    32    32    33    1
    33    33    34    2
    34     9    35    2
    35    35     3    1
    36    34    15    1
    37    24    18    2
    38    31    25    1
@<TRIPOS>SUBSTRUCTURE
     1 RES1        1 GROUP             0 ****  ****    0  
@<TRIPOS>MOLECULE
ligand_23
    35    38     1     0     0
SMALL
NO_CHARGES
****
Generated from the CSD

@<TRIPOS>ATOM
     1 C1      32.2651  -2.9573 -25.7109   C.3       1 RES1   0.0000
     2 O2      32.8276  -1.7114 -26.3058   O.3       1 RES1   0.0000
     3 C3      32.1112  -0.5321 -26.3034   C.2       1 RES1   0.0000
     4 C4      32.5938   0.6870 -26.8572   C.2       1 RES1   0.0000
     5 C5      31.7704   1.8090 -26.7778   C.2       1 RES1   0.0000
     6 C6      30.4727   1.7468 -26.1843   C.2       1 RES1   0.0000
     7 O7      29.6655   2.8625 -26.1428   O.3       1 RES1   0.0000
     8 C8      30.2151   4.0649 -26.7554   C.3       1 RES1   0.0000
     9 C9      29.9914   0.5417 -25.6067   C.2       1 RES1   0.0000
    10 C10     28.7129   0.2692 -24.9658   C.3       1 RES1   0.0000
    11 C11     28.8082   0.8444 -23.5399   C.3       1 RES1   0.0000
    12 C12     27.5674   0.6872 -22.6333   C.2       1 RES1   0.0000
    13 O13     26.5672   0.1371 -23.0265   O.2       1 RES1   0.0000
    14 N14     27.6988   1.3868 -21.5011   N.am      1 RES1   0.0000
    15 C15     26.7445   1.6118 -20.5695   C.2       1 RES1   0.0000
    16 C16     25.4366   1.1134 -20.5575   C.2       1 RES1   0.0000
    17 C17     24.5066   1.4688 -19.5535   C.2       1 RES1   0.0000
    18 C18     23.2246   0.9469 -19.5117   C.2       1 RES1   0.0000
    19 N19     22.1237   1.7428 -19.5821   N.2       1 RES1   0.0000
    20 C20     21.0565   0.9979 -19.6048   C.2       1 RES1   0.0000
    21 S21     19.4263   1.6648 -19.6814   S.3       1 RES1   0.0000
    22 C22     18.3962   0.2277 -19.6867   C.3       1 RES1   0.0000
    23 N23     21.4296  -0.2856 -19.5686   N.2       1 RES1   0.0000
    24 C24     22.7575  -0.3526 -19.5083   C.2       1 RES1   0.0000
    25 C25     23.3869  -1.5786 -19.4174   C.2       1 RES1   0.0000
    26 C26     24.5489  -1.9317 -20.1357   C.2       1 RES1   0.0000
    27 C27     25.1861  -3.1892 -19.9963   C.2       1 RES1   0.0000
    28 C28     24.6522  -4.1385 -19.1449   C.2       1 RES1   0.0000
    29 F29     25.2266  -5.4026 -19.0054   F         1 RES1   0.0000
    30 C30     23.4831  -3.8052 -18.4409   C.2       1 RES1   0.0000
    31 C31     22.8486  -2.5691 -18.5551   C.2       1 RES1   0.0000
    32 C32     25.0165   2.2587 -18.5061   C.2       1 RES1   0.0000
    33 C33     26.3064   2.7252 -18.4931   C.2       1 RES1   0.0000
    34 N34     27.2002   2.3810 -19.5402   N.2       1 RES1   0.0000
    35 C35     30.8528  -0.5612 -25.7022   C.2       1 RES1   0.0000
@<TRIPOS>BOND
     1     1     2    1
     2     2     3    1
     3     3     4    2
     4     4     5    1
     5     5     6    2
     6     6     7    1
     7     7     8    1
     8     6     9    1
     9     9    10    1
    10    10    11    1
    11    11    12    1
    12    12    13    2
    13    12    14   am
    14    14    15    1
    15    15    16    2
    16    16    17    1
    17    17    18    1
    18    18    19    1
    19    19    20    2
    20    20    21    1
    21    21    22    1
    22    20    23    1
    23    23    24    1
    24    24    25    1
    25    25    26    2
    26    26    27    1
    27    27    28    2
    28    28    29    1
    29    28    30    1
    30    30    31    2
    31    17    32    2
    32    32    33    1
    33    33    34    2
    34     9    35    2
    35    35     3    1
    36    34    15    1
    37    24    18    2
    38    31    25    1
@<TRIPOS>SUBSTRUCTURE
     1 RES1        1 GROUP             0 ****  ****    0  
@<TRIPOS>MOLECULE
ligand_24
    35    38     1     0     0
SMALL
NO_CHARGES
****
Generated from the CSD

@<TRIPOS>ATOM
     1 C1      30.2874  -4.2570  -9.5116   C.3       1 RES1   0.0000
     2 O2      29.6475  -3.8067 -10.7807   O.3       1 RES1   0.0000
     3 C3      29.0340  -4.7053 -11.6293   C.2       1 RES1   0.0000
     4 C4      28.9581  -6.1042 -11.3782   C.2       1 RES1   0.0000
     5 C5      28.3179  -6.9018 -12.3255   C.2       1 RES1   0.0000
     6 C6      27.7318  -6.3444 -13.5027   C.2       1 RES1   0.0000
     7 O7      27.0796  -7.1494 -14.4108   O.3       1 RES1   0.0000
     8 C8      27.0167  -8.5651 -14.0715   C.3       1 RES1   0.0000
     9 C9      27.8235  -4.9534 -13.7752   C.2       1 RES1   0.0000
    10 C10     27.2962  -4.1945 -14.9002   C.3       1 RES1   0.0000
    11 C11     25.7973  -3.9795 -14.6173   C.3       1 RES1   0.0000
    12 C12     24.9884  -3.1905 -15.6706   C.2       1 RES1   0.0000
    13 O13     25.5098  -2.7616 -16.6716   O.2       1 RES1   0.0000
    14 N14     23.7591  -2.9052 -15.2282   N.am      1 RES1   0.0000
    15 C15     22.8538  -2.0886 -15.8139   C.2       1 RES1   0.0000
    16 C16     22.9830  -1.4159 -17.0345   C.2       1 RES1   0.0000
    17 C17     21.9855  -0.5379 -17.5173   C.2       1 RES1   0.0000
    18 C18     22.0874   0.0982 -18.7432   C.2       1 RES1   0.0000
    19 N19     21.6666   1.3790 -18.9237   N.2       1 RES1   0.0000
    20 C20     21.9516   1.7575 -20.1360   C.2       1 RES1   0.0000
    21 S21     21.5515   3.3584 -20.7570   S.3       1 RES1   0.0000
    22 C22     20.7584   4.1428 -19.3852   C.3       1 RES1   0.0000
    23 N23     22.5732   0.7533 -20.7629   N.2       1 RES1   0.0000
    24 C24     22.6708  -0.2842 -19.9349   C.2       1 RES1   0.0000
    25 C25     23.2398  -1.4660 -20.3676   C.2       1 RES1   0.0000
    26 C26     24.3722  -1.5439 -21.2058   C.2       1 RES1   0.0000
    27 C27     24.9481  -2.7744 -21.6071   C.2       1 RES1   0.0000
    28 C28     24.3802  -3.9650 -21.1938   C.2       1 RES1   0.0000
    29 F29     24.8931  -5.1991 -21.5955   F         1 RES1   0.0000
    30 C30     23.2396  -3.8992 -20.3765   C.2       1 RES1   0.0000
    31 C31     22.6656  -2.6986 -19.9609   C.2       1 RES1   0.0000
    32 C32     20.8070  -0.4776 -16.7503   C.2       1 RES1   0.0000
    33 C33     20.6587  -1.1587 -15.5689   C.2       1 RES1   0.0000
    34 N34     21.6990  -1.9994 -15.0947   N.2       1 RES1   0.0000
    35 C35     28.4805  -4.1880 -12.8005   C.2       1 RES1   0.0000
@<TRIPOS>BOND
     1     1     2    1
     2     2     3    1
     3     3     4    2
     4     4     5    1
     5     5     6    2
     6     6     7    1
     7     7     8    1
     8     6     9    1
     9     9    10    1
    10    10    11    1
    11    11    12    1
    12    12    13    2
    13    12    14   am
    14    14    15    1
    15    15    16    2
    16    16    17    1
    17    17    18    1
    18    18    19    1
    19    19    20    2
    20    20    21    1
    21    21    22    1
    22    20    23    1
    23    23    24    1
    24    24    25    1
    25    25    26    2
    26    26    27    1
    27    27    28    2
    28    28    29    1
    29    28    30    1
    30    30    31    2
    31    17    32    2
    32    32    33    1
    33    33    34    2
    34     9    35    2
    35    35     3    1
    36    34    15    1
    37    24    18    2
    38    31    25    1
@<TRIPOS>SUBSTRUCTURE
     1 RES1        1 GROUP             0 ****  ****    0  
@<TRIPOS>MOLECULE
ligand_25
    35    38     1     0     0
SMALL
NO_CHARGES
****
Generated from the CSD

@<TRIPOS>ATOM
     1 C1      29.6918  -2.3510 -11.0994   C.3       1 RES1   0.0000
     2 O2      29.6475  -3.8067 -10.7807   O.3       1 RES1   0.0000
     3 C3      29.0340  -4.7053 -11.6293   C.2       1 RES1   0.0000
     4 C4      28.9581  -6.1042 -11.3782   C.2       1 RES1   0.0000
     5 C5      28.3179  -6.9018 -12.3254   C.2       1 RES1   0.0000
     6 C6      27.7318  -6.3444 -13.5027   C.2       1 RES1   0.0000
     7 O7      27.0796  -7.1494 -14.4108   O.3       1 RES1   0.0000
     8 C8      27.0167  -8.5651 -14.0715   C.3       1 RES1   0.0000
     9 C9      27.8235  -4.9534 -13.7752   C.2       1 RES1   0.0000
    10 C10     27.2962  -4.1945 -14.9002   C.3       1 RES1   0.0000
    11 C11     25.7973  -3.9795 -14.6173   C.3       1 RES1   0.0000
    12 C12     24.9884  -3.1905 -15.6706   C.2       1 RES1   0.0000
    13 O13     25.5098  -2.7616 -16.6716   O.2       1 RES1   0.0000
    14 N14     23.7591  -2.9052 -15.2282   N.am      1 RES1   0.0000
    15 C15     22.8538  -2.0886 -15.8139   C.2       1 RES1   0.0000
    16 C16     22.9830  -1.4159 -17.0345   C.2       1 RES1   0.0000
    17 C17     21.9855  -0.5379 -17.5173   C.2       1 RES1   0.0000
    18 C18     22.0874   0.0982 -18.7432   C.2       1 RES1   0.0000
    19 N19     21.6666   1.3790 -18.9237   N.2       1 RES1   0.0000
    20 C20     21.9516   1.7575 -20.1360   C.2       1 RES1   0.0000
    21 S21     21.5515   3.3584 -20.7571   S.3       1 RES1   0.0000
    22 C22     20.7584   4.1428 -19.3852   C.3       1 RES1   0.0000
    23 N23     22.5732   0.7533 -20.7629   N.2       1 RES1   0.0000
    24 C24     22.6708  -0.2842 -19.9350   C.2       1 RES1   0.0000
    25 C25     23.2398  -1.4660 -20.3676   C.2       1 RES1   0.0000
    26 C26     24.3722  -1.5440 -21.2058   C.2       1 RES1   0.0000
    27 C27     24.9481  -2.7744 -21.6071   C.2       1 RES1   0.0000
    28 C28     24.3802  -3.9650 -21.1938   C.2       1 RES1   0.0000
    29 F29     24.8931  -5.1991 -21.5955   F         1 RES1   0.0000
    30 C30     23.2396  -3.8992 -20.3765   C.2       1 RES1   0.0000
    31 C31     22.6656  -2.6986 -19.9609   C.2       1 RES1   0.0000
    32 C32     20.8070  -0.4776 -16.7503   C.2       1 RES1   0.0000
    33 C33     20.6587  -1.1587 -15.5689   C.2       1 RES1   0.0000
    34 N34     21.6990  -1.9994 -15.0947   N.2       1 RES1   0.0000
    35 C35     28.4805  -4.1880 -12.8005   C.2       1 RES1   0.0000
@<TRIPOS>BOND
     1     1     2    1
     2     2     3    1
     3     3     4    2
     4     4     5    1
     5     5     6    2
     6     6     7    1
     7     7     8    1
     8     6     9    1
     9     9    10    1
    10    10    11    1
    11    11    12    1
    12    12    13    2
    13    12    14   am
    14    14    15    1
    15    15    16    2
    16    16    17    1
    17    17    18    1
    18    18    19    1
    19    19    20    2
    20    20    21    1
    21    21    22    1
    22    20    23    1
    23    23    24    1
    24    24    25    1
    25    25    26    2
    26    26    27    1
    27    27    28    2
    28    28    29    1
    29    28    30    1
    30    30    31    2
    31    17    32    2
    32    32    33    1
    33    33    34    2
    34     9    35    2
    35    35     3    1
    36    34    15    1
    37    24    18    2
    38    31    25    1
@<TRIPOS>SUBSTRUCTURE
     1 RES1        1 GROUP             0 ****  ****    0  
@<TRIPOS>MOLECULE
ligand_26
    35    38     1     0     0
SMALL
NO_CHARGES
****
Generated from the CSD

@<TRIPOS>ATOM
     1 C1      29.2419  -9.5754 -12.6095   C.3       1 RES1   0.0000
     2 O2      28.7078  -8.5261 -13.5240   O.3       1 RES1   0.0000
     3 C3      28.5650  -7.2191 -13.1053   C.2       1 RES1   0.0000
     4 C4      28.9047  -6.7659 -11.7995   C.2       1 RES1   0.0000
     5 C5      28.6998  -5.4190 -11.5042   C.2       1 RES1   0.0000
     6 C6      28.1889  -4.5068 -12.4773   C.2       1 RES1   0.0000
     7 O7      28.0216  -3.1742 -12.1706   O.3       1 RES1   0.0000
     8 C8      28.4185  -2.7792 -10.8253   C.3       1 RES1   0.0000
     9 C9      27.8235  -4.9534 -13.7752   C.2       1 RES1   0.0000
    10 C10     27.2962  -4.1945 -14.9002   C.3       1 RES1   0.0000
    11 C11     25.7973  -3.9795 -14.6173   C.3       1 RES1   0.0000
    12 C12     24.9884  -3.1905 -15.6706   C.2       1 RES1   0.0000
    13 O13     25.5098  -2.7616 -16.6716   O.2       1 RES1   0.0000
    14 N14     23.7591  -2.9052 -15.2282   N.am      1 RES1   0.0000
    15 C15     22.8538  -2.0886 -15.8139   C.2       1 RES1   0.0000
    16 C16     22.9830  -1.4159 -17.0345   C.2       1 RES1   0.0000
    17 C17     21.9855  -0.5379 -17.5173   C.2       1 RES1   0.0000
    18 C18     22.0874   0.0982 -18.7432   C.2       1 RES1   0.0000
    19 N19     21.6666   1.3790 -18.9237   N.2       1 RES1   0.0000
    20 C20     21.9516   1.7575 -20.1360   C.2       1 RES1   0.0000
    21 S21     21.5515   3.3584 -20.7570   S.3       1 RES1   0.0000
    22 C22     20.7584   4.1428 -19.3852   C.3       1 RES1   0.0000
    23 N23     22.5732   0.7533 -20.7629   N.2       1 RES1   0.0000
    24 C24     22.6708  -0.2842 -19.9349   C.2       1 RES1   0.0000
    25 C25     23.2398  -1.4660 -20.3676   C.2       1 RES1   0.0000
    26 C26     24.3722  -1.5439 -21.2058   C.2       1 RES1   0.0000
    27 C27     24.9481  -2.7744 -21.6071   C.2       1 RES1   0.0000
    28 C28     24.3802  -3.9650 -21.1938   C.2       1 RES1   0.0000
    29 F29     24.8931  -5.1991 -21.5955   F         1 RES1   0.0000
    30 C30     23.2396  -3.8992 -20.3765   C.2       1 RES1   0.0000
    31 C31     22.6656  -2.6986 -19.9609   C.2       1 RES1   0.0000
    32 C32     20.8070  -0.4776 -16.7503   C.2       1 RES1   0.0000
    33 C33     20.6587  -1.1587 -15.5689   C.2       1 RES1   0.0000
    34 N34     21.6990  -1.9994 -15.0947   N.2       1 RES1   0.0000
    35 C35     28.0394  -6.3159 -14.0293   C.2       1 RES1   0.0000
@<TRIPOS>BOND
     1     1     2    1
     2     2     3    1
     3     3     4    2
     4     4     5    1
     5     5     6    2
     6     6     7    1
     7     7     8    1
     8     6     9    1
     9     9    10    1
    10    10    11    1
    11    11    12    1
    12    12    13    2
    13    12    14   am
    14    14    15    1
    15    15    16    2
    16    16    17    1
    17    17    18    1
    18    18    19    1
    19    19    20    2
    20    20    21    1
    21    21    22    1
    22    20    23    1
    23    23    24    1
    24    24    25    1
    25    25    26    2
    26    26    27    1
    27    27    28    2
    28    28    29    1
    29    28    30    1
    30    30    31    2
    31    17    32    2
    32    32    33    1
    33    33    34    2
    34     9    35    2
    35    35     3    1
    36    34    15    1
    37    24    18    2
    38    31    25    1
@<TRIPOS>SUBSTRUCTURE
     1 RES1        1 GROUP             0 ****  ****    0  
@<TRIPOS>MOLECULE
ligand_27
    35    38     1     0     0
SMALL
NO_CHARGES
****
Generated from the CSD

@<TRIPOS>ATOM
     1 C1      28.3355  -8.9383 -14.9075   C.3       1 RES1   0.0000
     2 O2      28.7078  -8.5261 -13.5240   O.3       1 RES1   0.0000
     3 C3      28.5650  -7.2191 -13.1053   C.2       1 RES1   0.0000
     4 C4      28.9047  -6.7659 -11.7995   C.2       1 RES1   0.0000
     5 C5      28.6998  -5.4190 -11.5042   C.2       1 RES1   0.0000
     6 C6      28.1889  -4.5068 -12.4773   C.2       1 RES1   0.0000
     7 O7      28.0216  -3.1742 -12.1706   O.3       1 RES1   0.0000
     8 C8      28.4185  -2.7792 -10.8253   C.3       1 RES1   0.0000
     9 C9      27.8235  -4.9534 -13.7752   C.2       1 RES1   0.0000
    10 C10     27.2962  -4.1945 -14.9002   C.3       1 RES1   0.0000
    11 C11     25.7973  -3.9795 -14.6173   C.3       1 RES1   0.0000
    12 C12     24.9884  -3.1905 -15.6706   C.2       1 RES1   0.0000
    13 O13     25.5098  -2.7616 -16.6716   O.2       1 RES1   0.0000
    14 N14     23.7591  -2.9052 -15.2282   N.am      1 RES1   0.0000
    15 C15     22.8538  -2.0886 -15.8139   C.2       1 RES1   0.0000
    16 C16     22.9830  -1.4159 -17.0345   C.2       1 RES1   0.0000
    17 C17     21.9855  -0.5379 -17.5173   C.2       1 RES1   0.0000
    18 C18     22.0874   0.0982 -18.7432   C.2       1 RES1   0.0000
    19 N19     21.6666   1.3790 -18.9237   N.2       1 RES1   0.0000
    20 C20     21.9516   1.7575 -20.1360   C.2       1 RES1   0.0000
    21 S21     21.5515   3.3584 -20.7571   S.3       1 RES1   0.0000
    22 C22     20.7584   4.1428 -19.3852   C.3       1 RES1   0.0000
    23 N23     22.5732   0.7533 -20.7629   N.2       1 RES1   0.0000
    24 C24     22.6708  -0.2842 -19.9350   C.2       1 RES1   0.0000
    25 C25     23.2398  -1.4660 -20.3676   C.2       1 RES1   0.0000
    26 C26     24.3722  -1.5440 -21.2058   C.2       1 RES1   0.0000
    27 C27     24.9481  -2.7744 -21.6071   C.2       1 RES1   0.0000
    28 C28     24.3802  -3.9650 -21.1938   C.2       1 RES1   0.0000
    29 F29     24.8931  -5.1991 -21.5955   F         1 RES1   0.0000
    30 C30     23.2396  -3.8992 -20.3765   C.2       1 RES1   0.0000
    31 C31     22.6656  -2.6986 -19.9609   C.2       1 RES1   0.0000
    32 C32     20.8070  -0.4776 -16.7503   C.2       1 RES1   0.0000
    33 C33     20.6587  -1.1587 -15.5689   C.2       1 RES1   0.0000
    34 N34     21.6990  -1.9994 -15.0947   N.2       1 RES1   0.0000
    35 C35     28.0394  -6.3159 -14.0293   C.2       1 RES1   0.0000
@<TRIPOS>BOND
     1     1     2    1
     2     2     3    1
     3     3     4    2
     4     4     5    1
     5     5     6    2
     6     6     7    1
     7     7     8    1
     8     6     9    1
     9     9    10    1
    10    10    11    1
    11    11    12    1
    12    12    13    2
    13    12    14   am
    14    14    15    1
    15    15    16    2
    16    16    17    1
    17    17    18    1
    18    18    19    1
    19    19    20    2
    20    20    21    1
    21    21    22    1
    22    20    23    1
    23    23    24    1
    24    24    25    1
    25    25    26    2
    26    26    27    1
    27    27    28    2
    28    28    29    1
    29    28    30    1
    30    30    31    2
    31    17    32    2
    32    32    33    1
    33    33    34    2
    34     9    35    2
    35    35     3    1
    36    34    15    1
    37    24    18    2
    38    31    25    1
@<TRIPOS>SUBSTRUCTURE
     1 RES1        1 GROUP             0 ****  ****    0  
@<TRIPOS>MOLECULE
ligand_28
    35    38     1     0     0
SMALL
NO_CHARGES
****
Generated from the CSD

@<TRIPOS>ATOM
     1 C1      12.4186  -4.4159 -11.1871   C.3       1 RES1   0.0000
     2 O2      13.2587  -3.6698 -12.1670   O.3       1 RES1   0.0000
     3 C3      13.9158  -2.5108 -11.8078   C.2       1 RES1   0.0000
     4 C4      13.8535  -1.9378 -10.5064   C.2       1 RES1   0.0000
     5 C5      14.5579  -0.7562 -10.2811   C.2       1 RES1   0.0000
     6 C6      15.3401  -0.1419 -11.3062   C.2       1 RES1   0.0000
     7 O7      16.0505   1.0107 -11.0515   O.3       1 RES1   0.0000
     8 C8      15.9620   1.5214  -9.6897   C.3       1 RES1   0.0000
     9 C9      15.3892  -0.6916 -12.6150   C.2       1 RES1   0.0000
    10 C10     16.1209  -0.2292 -13.7857   C.3       1 RES1   0.0000
    11 C11     17.5782  -0.6931 -13.6007   C.3       1 RES1   0.0000
    12 C12     18.5803  -0.3274 -14.7180   C.2       1 RES1   0.0000
    13 O13     18.2349   0.2951 -15.6932   O.2       1 RES1   0.0000
    14 N14     19.7544  -0.9424 -14.5405   N.am      1 RES1   0.0000
    15 C15     20.7893  -0.9847 -15.4104   C.2       1 RES1   0.0000
    16 C16     20.8794  -0.3469 -16.6530   C.2       1 RES1   0.0000
    17 C17     21.9957  -0.5152 -17.5043   C.2       1 RES1   0.0000
    18 C18     22.1108   0.1455 -18.7159   C.2       1 RES1   0.0000
    19 N19     21.6954   1.4311 -18.8740   N.2       1 RES1   0.0000
    20 C20     21.9926   1.8333 -20.0758   C.2       1 RES1   0.0000
    21 S21     21.6030   3.4478 -20.6675   S.3       1 RES1   0.0000
    22 C22     20.7996   4.2066 -19.2872   C.3       1 RES1   0.0000
    23 N23     22.6170   0.8402 -20.7173   N.2       1 RES1   0.0000
    24 C24     22.7039  -0.2143 -19.9099   C.2       1 RES1   0.0000
    25 C25     23.2734  -1.3888 -20.3615   C.2       1 RES1   0.0000
    26 C26     24.4131  -1.4532 -21.1907   C.2       1 RES1   0.0000
    27 C27     24.9891  -2.6770 -21.6118   C.2       1 RES1   0.0000
    28 C28     24.4139  -3.8740 -21.2281   C.2       1 RES1   0.0000
    29 F29     24.9268  -5.1012 -21.6503   F         1 RES1   0.0000
    30 C30     23.2660  -3.8213 -20.4200   C.2       1 RES1   0.0000
    31 C31     22.6918  -2.6277 -19.9853   C.2       1 RES1   0.0000
    32 C32     23.0584  -1.2677 -16.9702   C.2       1 RES1   0.0000
    33 C33     22.9919  -1.8699 -15.7395   C.2       1 RES1   0.0000
    34 N34     21.8373  -1.7123 -14.9296   N.2       1 RES1   0.0000
    35 C35     14.6620  -1.8765 -12.8011   C.2       1 RES1   0.0000
@<TRIPOS>BOND
     1     1     2    1
     2     2     3    1
     3     3     4    2
     4     4     5    1
     5     5     6    2
     6     6     7    1
     7     7     8    1
     8     6     9    1
     9     9    10    1
    10    10    11    1
    11    11    12    1
    12    12    13    2
    13    12    14   am
    14    14    15    1
    15    15    16    2
    16    16    17    1
    17    17    18    1
    18    18    19    1
    19    19    20    2
    20    20    21    1
    21    21    22    1
    22    20    23    1
    23    23    24    1
    24    24    25    1
    25    25    26    2
    26    26    27    1
    27    27    28    2
    28    28    29    1
    29    28    30    1
    30    30    31    2
    31    17    32    2
    32    32    33    1
    33    33    34    2
    34     9    35    2
    35    35     3    1
    36    34    15    1
    37    24    18    2
    38    31    25    1
@<TRIPOS>SUBSTRUCTURE
     1 RES1        1 GROUP             0 ****  ****    0  
@<TRIPOS>MOLECULE
ligand_29
    35    38     1     0     0
SMALL
NO_CHARGES
****
Generated from the CSD

@<TRIPOS>ATOM
     1 C1      13.3657  -4.2212 -13.5480   C.3       1 RES1   0.0000
     2 O2      13.2587  -3.6698 -12.1670   O.3       1 RES1   0.0000
     3 C3      13.9158  -2.5108 -11.8078   C.2       1 RES1   0.0000
     4 C4      13.8535  -1.9378 -10.5064   C.2       1 RES1   0.0000
     5 C5      14.5579  -0.7562 -10.2811   C.2       1 RES1   0.0000
     6 C6      15.3401  -0.1419 -11.3062   C.2       1 RES1   0.0000
     7 O7      16.0505   1.0107 -11.0515   O.3       1 RES1   0.0000
     8 C8      15.9620   1.5214  -9.6897   C.3       1 RES1   0.0000
     9 C9      15.3892  -0.6916 -12.6150   C.2       1 RES1   0.0000
    10 C10     16.1209  -0.2292 -13.7857   C.3       1 RES1   0.0000
    11 C11     17.5782  -0.6932 -13.6007   C.3       1 RES1   0.0000
    12 C12     18.5803  -0.3274 -14.7180   C.2       1 RES1   0.0000
    13 O13     18.2349   0.2951 -15.6932   O.2       1 RES1   0.0000
    14 N14     19.7544  -0.9424 -14.5405   N.am      1 RES1   0.0000
    15 C15     20.7893  -0.9847 -15.4104   C.2       1 RES1   0.0000
    16 C16     20.8795  -0.3469 -16.6530   C.2       1 RES1   0.0000
    17 C17     21.9957  -0.5152 -17.5043   C.2       1 RES1   0.0000
    18 C18     22.1108   0.1455 -18.7159   C.2       1 RES1   0.0000
    19 N19     21.6954   1.4311 -18.8740   N.2       1 RES1   0.0000
    20 C20     21.9926   1.8333 -20.0757   C.2       1 RES1   0.0000
    21 S21     21.6030   3.4478 -20.6675   S.3       1 RES1   0.0000
    22 C22     20.7997   4.2066 -19.2872   C.3       1 RES1   0.0000
    23 N23     22.6170   0.8402 -20.7173   N.2       1 RES1   0.0000
    24 C24     22.7039  -0.2143 -19.9099   C.2       1 RES1   0.0000
    25 C25     23.2734  -1.3887 -20.3615   C.2       1 RES1   0.0000
    26 C26     24.4131  -1.4532 -21.1907   C.2       1 RES1   0.0000
    27 C27     24.9891  -2.6770 -21.6118   C.2       1 RES1   0.0000
    28 C28     24.4139  -3.8740 -21.2281   C.2       1 RES1   0.0000
    29 F29     24.9268  -5.1012 -21.6503   F         1 RES1   0.0000
    30 C30     23.2660  -3.8213 -20.4200   C.2       1 RES1   0.0000
    31 C31     22.6918  -2.6276 -19.9853   C.2       1 RES1   0.0000
    32 C32     23.0584  -1.2678 -16.9702   C.2       1 RES1   0.0000
    33 C33     22.9919  -1.8699 -15.7395   C.2       1 RES1   0.0000
    34 N34     21.8373  -1.7123 -14.9296   N.2       1 RES1   0.0000
    35 C35     14.6620  -1.8765 -12.8012   C.2       1 RES1   0.0000
@<TRIPOS>BOND
     1     1     2    1
     2     2     3    1
     3     3     4    2
     4     4     5    1
     5     5     6    2
     6     6     7    1
     7     7     8    1
     8     6     9    1
     9     9    10    1
    10    10    11    1
    11    11    12    1
    12    12    13    2
    13    12    14   am
    14    14    15    1
    15    15    16    2
    16    16    17    1
    17    17    18    1
    18    18    19    1
    19    19    20    2
    20    20    21    1
    21    21    22    1
    22    20    23    1
    23    23    24    1
    24    24    25    1
    25    25    26    2
    26    26    27    1
    27    27    28    2
    28    28    29    1
    29    28    30    1
    30    30    31    2
    31    17    32    2
    32    32    33    1
    33    33    34    2
    34     9    35    2
    35    35     3    1
    36    34    15    1
    37    24    18    2
    38    31    25    1
@<TRIPOS>SUBSTRUCTURE
     1 RES1        1 GROUP             0 ****  ****    0  
@<TRIPOS>MOLECULE
ligand_30
    35    38     1     0     0
SMALL
NO_CHARGES
****
Generated from the CSD

@<TRIPOS>ATOM
     1 C1      13.4882   1.0470  -8.3609   C.3       1 RES1   0.0000
     2 O2      14.2189   1.1723  -9.6544   O.3       1 RES1   0.0000
     3 C3      14.3981   0.0828 -10.4819   C.2       1 RES1   0.0000
     4 C4      13.9158  -1.2229 -10.1851   C.2       1 RES1   0.0000
     5 C5      14.1762  -2.2377 -11.1048   C.2       1 RES1   0.0000
     6 C6      14.8820  -1.9853 -12.3206   C.2       1 RES1   0.0000
     7 O7      15.1028  -2.9987 -13.2275   O.3       1 RES1   0.0000
     8 C8      14.5542  -4.3001 -12.8689   C.3       1 RES1   0.0000
     9 C9      15.3892  -0.6916 -12.6150   C.2       1 RES1   0.0000
    10 C10     16.1209  -0.2292 -13.7857   C.3       1 RES1   0.0000
    11 C11     17.5782  -0.6931 -13.6007   C.3       1 RES1   0.0000
    12 C12     18.5803  -0.3274 -14.7180   C.2       1 RES1   0.0000
    13 O13     18.2349   0.2951 -15.6932   O.2       1 RES1   0.0000
    14 N14     19.7544  -0.9424 -14.5405   N.am      1 RES1   0.0000
    15 C15     20.7893  -0.9847 -15.4104   C.2       1 RES1   0.0000
    16 C16     20.8794  -0.3469 -16.6530   C.2       1 RES1   0.0000
    17 C17     21.9957  -0.5152 -17.5043   C.2       1 RES1   0.0000
    18 C18     22.1108   0.1455 -18.7159   C.2       1 RES1   0.0000
    19 N19     21.6954   1.4311 -18.8740   N.2       1 RES1   0.0000
    20 C20     21.9926   1.8333 -20.0758   C.2       1 RES1   0.0000
    21 S21     21.6030   3.4478 -20.6675   S.3       1 RES1   0.0000
    22 C22     20.7996   4.2066 -19.2872   C.3       1 RES1   0.0000
    23 N23     22.6170   0.8402 -20.7173   N.2       1 RES1   0.0000
    24 C24     22.7039  -0.2143 -19.9099   C.2       1 RES1   0.0000
    25 C25     23.2734  -1.3888 -20.3615   C.2       1 RES1   0.0000
    26 C26     24.4131  -1.4532 -21.1907   C.2       1 RES1   0.0000
    27 C27     24.9891  -2.6770 -21.6118   C.2       1 RES1   0.0000
    28 C28     24.4139  -3.8740 -21.2281   C.2       1 RES1   0.0000
    29 F29     24.9268  -5.1012 -21.6503   F         1 RES1   0.0000
    30 C30     23.2660  -3.8213 -20.4200   C.2       1 RES1   0.0000
    31 C31     22.6918  -2.6277 -19.9853   C.2       1 RES1   0.0000
    32 C32     23.0584  -1.2677 -16.9702   C.2       1 RES1   0.0000
    33 C33     22.9919  -1.8699 -15.7395   C.2       1 RES1   0.0000
    34 N34     21.8373  -1.7123 -14.9296   N.2       1 RES1   0.0000
    35 C35     15.1110   0.2987 -11.6614   C.2       1 RES1   0.0000
@<TRIPOS>BOND
     1     1     2    1
     2     2     3    1
     3     3     4    2
     4     4     5    1
     5     5     6    2
     6     6     7    1
     7     7     8    1
     8     6     9    1
     9     9    10    1
    10    10    11    1
    11    11    12    1
    12    12    13    2
    13    12    14   am
    14    14    15    1
    15    15    16    2
    16    16    17    1
    17    17    18    1
    18    18    19    1
    19    19    20    2
    20    20    21    1
    21    21    22    1
    22    20    23    1
    23    23    24    1
    24    24    25    1
    25    25    26    2
    26    26    27    1
    27    27    28    2
    28    28    29    1
    29    28    30    1
    30    30    31    2
    31    17    32    2
    32    32    33    1
    33    33    34    2
    34     9    35    2
    35    35     3    1
    36    34    15    1
    37    24    18    2
    38    31    25    1
@<TRIPOS>SUBSTRUCTURE
     1 RES1        1 GROUP             0 ****  ****    0  
@<TRIPOS>MOLECULE
ligand_31
    35    38     1     0     0
SMALL
NO_CHARGES
****
Generated from the CSD

@<TRIPOS>ATOM
     1 C1      14.7473   2.5168 -10.0232   C.3       1 RES1   0.0000
     2 O2      14.2189   1.1723  -9.6544   O.3       1 RES1   0.0000
     3 C3      14.3981   0.0828 -10.4819   C.2       1 RES1   0.0000
     4 C4      13.9158  -1.2230 -10.1852   C.2       1 RES1   0.0000
     5 C5      14.1762  -2.2377 -11.1048   C.2       1 RES1   0.0000
     6 C6      14.8820  -1.9853 -12.3206   C.2       1 RES1   0.0000
     7 O7      15.1028  -2.9987 -13.2275   O.3       1 RES1   0.0000
     8 C8      14.5542  -4.3001 -12.8689   C.3       1 RES1   0.0000
     9 C9      15.3892  -0.6916 -12.6150   C.2       1 RES1   0.0000
    10 C10     16.1209  -0.2292 -13.7857   C.3       1 RES1   0.0000
    11 C11     17.5782  -0.6932 -13.6007   C.3       1 RES1   0.0000
    12 C12     18.5803  -0.3274 -14.7180   C.2       1 RES1   0.0000
    13 O13     18.2349   0.2951 -15.6932   O.2       1 RES1   0.0000
    14 N14     19.7544  -0.9424 -14.5405   N.am      1 RES1   0.0000
    15 C15     20.7893  -0.9847 -15.4104   C.2       1 RES1   0.0000
    16 C16     20.8795  -0.3469 -16.6530   C.2       1 RES1   0.0000
    17 C17     21.9957  -0.5152 -17.5043   C.2       1 RES1   0.0000
    18 C18     22.1108   0.1455 -18.7159   C.2       1 RES1   0.0000
    19 N19     21.6954   1.4311 -18.8740   N.2       1 RES1   0.0000
    20 C20     21.9926   1.8333 -20.0757   C.2       1 RES1   0.0000
    21 S21     21.6030   3.4478 -20.6675   S.3       1 RES1   0.0000
    22 C22     20.7997   4.2066 -19.2872   C.3       1 RES1   0.0000
    23 N23     22.6170   0.8402 -20.7173   N.2       1 RES1   0.0000
    24 C24     22.7039  -0.2143 -19.9099   C.2       1 RES1   0.0000
    25 C25     23.2734  -1.3887 -20.3615   C.2       1 RES1   0.0000
    26 C26     24.4131  -1.4532 -21.1907   C.2       1 RES1   0.0000
    27 C27     24.9891  -2.6770 -21.6118   C.2       1 RES1   0.0000
    28 C28     24.4139  -3.8740 -21.2281   C.2       1 RES1   0.0000
    29 F29     24.9268  -5.1012 -21.6503   F         1 RES1   0.0000
    30 C30     23.2660  -3.8213 -20.4200   C.2       1 RES1   0.0000
    31 C31     22.6918  -2.6276 -19.9853   C.2       1 RES1   0.0000
    32 C32     23.0584  -1.2678 -16.9702   C.2       1 RES1   0.0000
    33 C33     22.9919  -1.8699 -15.7395   C.2       1 RES1   0.0000
    34 N34     21.8373  -1.7123 -14.9296   N.2       1 RES1   0.0000
    35 C35     15.1110   0.2987 -11.6614   C.2       1 RES1   0.0000
@<TRIPOS>BOND
     1     1     2    1
     2     2     3    1
     3     3     4    2
     4     4     5    1
     5     5     6    2
     6     6     7    1
     7     7     8    1
     8     6     9    1
     9     9    10    1
    10    10    11    1
    11    11    12    1
    12    12    13    2
    13    12    14   am
    14    14    15    1
    15    15    16    2
    16    16    17    1
    17    17    18    1
    18    18    19    1
    19    19    20    2
    20    20    21    1
    21    21    22    1
    22    20    23    1
    23    23    24    1
    24    24    25    1
    25    25    26    2
    26    26    27    1
    27    27    28    2
    28    28    29    1
    29    28    30    1
    30    30    31    2
    31    17    32    2
    32    32    33    1
    33    33    34    2
    34     9    35    2
    35    35     3    1
    36    34    15    1
    37    24    18    2
    38    31    25    1
@<TRIPOS>SUBSTRUCTURE
     1 RES1        1 GROUP             0 ****  ****    0  
@<TRIPOS>MOLECULE
ligand_32
    35    38     1     0     0
SMALL
NO_CHARGES
****
Generated from the CSD

@<TRIPOS>ATOM
     1 C1      17.7284 -12.1542 -22.3084   C.3       1 RES1   0.0000
     2 O2      18.4293 -10.8406 -22.2313   O.3       1 RES1   0.0000
     3 C3      18.1924  -9.8490 -23.1612   C.2       1 RES1   0.0000
     4 C4      17.2835  -9.9854 -24.2480   C.2       1 RES1   0.0000
     5 C5      17.1472  -8.9078 -25.1217   C.2       1 RES1   0.0000
     6 C6      17.8716  -7.6915 -24.9317   C.2       1 RES1   0.0000
     7 O7      17.6990  -6.6299 -25.7925   O.3       1 RES1   0.0000
     8 C8      16.7310  -6.8330 -26.8625   C.3       1 RES1   0.0000
     9 C9      18.7995  -7.5538 -23.8651   C.2       1 RES1   0.0000
    10 C10     19.6236  -6.4112 -23.4977   C.3       1 RES1   0.0000
    11 C11     18.7025  -5.4335 -22.7434   C.3       1 RES1   0.0000
    12 C12     19.3362  -4.1193 -22.2359   C.2       1 RES1   0.0000
    13 O13     20.5028  -3.8707 -22.4230   O.2       1 RES1   0.0000
    14 N14     18.4970  -3.4491 -21.4391   N.am      1 RES1   0.0000
    15 C15     18.7827  -2.3589 -20.6912   C.2       1 RES1   0.0000
    16 C16     19.9959  -1.6631 -20.6351   C.2       1 RES1   0.0000
    17 C17     20.1929  -0.5661 -19.7651   C.2       1 RES1   0.0000
    18 C18     21.3758   0.1531 -19.7344   C.2       1 RES1   0.0000
    19 N19     21.4053   1.4711 -19.3992   N.2       1 RES1   0.0000
    20 C20     22.6412   1.8785 -19.3685   C.2       1 RES1   0.0000
    21 S21     23.0914   3.5391 -18.9833   S.3       1 RES1   0.0000
    22 C22     21.5354   4.3295 -18.6997   C.3       1 RES1   0.0000
    23 N23     23.4394   0.8466 -19.6611   N.2       1 RES1   0.0000
    24 C24     22.6928  -0.2303 -19.8943   C.2       1 RES1   0.0000
    25 C25     23.2882  -1.4209 -20.2624   C.2       1 RES1   0.0000
    26 C26     24.4093  -1.5203 -21.1134   C.2       1 RES1   0.0000
    27 C27     25.0135  -2.7573 -21.4473   C.2       1 RES1   0.0000
    28 C28     24.4859  -3.9347 -20.9511   C.2       1 RES1   0.0000
    29 F29     25.0273  -5.1771 -21.2841   F         1 RES1   0.0000
    30 C30     23.3566  -3.8490 -20.1200   C.2       1 RES1   0.0000
    31 C31     22.7554  -2.6408 -19.7701   C.2       1 RES1   0.0000
    32 C32     19.0557  -0.1473 -19.0493   C.2       1 RES1   0.0000
    33 C33     17.8534  -0.8037 -19.1226   C.2       1 RES1   0.0000
    34 N34     17.7049  -1.9271 -19.9767   N.2       1 RES1   0.0000
    35 C35     18.9111  -8.6627 -23.0133   C.2       1 RES1   0.0000
@<TRIPOS>BOND
     1     1     2    1
     2     2     3    1
     3     3     4    2
     4     4     5    1
     5     5     6    2
     6     6     7    1
     7     7     8    1
     8     6     9    1
     9     9    10    1
    10    10    11    1
    11    11    12    1
    12    12    13    2
    13    12    14   am
    14    14    15    1
    15    15    16    2
    16    16    17    1
    17    17    18    1
    18    18    19    1
    19    19    20    2
    20    20    21    1
    21    21    22    1
    22    20    23    1
    23    23    24    1
    24    24    25    1
    25    25    26    2
    26    26    27    1
    27    27    28    2
    28    28    29    1
    29    28    30    1
    30    30    31    2
    31    17    32    2
    32    32    33    1
    33    33    34    2
    34     9    35    2
    35    35     3    1
    36    34    15    1
    37    24    18    2
    38    31    25    1
@<TRIPOS>SUBSTRUCTURE
     1 RES1        1 GROUP             0 ****  ****    0  
@<TRIPOS>MOLECULE
ligand_33
    35    38     1     0     0
SMALL
NO_CHARGES
****
Generated from the CSD

@<TRIPOS>ATOM
     1 C1      32.5640  -3.1601 -23.7034   C.3       1 RES1   0.0000
     2 O2      33.6342  -3.1672 -22.6656   O.3       1 RES1   0.0000
     3 C3      33.3292  -3.0590 -21.3242   C.2       1 RES1   0.0000
     4 C4      34.3061  -3.0580 -20.2891   C.2       1 RES1   0.0000
     5 C5      33.8595  -2.9529 -18.9727   C.2       1 RES1   0.0000
     6 C6      32.4718  -2.8259 -18.6591   C.2       1 RES1   0.0000
     7 O7      32.0566  -2.6950 -17.3520   O.3       1 RES1   0.0000
     8 C8      33.1149  -2.6729 -16.3506   C.3       1 RES1   0.0000
     9 C9      31.4871  -2.8507 -19.6825   C.2       1 RES1   0.0000
    10 C10     30.0399  -2.7318 -19.5768   C.3       1 RES1   0.0000
    11 C11     29.7369  -1.2313 -19.4042   C.3       1 RES1   0.0000
    12 C12     28.2531  -0.8244 -19.2667   C.2       1 RES1   0.0000
    13 O13     27.3704  -1.6476 -19.2936   O.2       1 RES1   0.0000
    14 N14     28.1050   0.5039 -19.3163   N.am      1 RES1   0.0000
    15 C15     26.9420   1.1893 -19.4002   C.2       1 RES1   0.0000
    16 C16     25.6450   0.6631 -19.3950   C.2       1 RES1   0.0000
    17 C17     24.5021   1.4811 -19.5487   C.2       1 RES1   0.0000
    18 C18     23.2147   0.9730 -19.5024   C.2       1 RES1   0.0000
    19 N19     22.1616   1.7250 -19.0831   N.2       1 RES1   0.0000
    20 C20     21.0640   1.0380 -19.2158   C.2       1 RES1   0.0000
    21 S21     19.4805   1.6692 -18.7656   S.3       1 RES1   0.0000
    22 C22     19.8423   3.2938 -18.1689   C.3       1 RES1   0.0000
    23 N23     21.3668  -0.1564 -19.7348   N.2       1 RES1   0.0000
    24 C24     22.6826  -0.2305 -19.9211   C.2       1 RES1   0.0000
    25 C25     23.2498  -1.3910 -20.4100   C.2       1 RES1   0.0000
    26 C26     24.3457  -1.4284 -21.2979   C.2       1 RES1   0.0000
    27 C27     24.9220  -2.6383 -21.7570   C.2       1 RES1   0.0000
    28 C28     24.3904  -3.8485 -21.3523   C.2       1 RES1   0.0000
    29 F29     24.9037  -5.0630 -21.8092   F         1 RES1   0.0000
    30 C30     23.2855  -3.8228 -20.4851   C.2       1 RES1   0.0000
    31 C31     22.7123  -2.6431 -20.0127   C.2       1 RES1   0.0000
    32 C32     24.7479   2.8664 -19.5874   C.2       1 RES1   0.0000
    33 C33     26.0142   3.3931 -19.5604   C.2       1 RES1   0.0000
    34 N34     27.1405   2.5373 -19.4467   N.2       1 RES1   0.0000
    35 C35     31.9778  -2.9640 -20.9916   C.2       1 RES1   0.0000
@<TRIPOS>BOND
     1     1     2    1
     2     2     3    1
     3     3     4    2
     4     4     5    1
     5     5     6    2
     6     6     7    1
     7     7     8    1
     8     6     9    1
     9     9    10    1
    10    10    11    1
    11    11    12    1
    12    12    13    2
    13    12    14   am
    14    14    15    1
    15    15    16    2
    16    16    17    1
    17    17    18    1
    18    18    19    1
    19    19    20    2
    20    20    21    1
    21    21    22    1
    22    20    23    1
    23    23    24    1
    24    24    25    1
    25    25    26    2
    26    26    27    1
    27    27    28    2
    28    28    29    1
    29    28    30    1
    30    30    31    2
    31    17    32    2
    32    32    33    1
    33    33    34    2
    34     9    35    2
    35    35     3    1
    36    34    15    1
    37    24    18    2
    38    31    25    1
@<TRIPOS>SUBSTRUCTURE
     1 RES1        1 GROUP             0 ****  ****    0  
@<TRIPOS>MOLECULE
ligand_34
    35    38     1     0     0
SMALL
NO_CHARGES
****
Generated from the CSD

@<TRIPOS>ATOM
     1 C1      35.4192  -4.2283 -16.9669   C.3       1 RES1   0.0000
     2 O2      33.9667  -3.9837 -17.1971   O.3       1 RES1   0.0000
     3 C3      33.5032  -3.5284 -18.4144   C.2       1 RES1   0.0000
     4 C4      34.3451  -3.2583 -19.5298   C.2       1 RES1   0.0000
     5 C5      33.7466  -2.7914 -20.6990   C.2       1 RES1   0.0000
     6 C6      32.3335  -2.6079 -20.7970   C.2       1 RES1   0.0000
     7 O7      31.7620  -2.1722 -21.9724   O.3       1 RES1   0.0000
     8 C8      32.6832  -1.9448 -23.0783   C.3       1 RES1   0.0000
     9 C9      31.4871  -2.8507 -19.6825   C.2       1 RES1   0.0000
    10 C10     30.0399  -2.7318 -19.5768   C.3       1 RES1   0.0000
    11 C11     29.7369  -1.2313 -19.4042   C.3       1 RES1   0.0000
    12 C12     28.2531  -0.8244 -19.2667   C.2       1 RES1   0.0000
    13 O13     27.3704  -1.6476 -19.2936   O.2       1 RES1   0.0000
    14 N14     28.1050   0.5039 -19.3163   N.am      1 RES1   0.0000
    15 C15     26.9420   1.1893 -19.4002   C.2       1 RES1   0.0000
    16 C16     25.6450   0.6631 -19.3950   C.2       1 RES1   0.0000
    17 C17     24.5021   1.4811 -19.5487   C.2       1 RES1   0.0000
    18 C18     23.2147   0.9730 -19.5024   C.2       1 RES1   0.0000
    19 N19     22.1616   1.7250 -19.0831   N.2       1 RES1   0.0000
    20 C20     21.0640   1.0380 -19.2158   C.2       1 RES1   0.0000
    21 S21     19.4805   1.6692 -18.7656   S.3       1 RES1   0.0000
    22 C22     19.8423   3.2938 -18.1689   C.3       1 RES1   0.0000
    23 N23     21.3668  -0.1564 -19.7348   N.2       1 RES1   0.0000
    24 C24     22.6826  -0.2305 -19.9211   C.2       1 RES1   0.0000
    25 C25     23.2498  -1.3910 -20.4100   C.2       1 RES1   0.0000
    26 C26     24.3457  -1.4284 -21.2979   C.2       1 RES1   0.0000
    27 C27     24.9220  -2.6383 -21.7570   C.2       1 RES1   0.0000
    28 C28     24.3904  -3.8485 -21.3523   C.2       1 RES1   0.0000
    29 F29     24.9037  -5.0630 -21.8093   F         1 RES1   0.0000
    30 C30     23.2855  -3.8228 -20.4852   C.2       1 RES1   0.0000
    31 C31     22.7123  -2.6431 -20.0127   C.2       1 RES1   0.0000
    32 C32     24.7479   2.8664 -19.5874   C.2       1 RES1   0.0000
    33 C33     26.0142   3.3931 -19.5604   C.2       1 RES1   0.0000
    34 N34     27.1405   2.5373 -19.4467   N.2       1 RES1   0.0000
    35 C35     32.1294  -3.3130 -18.5244   C.2       1 RES1   0.0000
@<TRIPOS>BOND
     1     1     2    1
     2     2     3    1
     3     3     4    2
     4     4     5    1
     5     5     6    2
     6     6     7    1
     7     7     8    1
     8     6     9    1
     9     9    10    1
    10    10    11    1
    11    11    12    1
    12    12    13    2
    13    12    14   am
    14    14    15    1
    15    15    16    2
    16    16    17    1
    17    17    18    1
    18    18    19    1
    19    19    20    2
    20    20    21    1
    21    21    22    1
    22    20    23    1
    23    23    24    1
    24    24    25    1
    25    25    26    2
    26    26    27    1
    27    27    28    2
    28    28    29    1
    29    28    30    1
    30    30    31    2
    31    17    32    2
    32    32    33    1
    33    33    34    2
    34     9    35    2
    35    35     3    1
    36    34    15    1
    37    24    18    2
    38    31    25    1
@<TRIPOS>SUBSTRUCTURE
     1 RES1        1 GROUP             0 ****  ****    0  
@<TRIPOS>MOLECULE
ligand_35
    35    38     1     0     0
SMALL
NO_CHARGES
****
Generated from the CSD

@<TRIPOS>ATOM
     1 C1      33.0324  -4.2502 -16.0663   C.3       1 RES1   0.0000
     2 O2      33.9667  -3.9837 -17.1971   O.3       1 RES1   0.0000
     3 C3      33.5032  -3.5284 -18.4144   C.2       1 RES1   0.0000
     4 C4      34.3451  -3.2583 -19.5298   C.2       1 RES1   0.0000
     5 C5      33.7466  -2.7914 -20.6990   C.2       1 RES1   0.0000
     6 C6      32.3335  -2.6079 -20.7970   C.2       1 RES1   0.0000
     7 O7      31.7620  -2.1722 -21.9724   O.3       1 RES1   0.0000
     8 C8      32.6832  -1.9448 -23.0783   C.3       1 RES1   0.0000
     9 C9      31.4871  -2.8507 -19.6825   C.2       1 RES1   0.0000
    10 C10     30.0399  -2.7318 -19.5768   C.3       1 RES1   0.0000
    11 C11     29.7369  -1.2313 -19.4042   C.3       1 RES1   0.0000
    12 C12     28.2531  -0.8244 -19.2667   C.2       1 RES1   0.0000
    13 O13     27.3704  -1.6476 -19.2936   O.2       1 RES1   0.0000
    14 N14     28.1050   0.5039 -19.3163   N.am      1 RES1   0.0000
    15 C15     26.9420   1.1893 -19.4002   C.2       1 RES1   0.0000
    16 C16     25.6450   0.6631 -19.3950   C.2       1 RES1   0.0000
    17 C17     24.5021   1.4811 -19.5487   C.2       1 RES1   0.0000
    18 C18     23.2147   0.9730 -19.5024   C.2       1 RES1   0.0000
    19 N19     22.1616   1.7250 -19.0831   N.2       1 RES1   0.0000
    20 C20     21.0640   1.0380 -19.2158   C.2       1 RES1   0.0000
    21 S21     19.4805   1.6692 -18.7656   S.3       1 RES1   0.0000
    22 C22     19.8423   3.2938 -18.1689   C.3       1 RES1   0.0000
    23 N23     21.3668  -0.1564 -19.7348   N.2       1 RES1   0.0000
    24 C24     22.6826  -0.2305 -19.9211   C.2       1 RES1   0.0000
    25 C25     23.2498  -1.3910 -20.4100   C.2       1 RES1   0.0000
    26 C26     24.3457  -1.4284 -21.2979   C.2       1 RES1   0.0000
    27 C27     24.9220  -2.6383 -21.7570   C.2       1 RES1   0.0000
    28 C28     24.3904  -3.8485 -21.3523   C.2       1 RES1   0.0000
    29 F29     24.9037  -5.0630 -21.8092   F         1 RES1   0.0000
    30 C30     23.2855  -3.8228 -20.4851   C.2       1 RES1   0.0000
    31 C31     22.7123  -2.6431 -20.0127   C.2       1 RES1   0.0000
    32 C32     24.7479   2.8664 -19.5874   C.2       1 RES1   0.0000
    33 C33     26.0142   3.3931 -19.5604   C.2       1 RES1   0.0000
    34 N34     27.1405   2.5373 -19.4467   N.2       1 RES1   0.0000
    35 C35     32.1294  -3.3130 -18.5244   C.2       1 RES1   0.0000
@<TRIPOS>BOND
     1     1     2    1
     2     2     3    1
     3     3     4    2
     4     4     5    1
     5     5     6    2
     6     6     7    1
     7     7     8    1
     8     6     9    1
     9     9    10    1
    10    10    11    1
    11    11    12    1
    12    12    13    2
    13    12    14   am
    14    14    15    1
    15    15    16    2
    16    16    17    1
    17    17    18    1
    18    18    19    1
    19    19    20    2
    20    20    21    1
    21    21    22    1
    22    20    23    1
    23    23    24    1
    24    24    25    1
    25    25    26    2
    26    26    27    1
    27    27    28    2
    28    28    29    1
    29    28    30    1
    30    30    31    2
    31    17    32    2
    32    32    33    1
    33    33    34    2
    34     9    35    2
    35    35     3    1
    36    34    15    1
    37    24    18    2
    38    31    25    1
@<TRIPOS>SUBSTRUCTURE
     1 RES1        1 GROUP             0 ****  ****    0  
@<TRIPOS>MOLECULE
ligand_36
    35    38     1     0     0
SMALL
NO_CHARGES
****
Generated from the CSD

@<TRIPOS>ATOM
     1 C1      32.0370   5.1356 -10.8077   C.3       1 RES1   0.0000
     2 O2      30.7929   4.7582 -11.5374   O.3       1 RES1   0.0000
     3 C3      30.1098   5.6773 -12.3073   C.2       1 RES1   0.0000
     4 C4      30.5185   7.0308 -12.4707   C.2       1 RES1   0.0000
     5 C5      29.7292   7.8572 -13.2691   C.2       1 RES1   0.0000
     6 C6      28.5591   7.3695 -13.9272   C.2       1 RES1   0.0000
     7 O7      27.8106   8.1981 -14.7340   O.3       1 RES1   0.0000
     8 C8      28.3072   9.5606 -14.8768   C.3       1 RES1   0.0000
     9 C9      28.1286   6.0274 -13.7510   C.2       1 RES1   0.0000
    10 C10     26.9825   5.3402 -14.3288   C.3       1 RES1   0.0000
    11 C11     27.3813   4.9604 -15.7675   C.3       1 RES1   0.0000
    12 C12     26.3296   4.2103 -16.6145   C.2       1 RES1   0.0000
    13 O13     25.2427   3.9343 -16.1670   O.2       1 RES1   0.0000
    14 N14     26.8529   3.7697 -17.7637   N.am      1 RES1   0.0000
    15 C15     26.2700   2.9364 -18.6554   C.2       1 RES1   0.0000
    16 C16     24.9761   2.4054 -18.5999   C.2       1 RES1   0.0000
    17 C17     24.4970   1.4923 -19.5672   C.2       1 RES1   0.0000
    18 C18     23.2046   0.9955 -19.5422   C.2       1 RES1   0.0000
    19 N19     22.1202   1.8165 -19.5653   N.2       1 RES1   0.0000
    20 C20     21.0375   1.0958 -19.6174   C.2       1 RES1   0.0000
    21 S21     19.4212   1.7993 -19.6493   S.3       1 RES1   0.0000
    22 C22     19.7311   3.5392 -19.5949   C.3       1 RES1   0.0000
    23 N23     21.3838  -0.1953 -19.6475   N.2       1 RES1   0.0000
    24 C24     22.7104  -0.2926 -19.6000   C.2       1 RES1   0.0000
    25 C25     23.3144  -1.5343 -19.5745   C.2       1 RES1   0.0000
    26 C26     24.5023  -1.8558 -20.2648   C.2       1 RES1   0.0000
    27 C27     25.1114  -3.1327 -20.1930   C.2       1 RES1   0.0000
    28 C28     24.5231  -4.1324 -19.4410   C.2       1 RES1   0.0000
    29 F29     25.0694  -5.4146 -19.3723   F         1 RES1   0.0000
    30 C30     23.3285  -3.8295 -18.7667   C.2       1 RES1   0.0000
    31 C31     22.7205  -2.5759 -18.8149   C.2       1 RES1   0.0000
    32 C32     25.3615   1.2461 -20.6502   C.2       1 RES1   0.0000
    33 C33     26.6193   1.7877 -20.7293   C.2       1 RES1   0.0000
    34 N34     27.0818   2.6686 -19.7175   N.2       1 RES1   0.0000
    35 C35     28.9469   5.2316 -12.9357   C.2       1 RES1   0.0000
@<TRIPOS>BOND
     1     1     2    1
     2     2     3    1
     3     3     4    2
     4     4     5    1
     5     5     6    2
     6     6     7    1
     7     7     8    1
     8     6     9    1
     9     9    10    1
    10    10    11    1
    11    11    12    1
    12    12    13    2
    13    12    14   am
    14    14    15    1
    15    15    16    2
    16    16    17    1
    17    17    18    1
    18    18    19    1
    19    19    20    2
    20    20    21    1
    21    21    22    1
    22    20    23    1
    23    23    24    1
    24    24    25    1
    25    25    26    2
    26    26    27    1
    27    27    28    2
    28    28    29    1
    29    28    30    1
    30    30    31    2
    31    17    32    2
    32    32    33    1
    33    33    34    2
    34     9    35    2
    35    35     3    1
    36    34    15    1
    37    24    18    2
    38    31    25    1
@<TRIPOS>SUBSTRUCTURE
     1 RES1        1 GROUP             0 ****  ****    0  
@<TRIPOS>MOLECULE
ligand_37
    35    38     1     0     0
SMALL
NO_CHARGES
****
Generated from the CSD

@<TRIPOS>ATOM
     1 C1      30.3141   3.3523 -11.4077   C.3       1 RES1   0.0000
     2 O2      30.7929   4.7582 -11.5374   O.3       1 RES1   0.0000
     3 C3      30.1098   5.6773 -12.3073   C.2       1 RES1   0.0000
     4 C4      30.5185   7.0308 -12.4707   C.2       1 RES1   0.0000
     5 C5      29.7292   7.8572 -13.2691   C.2       1 RES1   0.0000
     6 C6      28.5591   7.3695 -13.9272   C.2       1 RES1   0.0000
     7 O7      27.8106   8.1981 -14.7340   O.3       1 RES1   0.0000
     8 C8      28.3072   9.5606 -14.8768   C.3       1 RES1   0.0000
     9 C9      28.1286   6.0274 -13.7510   C.2       1 RES1   0.0000
    10 C10     26.9825   5.3402 -14.3288   C.3       1 RES1   0.0000
    11 C11     27.3813   4.9604 -15.7675   C.3       1 RES1   0.0000
    12 C12     26.3296   4.2103 -16.6145   C.2       1 RES1   0.0000
    13 O13     25.2427   3.9343 -16.1670   O.2       1 RES1   0.0000
    14 N14     26.8529   3.7697 -17.7637   N.am      1 RES1   0.0000
    15 C15     26.2700   2.9364 -18.6554   C.2       1 RES1   0.0000
    16 C16     24.9761   2.4054 -18.5999   C.2       1 RES1   0.0000
    17 C17     24.4970   1.4923 -19.5672   C.2       1 RES1   0.0000
    18 C18     23.2046   0.9955 -19.5422   C.2       1 RES1   0.0000
    19 N19     22.1202   1.8165 -19.5653   N.2       1 RES1   0.0000
    20 C20     21.0375   1.0958 -19.6174   C.2       1 RES1   0.0000
    21 S21     19.4212   1.7993 -19.6493   S.3       1 RES1   0.0000
    22 C22     19.7311   3.5392 -19.5949   C.3       1 RES1   0.0000
    23 N23     21.3838  -0.1953 -19.6475   N.2       1 RES1   0.0000
    24 C24     22.7104  -0.2926 -19.6000   C.2       1 RES1   0.0000
    25 C25     23.3144  -1.5343 -19.5745   C.2       1 RES1   0.0000
    26 C26     24.5023  -1.8558 -20.2648   C.2       1 RES1   0.0000
    27 C27     25.1114  -3.1327 -20.1930   C.2       1 RES1   0.0000
    28 C28     24.5231  -4.1324 -19.4410   C.2       1 RES1   0.0000
    29 F29     25.0693  -5.4146 -19.3723   F         1 RES1   0.0000
    30 C30     23.3285  -3.8295 -18.7667   C.2       1 RES1   0.0000
    31 C31     22.7205  -2.5759 -18.8149   C.2       1 RES1   0.0000
    32 C32     25.3615   1.2461 -20.6502   C.2       1 RES1   0.0000
    33 C33     26.6193   1.7877 -20.7293   C.2       1 RES1   0.0000
    34 N34     27.0818   2.6686 -19.7175   N.2       1 RES1   0.0000
    35 C35     28.9469   5.2317 -12.9357   C.2       1 RES1   0.0000
@<TRIPOS>BOND
     1     1     2    1
     2     2     3    1
     3     3     4    2
     4     4     5    1
     5     5     6    2
     6     6     7    1
     7     7     8    1
     8     6     9    1
     9     9    10    1
    10    10    11    1
    11    11    12    1
    12    12    13    2
    13    12    14   am
    14    14    15    1
    15    15    16    2
    16    16    17    1
    17    17    18    1
    18    18    19    1
    19    19    20    2
    20    20    21    1
    21    21    22    1
    22    20    23    1
    23    23    24    1
    24    24    25    1
    25    25    26    2
    26    26    27    1
    27    27    28    2
    28    28    29    1
    29    28    30    1
    30    30    31    2
    31    17    32    2
    32    32    33    1
    33    33    34    2
    34     9    35    2
    35    35     3    1
    36    34    15    1
    37    24    18    2
    38    31    25    1
@<TRIPOS>SUBSTRUCTURE
     1 RES1        1 GROUP             0 ****  ****    0  
@<TRIPOS>MOLECULE
ligand_38
    35    38     1     0     0
SMALL
NO_CHARGES
****
Generated from the CSD

@<TRIPOS>ATOM
     1 C1      29.6529  10.6196 -12.6013   C.3       1 RES1   0.0000
     2 O2      28.6840   9.6229 -13.1402   O.3       1 RES1   0.0000
     3 C3      28.9689   8.2728 -13.1314   C.2       1 RES1   0.0000
     4 C4      30.1790   7.7237 -12.6216   C.2       1 RES1   0.0000
     5 C5      30.3434   6.3409 -12.6838   C.2       1 RES1   0.0000
     6 C6      29.3293   5.4880 -13.2171   C.2       1 RES1   0.0000
     7 O7      29.5028   4.1216 -13.2421   O.3       1 RES1   0.0000
     8 C8      30.7530   3.6315 -12.6762   C.3       1 RES1   0.0000
     9 C9      28.1286   6.0274 -13.7510   C.2       1 RES1   0.0000
    10 C10     26.9825   5.3402 -14.3288   C.3       1 RES1   0.0000
    11 C11     27.3813   4.9604 -15.7675   C.3       1 RES1   0.0000
    12 C12     26.3296   4.2103 -16.6145   C.2       1 RES1   0.0000
    13 O13     25.2427   3.9343 -16.1670   O.2       1 RES1   0.0000
    14 N14     26.8529   3.7697 -17.7637   N.am      1 RES1   0.0000
    15 C15     26.2700   2.9364 -18.6554   C.2       1 RES1   0.0000
    16 C16     24.9761   2.4054 -18.5999   C.2       1 RES1   0.0000
    17 C17     24.4970   1.4923 -19.5672   C.2       1 RES1   0.0000
    18 C18     23.2046   0.9955 -19.5422   C.2       1 RES1   0.0000
    19 N19     22.1202   1.8165 -19.5653   N.2       1 RES1   0.0000
    20 C20     21.0375   1.0958 -19.6174   C.2       1 RES1   0.0000
    21 S21     19.4212   1.7993 -19.6493   S.3       1 RES1   0.0000
    22 C22     19.7311   3.5392 -19.5949   C.3       1 RES1   0.0000
    23 N23     21.3838  -0.1953 -19.6475   N.2       1 RES1   0.0000
    24 C24     22.7104  -0.2926 -19.6000   C.2       1 RES1   0.0000
    25 C25     23.3144  -1.5343 -19.5745   C.2       1 RES1   0.0000
    26 C26     24.5023  -1.8558 -20.2648   C.2       1 RES1   0.0000
    27 C27     25.1114  -3.1327 -20.1930   C.2       1 RES1   0.0000
    28 C28     24.5231  -4.1324 -19.4410   C.2       1 RES1   0.0000
    29 F29     25.0694  -5.4146 -19.3723   F         1 RES1   0.0000
    30 C30     23.3285  -3.8295 -18.7667   C.2       1 RES1   0.0000
    31 C31     22.7205  -2.5759 -18.8149   C.2       1 RES1   0.0000
    32 C32     25.3615   1.2461 -20.6502   C.2       1 RES1   0.0000
    33 C33     26.6193   1.7877 -20.7293   C.2       1 RES1   0.0000
    34 N34     27.0818   2.6686 -19.7175   N.2       1 RES1   0.0000
    35 C35     28.0057   7.4226 -13.6748   C.2       1 RES1   0.0000
@<TRIPOS>BOND
     1     1     2    1
     2     2     3    1
     3     3     4    2
     4     4     5    1
     5     5     6    2
     6     6     7    1
     7     7     8    1
     8     6     9    1
     9     9    10    1
    10    10    11    1
    11    11    12    1
    12    12    13    2
    13    12    14   am
    14    14    15    1
    15    15    16    2
    16    16    17    1
    17    17    18    1
    18    18    19    1
    19    19    20    2
    20    20    21    1
    21    21    22    1
    22    20    23    1
    23    23    24    1
    24    24    25    1
    25    25    26    2
    26    26    27    1
    27    27    28    2
    28    28    29    1
    29    28    30    1
    30    30    31    2
    31    17    32    2
    32    32    33    1
    33    33    34    2
    34     9    35    2
    35    35     3    1
    36    34    15    1
    37    24    18    2
    38    31    25    1
@<TRIPOS>SUBSTRUCTURE
     1 RES1        1 GROUP             0 ****  ****    0  
@<TRIPOS>MOLECULE
ligand_39
    35    38     1     0     0
SMALL
NO_CHARGES
****
Generated from the CSD

@<TRIPOS>ATOM
     1 C1      27.3955  10.1361 -13.6870   C.3       1 RES1   0.0000
     2 O2      28.6840   9.6229 -13.1402   O.3       1 RES1   0.0000
     3 C3      28.9689   8.2728 -13.1314   C.2       1 RES1   0.0000
     4 C4      30.1790   7.7237 -12.6216   C.2       1 RES1   0.0000
     5 C5      30.3434   6.3409 -12.6838   C.2       1 RES1   0.0000
     6 C6      29.3293   5.4880 -13.2171   C.2       1 RES1   0.0000
     7 O7      29.5028   4.1216 -13.2421   O.3       1 RES1   0.0000
     8 C8      30.7530   3.6315 -12.6762   C.3       1 RES1   0.0000
     9 C9      28.1286   6.0274 -13.7510   C.2       1 RES1   0.0000
    10 C10     26.9825   5.3402 -14.3288   C.3       1 RES1   0.0000
    11 C11     27.3813   4.9604 -15.7675   C.3       1 RES1   0.0000
    12 C12     26.3296   4.2103 -16.6145   C.2       1 RES1   0.0000
    13 O13     25.2427   3.9343 -16.1670   O.2       1 RES1   0.0000
    14 N14     26.8529   3.7697 -17.7637   N.am      1 RES1   0.0000
    15 C15     26.2700   2.9364 -18.6554   C.2       1 RES1   0.0000
    16 C16     24.9761   2.4054 -18.5999   C.2       1 RES1   0.0000
    17 C17     24.4970   1.4923 -19.5672   C.2       1 RES1   0.0000
    18 C18     23.2046   0.9955 -19.5422   C.2       1 RES1   0.0000
    19 N19     22.1202   1.8165 -19.5653   N.2       1 RES1   0.0000
    20 C20     21.0375   1.0958 -19.6174   C.2       1 RES1   0.0000
    21 S21     19.4212   1.7993 -19.6493   S.3       1 RES1   0.0000
    22 C22     19.7311   3.5392 -19.5949   C.3       1 RES1   0.0000
    23 N23     21.3838  -0.1953 -19.6475   N.2       1 RES1   0.0000
    24 C24     22.7104  -0.2926 -19.6000   C.2       1 RES1   0.0000
    25 C25     23.3144  -1.5343 -19.5745   C.2       1 RES1   0.0000
    26 C26     24.5023  -1.8558 -20.2648   C.2       1 RES1   0.0000
    27 C27     25.1114  -3.1327 -20.1930   C.2       1 RES1   0.0000
    28 C28     24.5231  -4.1324 -19.4410   C.2       1 RES1   0.0000
    29 F29     25.0693  -5.4146 -19.3723   F         1 RES1   0.0000
    30 C30     23.3285  -3.8295 -18.7667   C.2       1 RES1   0.0000
    31 C31     22.7205  -2.5759 -18.8149   C.2       1 RES1   0.0000
    32 C32     25.3615   1.2461 -20.6502   C.2       1 RES1   0.0000
    33 C33     26.6193   1.7877 -20.7293   C.2       1 RES1   0.0000
    34 N34     27.0818   2.6686 -19.7175   N.2       1 RES1   0.0000
    35 C35     28.0057   7.4226 -13.6748   C.2       1 RES1   0.0000
@<TRIPOS>BOND
     1     1     2    1
     2     2     3    1
     3     3     4    2
     4     4     5    1
     5     5     6    2
     6     6     7    1
     7     7     8    1
     8     6     9    1
     9     9    10    1
    10    10    11    1
    11    11    12    1
    12    12    13    2
    13    12    14   am
    14    14    15    1
    15    15    16    2
    16    16    17    1
    17    17    18    1
    18    18    19    1
    19    19    20    2
    20    20    21    1
    21    21    22    1
    22    20    23    1
    23    23    24    1
    24    24    25    1
    25    25    26    2
    26    26    27    1
    27    27    28    2
    28    28    29    1
    29    28    30    1
    30    30    31    2
    31    17    32    2
    32    32    33    1
    33    33    34    2
    34     9    35    2
    35    35     3    1
    36    34    15    1
    37    24    18    2
    38    31    25    1
@<TRIPOS>SUBSTRUCTURE
     1 RES1        1 GROUP             0 ****  ****    0  
@<TRIPOS>MOLECULE
ligand_40
    35    38     1     0     0
SMALL
NO_CHARGES
****
Generated from the CSD

@<TRIPOS>ATOM
     1 C1      29.0789  12.2394 -16.3933   C.3       1 RES1   0.0000
     2 O2      28.1161  11.1734 -16.7926   O.3       1 RES1   0.0000
     3 C3      27.9064  10.8611 -18.1201   C.2       1 RES1   0.0000
     4 C4      28.5709  11.5092 -19.1991   C.2       1 RES1   0.0000
     5 C5      28.2572  11.1029 -20.4951   C.2       1 RES1   0.0000
     6 C6      27.3192  10.0554 -20.7466   C.2       1 RES1   0.0000
     7 O7      27.0464   9.6519 -22.0353   O.3       1 RES1   0.0000
     8 C8      27.7865  10.3406 -23.0847   C.3       1 RES1   0.0000
     9 C9      26.6321   9.4191 -19.6786   C.2       1 RES1   0.0000
    10 C10     25.6548   8.3408 -19.7196   C.3       1 RES1   0.0000
    11 C11     26.4524   7.0359 -19.9049   C.3       1 RES1   0.0000
    12 C12     25.6439   5.7218 -19.9810   C.2       1 RES1   0.0000
    13 O13     24.4394   5.7191 -19.8988   O.2       1 RES1   0.0000
    14 N14     26.4468   4.6527 -19.9485   N.am      1 RES1   0.0000
    15 C15     26.0724   3.3589 -19.8246   C.2       1 RES1   0.0000
    16 C16     24.7678   2.8553 -19.7648   C.2       1 RES1   0.0000
    17 C17     24.5018   1.4799 -19.5742   C.2       1 RES1   0.0000
    18 C18     23.2148   0.9689 -19.5561   C.2       1 RES1   0.0000
    19 N19     22.1606   1.6968 -19.0989   N.2       1 RES1   0.0000
    20 C20     21.0638   1.0167 -19.2687   C.2       1 RES1   0.0000
    21 S21     19.4792   1.6219 -18.7877   S.3       1 RES1   0.0000
    22 C22     19.8387   3.2132 -18.1059   C.3       1 RES1   0.0000
    23 N23     21.3682  -0.1485 -19.8495   N.2       1 RES1   0.0000
    24 C24     22.6843  -0.2115 -20.0380   C.2       1 RES1   0.0000
    25 C25     23.2531  -1.3441 -20.5867   C.2       1 RES1   0.0000
    26 C26     24.3237  -1.3317 -21.5056   C.2       1 RES1   0.0000
    27 C27     24.9031  -2.5147 -22.0267   C.2       1 RES1   0.0000
    28 C28     24.3999  -3.7470 -21.6540   C.2       1 RES1   0.0000
    29 F29     24.9165  -4.9357 -22.1713   F         1 RES1   0.0000
    30 C30     23.3199  -3.7705 -20.7560   C.2       1 RES1   0.0000
    31 C31     22.7443  -2.6182 -20.2228   C.2       1 RES1   0.0000
    32 C32     25.6301   0.6385 -19.5682   C.2       1 RES1   0.0000
    33 C33     26.9113   1.1202 -19.6588   C.2       1 RES1   0.0000
    34 N34     27.1411   2.5125 -19.8082   N.2       1 RES1   0.0000
    35 C35     26.9721   9.8615 -18.3917   C.2       1 RES1   0.0000
@<TRIPOS>BOND
     1     1     2    1
     2     2     3    1
     3     3     4    2
     4     4     5    1
     5     5     6    2
     6     6     7    1
     7     7     8    1
     8     6     9    1
     9     9    10    1
    10    10    11    1
    11    11    12    1
    12    12    13    2
    13    12    14   am
    14    14    15    1
    15    15    16    2
    16    16    17    1
    17    17    18    1
    18    18    19    1
    19    19    20    2
    20    20    21    1
    21    21    22    1
    22    20    23    1
    23    23    24    1
    24    24    25    1
    25    25    26    2
    26    26    27    1
    27    27    28    2
    28    28    29    1
    29    28    30    1
    30    30    31    2
    31    17    32    2
    32    32    33    1
    33    33    34    2
    34     9    35    2
    35    35     3    1
    36    34    15    1
    37    24    18    2
    38    31    25    1
@<TRIPOS>SUBSTRUCTURE
     1 RES1        1 GROUP             0 ****  ****    0  
@<TRIPOS>MOLECULE
ligand_41
    35    38     1     0     0
SMALL
NO_CHARGES
****
Generated from the CSD

@<TRIPOS>ATOM
     1 C1      27.3894  10.4553 -15.7067   C.3       1 RES1   0.0000
     2 O2      28.1161  11.1734 -16.7926   O.3       1 RES1   0.0000
     3 C3      27.9064  10.8611 -18.1201   C.2       1 RES1   0.0000
     4 C4      28.5709  11.5092 -19.1991   C.2       1 RES1   0.0000
     5 C5      28.2572  11.1029 -20.4951   C.2       1 RES1   0.0000
     6 C6      27.3192  10.0554 -20.7466   C.2       1 RES1   0.0000
     7 O7      27.0464   9.6519 -22.0353   O.3       1 RES1   0.0000
     8 C8      27.7865  10.3406 -23.0847   C.3       1 RES1   0.0000
     9 C9      26.6321   9.4191 -19.6786   C.2       1 RES1   0.0000
    10 C10     25.6548   8.3408 -19.7196   C.3       1 RES1   0.0000
    11 C11     26.4524   7.0359 -19.9049   C.3       1 RES1   0.0000
    12 C12     25.6439   5.7218 -19.9810   C.2       1 RES1   0.0000
    13 O13     24.4394   5.7191 -19.8988   O.2       1 RES1   0.0000
    14 N14     26.4468   4.6527 -19.9485   N.am      1 RES1   0.0000
    15 C15     26.0724   3.3589 -19.8246   C.2       1 RES1   0.0000
    16 C16     24.7678   2.8553 -19.7648   C.2       1 RES1   0.0000
    17 C17     24.5018   1.4799 -19.5742   C.2       1 RES1   0.0000
    18 C18     23.2148   0.9689 -19.5561   C.2       1 RES1   0.0000
    19 N19     22.1606   1.6968 -19.0989   N.2       1 RES1   0.0000
    20 C20     21.0638   1.0167 -19.2687   C.2       1 RES1   0.0000
    21 S21     19.4792   1.6219 -18.7877   S.3       1 RES1   0.0000
    22 C22     19.8387   3.2132 -18.1059   C.3       1 RES1   0.0000
    23 N23     21.3682  -0.1485 -19.8495   N.2       1 RES1   0.0000
    24 C24     22.6843  -0.2115 -20.0380   C.2       1 RES1   0.0000
    25 C25     23.2531  -1.3441 -20.5867   C.2       1 RES1   0.0000
    26 C26     24.3237  -1.3317 -21.5056   C.2       1 RES1   0.0000
    27 C27     24.9031  -2.5147 -22.0267   C.2       1 RES1   0.0000
    28 C28     24.3999  -3.7470 -21.6540   C.2       1 RES1   0.0000
    29 F29     24.9165  -4.9357 -22.1713   F         1 RES1   0.0000
    30 C30     23.3199  -3.7705 -20.7560   C.2       1 RES1   0.0000
    31 C31     22.7443  -2.6182 -20.2228   C.2       1 RES1   0.0000
    32 C32     25.6301   0.6385 -19.5682   C.2       1 RES1   0.0000
    33 C33     26.9113   1.1202 -19.6588   C.2       1 RES1   0.0000
    34 N34     27.1411   2.5125 -19.8082   N.2       1 RES1   0.0000
    35 C35     26.9721   9.8615 -18.3917   C.2       1 RES1   0.0000
@<TRIPOS>BOND
     1     1     2    1
     2     2     3    1
     3     3     4    2
     4     4     5    1
     5     5     6    2
     6     6     7    1
     7     7     8    1
     8     6     9    1
     9     9    10    1
    10    10    11    1
    11    11    12    1
    12    12    13    2
    13    12    14   am
    14    14    15    1
    15    15    16    2
    16    16    17    1
    17    17    18    1
    18    18    19    1
    19    19    20    2
    20    20    21    1
    21    21    22    1
    22    20    23    1
    23    23    24    1
    24    24    25    1
    25    25    26    2
    26    26    27    1
    27    27    28    2
    28    28    29    1
    29    28    30    1
    30    30    31    2
    31    17    32    2
    32    32    33    1
    33    33    34    2
    34     9    35    2
    35    35     3    1
    36    34    15    1
    37    24    18    2
    38    31    25    1
@<TRIPOS>SUBSTRUCTURE
     1 RES1        1 GROUP             0 ****  ****    0  
@<TRIPOS>MOLECULE
ligand_42
    35    38     1     0     0
SMALL
NO_CHARGES
****
Generated from the CSD

@<TRIPOS>ATOM
     1 C1      28.4287  13.0627 -22.5476   C.3       1 RES1   0.0000
     2 O2      27.5488  11.8952 -22.2551   O.3       1 RES1   0.0000
     3 C3      27.5785  11.2687 -21.0260   C.2       1 RES1   0.0000
     4 C4      28.4275  11.6680 -19.9556   C.2       1 RES1   0.0000
     5 C5      28.3646  10.9398 -18.7686   C.2       1 RES1   0.0000
     6 C6      27.4657   9.8415 -18.6089   C.2       1 RES1   0.0000
     7 O7      27.4014   9.1546 -17.4164   O.3       1 RES1   0.0000
     8 C8      28.2780   9.6394 -16.3582   C.3       1 RES1   0.0000
     9 C9      26.6321   9.4191 -19.6786   C.2       1 RES1   0.0000
    10 C10     25.6548   8.3408 -19.7196   C.3       1 RES1   0.0000
    11 C11     26.4524   7.0359 -19.9049   C.3       1 RES1   0.0000
    12 C12     25.6439   5.7218 -19.9810   C.2       1 RES1   0.0000
    13 O13     24.4394   5.7191 -19.8988   O.2       1 RES1   0.0000
    14 N14     26.4468   4.6527 -19.9485   N.am      1 RES1   0.0000
    15 C15     26.0724   3.3589 -19.8246   C.2       1 RES1   0.0000
    16 C16     24.7678   2.8553 -19.7648   C.2       1 RES1   0.0000
    17 C17     24.5018   1.4799 -19.5742   C.2       1 RES1   0.0000
    18 C18     23.2148   0.9689 -19.5561   C.2       1 RES1   0.0000
    19 N19     22.1606   1.6968 -19.0989   N.2       1 RES1   0.0000
    20 C20     21.0638   1.0167 -19.2687   C.2       1 RES1   0.0000
    21 S21     19.4792   1.6219 -18.7877   S.3       1 RES1   0.0000
    22 C22     19.8387   3.2132 -18.1059   C.3       1 RES1   0.0000
    23 N23     21.3682  -0.1485 -19.8495   N.2       1 RES1   0.0000
    24 C24     22.6843  -0.2115 -20.0380   C.2       1 RES1   0.0000
    25 C25     23.2531  -1.3441 -20.5867   C.2       1 RES1   0.0000
    26 C26     24.3237  -1.3317 -21.5056   C.2       1 RES1   0.0000
    27 C27     24.9031  -2.5147 -22.0267   C.2       1 RES1   0.0000
    28 C28     24.3999  -3.7470 -21.6540   C.2       1 RES1   0.0000
    29 F29     24.9165  -4.9357 -22.1713   F         1 RES1   0.0000
    30 C30     23.3199  -3.7705 -20.7560   C.2       1 RES1   0.0000
    31 C31     22.7443  -2.6182 -20.2228   C.2       1 RES1   0.0000
    32 C32     25.6301   0.6385 -19.5682   C.2       1 RES1   0.0000
    33 C33     26.9113   1.1202 -19.6588   C.2       1 RES1   0.0000
    34 N34     27.1411   2.5125 -19.8082   N.2       1 RES1   0.0000
    35 C35     26.7306  10.1741 -20.8567   C.2       1 RES1   0.0000
@<TRIPOS>BOND
     1     1     2    1
     2     2     3    1
     3     3     4    2
     4     4     5    1
     5     5     6    2
     6     6     7    1
     7     7     8    1
     8     6     9    1
     9     9    10    1
    10    10    11    1
    11    11    12    1
    12    12    13    2
    13    12    14   am
    14    14    15    1
    15    15    16    2
    16    16    17    1
    17    17    18    1
    18    18    19    1
    19    19    20    2
    20    20    21    1
    21    21    22    1
    22    20    23    1
    23    23    24    1
    24    24    25    1
    25    25    26    2
    26    26    27    1
    27    27    28    2
    28    28    29    1
    29    28    30    1
    30    30    31    2
    31    17    32    2
    32    32    33    1
    33    33    34    2
    34     9    35    2
    35    35     3    1
    36    34    15    1
    37    24    18    2
    38    31    25    1
@<TRIPOS>SUBSTRUCTURE
     1 RES1        1 GROUP             0 ****  ****    0  
@<TRIPOS>MOLECULE
ligand_43
    35    38     1     0     0
SMALL
NO_CHARGES
****
Generated from the CSD

@<TRIPOS>ATOM
     1 C1      26.6342  11.4299 -23.3365   C.3       1 RES1   0.0000
     2 O2      27.5488  11.8952 -22.2551   O.3       1 RES1   0.0000
     3 C3      27.5785  11.2687 -21.0260   C.2       1 RES1   0.0000
     4 C4      28.4275  11.6680 -19.9556   C.2       1 RES1   0.0000
     5 C5      28.3646  10.9398 -18.7686   C.2       1 RES1   0.0000
     6 C6      27.4657   9.8415 -18.6089   C.2       1 RES1   0.0000
     7 O7      27.4014   9.1546 -17.4164   O.3       1 RES1   0.0000
     8 C8      28.2780   9.6394 -16.3582   C.3       1 RES1   0.0000
     9 C9      26.6321   9.4191 -19.6786   C.2       1 RES1   0.0000
    10 C10     25.6548   8.3408 -19.7196   C.3       1 RES1   0.0000
    11 C11     26.4524   7.0359 -19.9049   C.3       1 RES1   0.0000
    12 C12     25.6439   5.7218 -19.9810   C.2       1 RES1   0.0000
    13 O13     24.4394   5.7191 -19.8988   O.2       1 RES1   0.0000
    14 N14     26.4468   4.6527 -19.9485   N.am      1 RES1   0.0000
    15 C15     26.0724   3.3589 -19.8246   C.2       1 RES1   0.0000
    16 C16     24.7678   2.8553 -19.7648   C.2       1 RES1   0.0000
    17 C17     24.5018   1.4799 -19.5742   C.2       1 RES1   0.0000
    18 C18     23.2148   0.9689 -19.5561   C.2       1 RES1   0.0000
    19 N19     22.1606   1.6968 -19.0989   N.2       1 RES1   0.0000
    20 C20     21.0638   1.0167 -19.2687   C.2       1 RES1   0.0000
    21 S21     19.4792   1.6219 -18.7877   S.3       1 RES1   0.0000
    22 C22     19.8387   3.2132 -18.1059   C.3       1 RES1   0.0000
    23 N23     21.3682  -0.1485 -19.8495   N.2       1 RES1   0.0000
    24 C24     22.6843  -0.2115 -20.0380   C.2       1 RES1   0.0000
    25 C25     23.2531  -1.3441 -20.5867   C.2       1 RES1   0.0000
    26 C26     24.3237  -1.3317 -21.5056   C.2       1 RES1   0.0000
    27 C27     24.9031  -2.5147 -22.0267   C.2       1 RES1   0.0000
    28 C28     24.3999  -3.7470 -21.6540   C.2       1 RES1   0.0000
    29 F29     24.9165  -4.9357 -22.1713   F         1 RES1   0.0000
    30 C30     23.3199  -3.7705 -20.7560   C.2       1 RES1   0.0000
    31 C31     22.7443  -2.6182 -20.2228   C.2       1 RES1   0.0000
    32 C32     25.6301   0.6385 -19.5682   C.2       1 RES1   0.0000
    33 C33     26.9113   1.1202 -19.6588   C.2       1 RES1   0.0000
    34 N34     27.1411   2.5125 -19.8082   N.2       1 RES1   0.0000
    35 C35     26.7306  10.1741 -20.8567   C.2       1 RES1   0.0000
@<TRIPOS>BOND
     1     1     2    1
     2     2     3    1
     3     3     4    2
     4     4     5    1
     5     5     6    2
     6     6     7    1
     7     7     8    1
     8     6     9    1
     9     9    10    1
    10    10    11    1
    11    11    12    1
    12    12    13    2
    13    12    14   am
    14    14    15    1
    15    15    16    2
    16    16    17    1
    17    17    18    1
    18    18    19    1
    19    19    20    2
    20    20    21    1
    21    21    22    1
    22    20    23    1
    23    23    24    1
    24    24    25    1
    25    25    26    2
    26    26    27    1
    27    27    28    2
    28    28    29    1
    29    28    30    1
    30    30    31    2
    31    17    32    2
    32    32    33    1
    33    33    34    2
    34     9    35    2
    35    35     3    1
    36    34    15    1
    37    24    18    2
    38    31    25    1
@<TRIPOS>SUBSTRUCTURE
     1 RES1        1 GROUP             0 ****  ****    0  
@<TRIPOS>MOLECULE
ligand_44
    35    38     1     0     0
SMALL
NO_CHARGES
****
Generated from the CSD

@<TRIPOS>ATOM
     1 C1      32.0947   3.8131 -28.7063   C.3       1 RES1   0.0000
     2 O2      30.9636   3.2503 -27.9148   O.3       1 RES1   0.0000
     3 C3      31.1295   2.1265 -27.1315   C.2       1 RES1   0.0000
     4 C4      32.3602   1.4219 -27.0108   C.2       1 RES1   0.0000
     5 C5      32.3867   0.2935 -26.1926   C.2       1 RES1   0.0000
     6 C6      31.2307  -0.1395 -25.4740   C.2       1 RES1   0.0000
     7 O7      31.2889  -1.2414 -24.6492   O.3       1 RES1   0.0000
     8 C8      32.5888  -1.8929 -24.5533   C.3       1 RES1   0.0000
     9 C9      29.9914   0.5417 -25.6067   C.2       1 RES1   0.0000
    10 C10     28.7129   0.2692 -24.9658   C.3       1 RES1   0.0000
    11 C11     28.8082   0.8444 -23.5399   C.3       1 RES1   0.0000
    12 C12     27.5674   0.6872 -22.6333   C.2       1 RES1   0.0000
    13 O13     26.5672   0.1371 -23.0265   O.2       1 RES1   0.0000
    14 N14     27.6988   1.3868 -21.5011   N.am      1 RES1   0.0000
    15 C15     26.7445   1.6118 -20.5695   C.2       1 RES1   0.0000
    16 C16     25.4366   1.1134 -20.5575   C.2       1 RES1   0.0000
    17 C17     24.5066   1.4688 -19.5535   C.2       1 RES1   0.0000
    18 C18     23.2246   0.9469 -19.5117   C.2       1 RES1   0.0000
    19 N19     22.1237   1.7428 -19.5821   N.2       1 RES1   0.0000
    20 C20     21.0565   0.9979 -19.6048   C.2       1 RES1   0.0000
    21 S21     19.4263   1.6648 -19.6814   S.3       1 RES1   0.0000
    22 C22     19.6998   3.4114 -19.7117   C.3       1 RES1   0.0000
    23 N23     21.4296  -0.2856 -19.5686   N.2       1 RES1   0.0000
    24 C24     22.7575  -0.3526 -19.5083   C.2       1 RES1   0.0000
    25 C25     23.3869  -1.5786 -19.4174   C.2       1 RES1   0.0000
    26 C26     24.5489  -1.9317 -20.1356   C.2       1 RES1   0.0000
    27 C27     25.1861  -3.1892 -19.9963   C.2       1 RES1   0.0000
    28 C28     24.6522  -4.1385 -19.1449   C.2       1 RES1   0.0000
    29 F29     25.2266  -5.4026 -19.0053   F         1 RES1   0.0000
    30 C30     23.4831  -3.8052 -18.4409   C.2       1 RES1   0.0000
    31 C31     22.8486  -2.5691 -18.5551   C.2       1 RES1   0.0000
    32 C32     25.0165   2.2587 -18.5061   C.2       1 RES1   0.0000
    33 C33     26.3064   2.7252 -18.4931   C.2       1 RES1   0.0000
    34 N34     27.2002   2.3810 -19.5402   N.2       1 RES1   0.0000
    35 C35     30.0062   1.6672 -26.4436   C.2       1 RES1   0.0000
@<TRIPOS>BOND
     1     1     2    1
     2     2     3    1
     3     3     4    2
     4     4     5    1
     5     5     6    2
     6     6     7    1
     7     7     8    1
     8     6     9    1
     9     9    10    1
    10    10    11    1
    11    11    12    1
    12    12    13    2
    13    12    14   am
    14    14    15    1
    15    15    16    2
    16    16    17    1
    17    17    18    1
    18    18    19    1
    19    19    20    2
    20    20    21    1
    21    21    22    1
    22    20    23    1
    23    23    24    1
    24    24    25    1
    25    25    26    2
    26    26    27    1
    27    27    28    2
    28    28    29    1
    29    28    30    1
    30    30    31    2
    31    17    32    2
    32    32    33    1
    33    33    34    2
    34     9    35    2
    35    35     3    1
    36    34    15    1
    37    24    18    2
    38    31    25    1
@<TRIPOS>SUBSTRUCTURE
     1 RES1        1 GROUP             0 ****  ****    0  
@<TRIPOS>MOLECULE
ligand_45
    35    38     1     0     0
SMALL
NO_CHARGES
****
Generated from the CSD

@<TRIPOS>ATOM
     1 C1      29.6475   3.9458 -27.9977   C.3       1 RES1   0.0000
     2 O2      30.9636   3.2503 -27.9148   O.3       1 RES1   0.0000
     3 C3      31.1295   2.1265 -27.1315   C.2       1 RES1   0.0000
     4 C4      32.3602   1.4219 -27.0108   C.2       1 RES1   0.0000
     5 C5      32.3867   0.2935 -26.1926   C.2       1 RES1   0.0000
     6 C6      31.2307  -0.1395 -25.4740   C.2       1 RES1   0.0000
     7 O7      31.2889  -1.2414 -24.6492   O.3       1 RES1   0.0000
     8 C8      32.5888  -1.8929 -24.5533   C.3       1 RES1   0.0000
     9 C9      29.9914   0.5417 -25.6067   C.2       1 RES1   0.0000
    10 C10     28.7129   0.2692 -24.9658   C.3       1 RES1   0.0000
    11 C11     28.8082   0.8444 -23.5399   C.3       1 RES1   0.0000
    12 C12     27.5674   0.6872 -22.6333   C.2       1 RES1   0.0000
    13 O13     26.5672   0.1371 -23.0265   O.2       1 RES1   0.0000
    14 N14     27.6988   1.3868 -21.5011   N.am      1 RES1   0.0000
    15 C15     26.7445   1.6118 -20.5695   C.2       1 RES1   0.0000
    16 C16     25.4366   1.1134 -20.5575   C.2       1 RES1   0.0000
    17 C17     24.5066   1.4688 -19.5535   C.2       1 RES1   0.0000
    18 C18     23.2246   0.9469 -19.5117   C.2       1 RES1   0.0000
    19 N19     22.1237   1.7428 -19.5821   N.2       1 RES1   0.0000
    20 C20     21.0565   0.9979 -19.6048   C.2       1 RES1   0.0000
    21 S21     19.4263   1.6648 -19.6814   S.3       1 RES1   0.0000
    22 C22     19.6998   3.4114 -19.7117   C.3       1 RES1   0.0000
    23 N23     21.4296  -0.2856 -19.5686   N.2       1 RES1   0.0000
    24 C24     22.7575  -0.3526 -19.5083   C.2       1 RES1   0.0000
    25 C25     23.3869  -1.5786 -19.4174   C.2       1 RES1   0.0000
    26 C26     24.5489  -1.9317 -20.1357   C.2       1 RES1   0.0000
    27 C27     25.1861  -3.1892 -19.9963   C.2       1 RES1   0.0000
    28 C28     24.6522  -4.1385 -19.1449   C.2       1 RES1   0.0000
    29 F29     25.2266  -5.4026 -19.0054   F         1 RES1   0.0000
    30 C30     23.4831  -3.8052 -18.4409   C.2       1 RES1   0.0000
    31 C31     22.8486  -2.5691 -18.5551   C.2       1 RES1   0.0000
    32 C32     25.0165   2.2587 -18.5061   C.2       1 RES1   0.0000
    33 C33     26.3064   2.7252 -18.4931   C.2       1 RES1   0.0000
    34 N34     27.2002   2.3810 -19.5402   N.2       1 RES1   0.0000
    35 C35     30.0062   1.6672 -26.4436   C.2       1 RES1   0.0000
@<TRIPOS>BOND
     1     1     2    1
     2     2     3    1
     3     3     4    2
     4     4     5    1
     5     5     6    2
     6     6     7    1
     7     7     8    1
     8     6     9    1
     9     9    10    1
    10    10    11    1
    11    11    12    1
    12    12    13    2
    13    12    14   am
    14    14    15    1
    15    15    16    2
    16    16    17    1
    17    17    18    1
    18    18    19    1
    19    19    20    2
    20    20    21    1
    21    21    22    1
    22    20    23    1
    23    23    24    1
    24    24    25    1
    25    25    26    2
    26    26    27    1
    27    27    28    2
    28    28    29    1
    29    28    30    1
    30    30    31    2
    31    17    32    2
    32    32    33    1
    33    33    34    2
    34     9    35    2
    35    35     3    1
    36    34    15    1
    37    24    18    2
    38    31    25    1
@<TRIPOS>SUBSTRUCTURE
     1 RES1        1 GROUP             0 ****  ****    0  
@<TRIPOS>MOLECULE
ligand_46
    35    38     1     0     0
SMALL
NO_CHARGES
****
Generated from the CSD

@<TRIPOS>ATOM
     1 C1      34.1906  -1.7851 -26.9055   C.3       1 RES1   0.0000
     2 O2      32.8276  -1.7114 -26.3058   O.3       1 RES1   0.0000
     3 C3      32.1112  -0.5321 -26.3034   C.2       1 RES1   0.0000
     4 C4      32.5938   0.6870 -26.8572   C.2       1 RES1   0.0000
     5 C5      31.7704   1.8090 -26.7778   C.2       1 RES1   0.0000
     6 C6      30.4727   1.7468 -26.1843   C.2       1 RES1   0.0000
     7 O7      29.6655   2.8625 -26.1428   O.3       1 RES1   0.0000
     8 C8      30.2151   4.0649 -26.7554   C.3       1 RES1   0.0000
     9 C9      29.9914   0.5417 -25.6067   C.2       1 RES1   0.0000
    10 C10     28.7129   0.2692 -24.9658   C.3       1 RES1   0.0000
    11 C11     28.8082   0.8444 -23.5399   C.3       1 RES1   0.0000
    12 C12     27.5674   0.6872 -22.6333   C.2       1 RES1   0.0000
    13 O13     26.5672   0.1371 -23.0265   O.2       1 RES1   0.0000
    14 N14     27.6988   1.3868 -21.5011   N.am      1 RES1   0.0000
    15 C15     26.7445   1.6118 -20.5695   C.2       1 RES1   0.0000
    16 C16     25.4366   1.1134 -20.5575   C.2       1 RES1   0.0000
    17 C17     24.5066   1.4688 -19.5535   C.2       1 RES1   0.0000
    18 C18     23.2246   0.9469 -19.5117   C.2       1 RES1   0.0000
    19 N19     22.1237   1.7428 -19.5821   N.2       1 RES1   0.0000
    20 C20     21.0565   0.9979 -19.6048   C.2       1 RES1   0.0000
    21 S21     19.4263   1.6648 -19.6814   S.3       1 RES1   0.0000
    22 C22     19.6998   3.4114 -19.7117   C.3       1 RES1   0.0000
    23 N23     21.4296  -0.2856 -19.5686   N.2       1 RES1   0.0000
    24 C24     22.7575  -0.3526 -19.5083   C.2       1 RES1   0.0000
    25 C25     23.3869  -1.5786 -19.4174   C.2       1 RES1   0.0000
    26 C26     24.5489  -1.9317 -20.1356   C.2       1 RES1   0.0000
    27 C27     25.1861  -3.1892 -19.9963   C.2       1 RES1   0.0000
    28 C28     24.6522  -4.1385 -19.1449   C.2       1 RES1   0.0000
    29 F29     25.2266  -5.4026 -19.0053   F         1 RES1   0.0000
    30 C30     23.4831  -3.8052 -18.4409   C.2       1 RES1   0.0000
    31 C31     22.8486  -2.5691 -18.5551   C.2       1 RES1   0.0000
    32 C32     25.0165   2.2587 -18.5061   C.2       1 RES1   0.0000
    33 C33     26.3064   2.7252 -18.4931   C.2       1 RES1   0.0000
    34 N34     27.2002   2.3810 -19.5402   N.2       1 RES1   0.0000
    35 C35     30.8528  -0.5612 -25.7022   C.2       1 RES1   0.0000
@<TRIPOS>BOND
     1     1     2    1
     2     2     3    1
     3     3     4    2
     4     4     5    1
     5     5     6    2
     6     6     7    1
     7     7     8    1
     8     6     9    1
     9     9    10    1
    10    10    11    1
    11    11    12    1
    12    12    13    2
    13    12    14   am
    14    14    15    1
    15    15    16    2
    16    16    17    1
    17    17    18    1
    18    18    19    1
    19    19    20    2
    20    20    21    1
    21    21    22    1
    22    20    23    1
    23    23    24    1
    24    24    25    1
    25    25    26    2
    26    26    27    1
    27    27    28    2
    28    28    29    1
    29    28    30    1
    30    30    31    2
    31    17    32    2
    32    32    33    1
    33    33    34    2
    34     9    35    2
    35    35     3    1
    36    34    15    1
    37    24    18    2
    38    31    25    1
@<TRIPOS>SUBSTRUCTURE
     1 RES1        1 GROUP             0 ****  ****    0  
@<TRIPOS>MOLECULE
ligand_47
    35    38     1     0     0
SMALL
NO_CHARGES
****
Generated from the CSD

@<TRIPOS>ATOM
     1 C1      32.2651  -2.9573 -25.7109   C.3       1 RES1   0.0000
     2 O2      32.8276  -1.7114 -26.3058   O.3       1 RES1   0.0000
     3 C3      32.1112  -0.5321 -26.3034   C.2       1 RES1   0.0000
     4 C4      32.5938   0.6870 -26.8572   C.2       1 RES1   0.0000
     5 C5      31.7704   1.8090 -26.7778   C.2       1 RES1   0.0000
     6 C6      30.4727   1.7468 -26.1843   C.2       1 RES1   0.0000
     7 O7      29.6655   2.8625 -26.1428   O.3       1 RES1   0.0000
     8 C8      30.2151   4.0649 -26.7554   C.3       1 RES1   0.0000
     9 C9      29.9914   0.5417 -25.6067   C.2       1 RES1   0.0000
    10 C10     28.7129   0.2692 -24.9658   C.3       1 RES1   0.0000
    11 C11     28.8082   0.8444 -23.5399   C.3       1 RES1   0.0000
    12 C12     27.5674   0.6872 -22.6333   C.2       1 RES1   0.0000
    13 O13     26.5672   0.1371 -23.0265   O.2       1 RES1   0.0000
    14 N14     27.6988   1.3868 -21.5011   N.am      1 RES1   0.0000
    15 C15     26.7445   1.6118 -20.5695   C.2       1 RES1   0.0000
    16 C16     25.4366   1.1134 -20.5575   C.2       1 RES1   0.0000
    17 C17     24.5066   1.4688 -19.5535   C.2       1 RES1   0.0000
    18 C18     23.2246   0.9469 -19.5117   C.2       1 RES1   0.0000
    19 N19     22.1237   1.7428 -19.5821   N.2       1 RES1   0.0000
    20 C20     21.0565   0.9979 -19.6048   C.2       1 RES1   0.0000
    21 S21     19.4263   1.6648 -19.6814   S.3       1 RES1   0.0000
    22 C22     19.6998   3.4114 -19.7117   C.3       1 RES1   0.0000
    23 N23     21.4296  -0.2856 -19.5686   N.2       1 RES1   0.0000
    24 C24     22.7575  -0.3526 -19.5083   C.2       1 RES1   0.0000
    25 C25     23.3869  -1.5786 -19.4174   C.2       1 RES1   0.0000
    26 C26     24.5489  -1.9317 -20.1357   C.2       1 RES1   0.0000
    27 C27     25.1861  -3.1892 -19.9963   C.2       1 RES1   0.0000
    28 C28     24.6522  -4.1385 -19.1449   C.2       1 RES1   0.0000
    29 F29     25.2266  -5.4026 -19.0054   F         1 RES1   0.0000
    30 C30     23.4831  -3.8052 -18.4409   C.2       1 RES1   0.0000
    31 C31     22.8486  -2.5691 -18.5551   C.2       1 RES1   0.0000
    32 C32     25.0165   2.2587 -18.5061   C.2       1 RES1   0.0000
    33 C33     26.3064   2.7252 -18.4931   C.2       1 RES1   0.0000
    34 N34     27.2002   2.3810 -19.5402   N.2       1 RES1   0.0000
    35 C35     30.8528  -0.5612 -25.7022   C.2       1 RES1   0.0000
@<TRIPOS>BOND
     1     1     2    1
     2     2     3    1
     3     3     4    2
     4     4     5    1
     5     5     6    2
     6     6     7    1
     7     7     8    1
     8     6     9    1
     9     9    10    1
    10    10    11    1
    11    11    12    1
    12    12    13    2
    13    12    14   am
    14    14    15    1
    15    15    16    2
    16    16    17    1
    17    17    18    1
    18    18    19    1
    19    19    20    2
    20    20    21    1
    21    21    22    1
    22    20    23    1
    23    23    24    1
    24    24    25    1
    25    25    26    2
    26    26    27    1
    27    27    28    2
    28    28    29    1
    29    28    30    1
    30    30    31    2
    31    17    32    2
    32    32    33    1
    33    33    34    2
    34     9    35    2
    35    35     3    1
    36    34    15    1
    37    24    18    2
    38    31    25    1
@<TRIPOS>SUBSTRUCTURE
     1 RES1        1 GROUP             0 ****  ****    0  
@<TRIPOS>MOLECULE
ligand_48
    35    38     1     0     0
SMALL
NO_CHARGES
****
Generated from the CSD

@<TRIPOS>ATOM
     1 C1      27.7315  -5.0984  -8.1883   C.3       1 RES1   0.0000
     2 O2      27.3230  -4.3455  -9.4085   O.3       1 RES1   0.0000
     3 C3      27.7295  -4.7464 -10.6647   C.2       1 RES1   0.0000
     4 C4      28.5525  -5.8828 -10.9039   C.2       1 RES1   0.0000
     5 C5      28.8988  -6.1696 -12.2234   C.2       1 RES1   0.0000
     6 C6      28.4310  -5.3721 -13.3121   C.2       1 RES1   0.0000
     7 O7      28.7635  -5.6920 -14.6102   O.3       1 RES1   0.0000
     8 C8      29.5834  -6.8848 -14.7784   C.3       1 RES1   0.0000
     9 C9      27.6298  -4.2218 -13.0827   C.2       1 RES1   0.0000
    10 C10     27.0531  -3.2901 -14.0413   C.3       1 RES1   0.0000
    11 C11     25.7988  -3.9757 -14.6156   C.3       1 RES1   0.0000
    12 C12     24.9884  -3.1905 -15.6706   C.2       1 RES1   0.0000
    13 O13     25.5087  -2.7639 -16.6732   O.2       1 RES1   0.0000
    14 N14     23.7591  -2.9052 -15.2282   N.am      1 RES1   0.0000
    15 C15     22.8538  -2.0886 -15.8139   C.2       1 RES1   0.0000
    16 C16     22.9831  -1.4157 -17.0343   C.2       1 RES1   0.0000
    17 C17     21.9856  -0.5377 -17.5172   C.2       1 RES1   0.0000
    18 C18     22.0877   0.0986 -18.7429   C.2       1 RES1   0.0000
    19 N19     21.6667   1.3795 -18.9232   N.2       1 RES1   0.0000
    20 C20     21.9519   1.7582 -20.1355   C.2       1 RES1   0.0000
    21 S21     21.5517   3.3591 -20.7563   S.3       1 RES1   0.0000
    22 C22     22.1594   3.3179 -22.4162   C.3       1 RES1   0.0000
    23 N23     22.5737   0.7542 -20.7624   N.2       1 RES1   0.0000
    24 C24     22.6713  -0.2835 -19.9346   C.2       1 RES1   0.0000
    25 C25     23.2405  -1.4651 -20.3675   C.2       1 RES1   0.0000
    26 C26     24.3730  -1.5428 -21.2054   C.2       1 RES1   0.0000
    27 C27     24.9491  -2.7731 -21.6068   C.2       1 RES1   0.0000
    28 C28     24.3813  -3.9639 -21.1939   C.2       1 RES1   0.0000
    29 F29     24.8944  -5.1978 -21.5957   F         1 RES1   0.0000
    30 C30     23.2405  -3.8983 -20.3767   C.2       1 RES1   0.0000
    31 C31     22.6663  -2.6979 -19.9610   C.2       1 RES1   0.0000
    32 C32     20.8069  -0.4776 -16.7503   C.2       1 RES1   0.0000
    33 C33     20.6586  -1.1590 -15.5690   C.2       1 RES1   0.0000
    34 N34     21.6988  -1.9997 -15.0949   N.2       1 RES1   0.0000
    35 C35     27.3096  -3.9652 -11.7414   C.2       1 RES1   0.0000
@<TRIPOS>BOND
     1     1     2    1
     2     2     3    1
     3     3     4    2
     4     4     5    1
     5     5     6    2
     6     6     7    1
     7     7     8    1
     8     6     9    1
     9     9    10    1
    10    10    11    1
    11    11    12    1
    12    12    13    2
    13    12    14   am
    14    14    15    1
    15    15    16    2
    16    16    17    1
    17    17    18    1
    18    18    19    1
    19    19    20    2
    20    20    21    1
    21    21    22    1
    22    20    23    1
    23    23    24    1
    24    24    25    1
    25    25    26    2
    26    26    27    1
    27    27    28    2
    28    28    29    1
    29    28    30    1
    30    30    31    2
    31    17    32    2
    32    32    33    1
    33    33    34    2
    34     9    35    2
    35    35     3    1
    36    34    15    1
    37    24    18    2
    38    31    25    1
@<TRIPOS>SUBSTRUCTURE
     1 RES1        1 GROUP             0 ****  ****    0  
@<TRIPOS>MOLECULE
ligand_49
    35    38     1     0     0
SMALL
NO_CHARGES
****
Generated from the CSD

@<TRIPOS>ATOM
     1 C1      26.4579  -3.1454  -9.2238   C.3       1 RES1   0.0000
     2 O2      27.3230  -4.3455  -9.4085   O.3       1 RES1   0.0000
     3 C3      27.7295  -4.7464 -10.6647   C.2       1 RES1   0.0000
     4 C4      28.5525  -5.8827 -10.9039   C.2       1 RES1   0.0000
     5 C5      28.8988  -6.1695 -12.2234   C.2       1 RES1   0.0000
     6 C6      28.4310  -5.3721 -13.3121   C.2       1 RES1   0.0000
     7 O7      28.7635  -5.6920 -14.6102   O.3       1 RES1   0.0000
     8 C8      29.5834  -6.8848 -14.7784   C.3       1 RES1   0.0000
     9 C9      27.6299  -4.2218 -13.0827   C.2       1 RES1   0.0000
    10 C10     27.0531  -3.2901 -14.0413   C.3       1 RES1   0.0000
    11 C11     25.7988  -3.9757 -14.6156   C.3       1 RES1   0.0000
    12 C12     24.9884  -3.1905 -15.6706   C.2       1 RES1   0.0000
    13 O13     25.5087  -2.7639 -16.6732   O.2       1 RES1   0.0000
    14 N14     23.7591  -2.9052 -15.2282   N.am      1 RES1   0.0000
    15 C15     22.8538  -2.0886 -15.8139   C.2       1 RES1   0.0000
    16 C16     22.9831  -1.4157 -17.0343   C.2       1 RES1   0.0000
    17 C17     21.9856  -0.5377 -17.5172   C.2       1 RES1   0.0000
    18 C18     22.0877   0.0986 -18.7429   C.2       1 RES1   0.0000
    19 N19     21.6667   1.3795 -18.9232   N.2       1 RES1   0.0000
    20 C20     21.9519   1.7582 -20.1355   C.2       1 RES1   0.0000
    21 S21     21.5517   3.3591 -20.7563   S.3       1 RES1   0.0000
    22 C22     22.1594   3.3179 -22.4162   C.3       1 RES1   0.0000
    23 N23     22.5737   0.7542 -20.7624   N.2       1 RES1   0.0000
    24 C24     22.6713  -0.2835 -19.9346   C.2       1 RES1   0.0000
    25 C25     23.2405  -1.4651 -20.3675   C.2       1 RES1   0.0000
    26 C26     24.3730  -1.5428 -21.2054   C.2       1 RES1   0.0000
    27 C27     24.9491  -2.7731 -21.6068   C.2       1 RES1   0.0000
    28 C28     24.3813  -3.9639 -21.1939   C.2       1 RES1   0.0000
    29 F29     24.8944  -5.1978 -21.5957   F         1 RES1   0.0000
    30 C30     23.2405  -3.8983 -20.3767   C.2       1 RES1   0.0000
    31 C31     22.6663  -2.6979 -19.9610   C.2       1 RES1   0.0000
    32 C32     20.8069  -0.4776 -16.7503   C.2       1 RES1   0.0000
    33 C33     20.6586  -1.1590 -15.5690   C.2       1 RES1   0.0000
    34 N34     21.6988  -1.9997 -15.0949   N.2       1 RES1   0.0000
    35 C35     27.3097  -3.9652 -11.7414   C.2       1 RES1   0.0000
@<TRIPOS>BOND
     1     1     2    1
     2     2     3    1
     3     3     4    2
     4     4     5    1
     5     5     6    2
     6     6     7    1
     7     7     8    1
     8     6     9    1
     9     9    10    1
    10    10    11    1
    11    11    12    1
    12    12    13    2
    13    12    14   am
    14    14    15    1
    15    15    16    2
    16    16    17    1
    17    17    18    1
    18    18    19    1
    19    19    20    2
    20    20    21    1
    21    21    22    1
    22    20    23    1
    23    23    24    1
    24    24    25    1
    25    25    26    2
    26    26    27    1
    27    27    28    2
    28    28    29    1
    29    28    30    1
    30    30    31    2
    31    17    32    2
    32    32    33    1
    33    33    34    2
    34     9    35    2
    35    35     3    1
    36    34    15    1
    37    24    18    2
    38    31    25    1
@<TRIPOS>SUBSTRUCTURE
     1 RES1        1 GROUP             0 ****  ****    0  
@<TRIPOS>MOLECULE
ligand_50
    35    38     1     0     0
SMALL
NO_CHARGES
****
Generated from the CSD

@<TRIPOS>ATOM
     1 C1      31.4121  -7.4238 -12.6629   C.3       1 RES1   0.0000
     2 O2      30.5793  -6.4175 -13.3816   O.3       1 RES1   0.0000
     3 C3      29.4896  -5.8275 -12.7744   C.2       1 RES1   0.0000
     4 C4      29.0729  -6.1171 -11.4447   C.2       1 RES1   0.0000
     5 C5      27.9463  -5.4564 -10.9572   C.2       1 RES1   0.0000
     6 C6      27.2374  -4.4999 -11.7463   C.2       1 RES1   0.0000
     7 O7      26.1433  -3.8388 -11.2326   O.3       1 RES1   0.0000
     8 C8      25.7947  -4.1655  -9.8559   C.3       1 RES1   0.0000
     9 C9      27.6298  -4.2218 -13.0827   C.2       1 RES1   0.0000
    10 C10     27.0531  -3.2901 -14.0413   C.3       1 RES1   0.0000
    11 C11     25.7988  -3.9757 -14.6156   C.3       1 RES1   0.0000
    12 C12     24.9884  -3.1905 -15.6706   C.2       1 RES1   0.0000
    13 O13     25.5087  -2.7639 -16.6732   O.2       1 RES1   0.0000
    14 N14     23.7591  -2.9052 -15.2282   N.am      1 RES1   0.0000
    15 C15     22.8538  -2.0886 -15.8139   C.2       1 RES1   0.0000
    16 C16     22.9831  -1.4157 -17.0343   C.2       1 RES1   0.0000
    17 C17     21.9856  -0.5377 -17.5172   C.2       1 RES1   0.0000
    18 C18     22.0877   0.0986 -18.7429   C.2       1 RES1   0.0000
    19 N19     21.6667   1.3795 -18.9232   N.2       1 RES1   0.0000
    20 C20     21.9519   1.7582 -20.1355   C.2       1 RES1   0.0000
    21 S21     21.5517   3.3591 -20.7563   S.3       1 RES1   0.0000
    22 C22     22.1594   3.3179 -22.4162   C.3       1 RES1   0.0000
    23 N23     22.5737   0.7542 -20.7624   N.2       1 RES1   0.0000
    24 C24     22.6713  -0.2835 -19.9346   C.2       1 RES1   0.0000
    25 C25     23.2405  -1.4651 -20.3675   C.2       1 RES1   0.0000
    26 C26     24.3730  -1.5428 -21.2054   C.2       1 RES1   0.0000
    27 C27     24.9491  -2.7731 -21.6068   C.2       1 RES1   0.0000
    28 C28     24.3813  -3.9639 -21.1939   C.2       1 RES1   0.0000
    29 F29     24.8944  -5.1978 -21.5957   F         1 RES1   0.0000
    30 C30     23.2405  -3.8983 -20.3767   C.2       1 RES1   0.0000
    31 C31     22.6663  -2.6979 -19.9610   C.2       1 RES1   0.0000
    32 C32     20.8069  -0.4776 -16.7503   C.2       1 RES1   0.0000
    33 C33     20.6586  -1.1590 -15.5690   C.2       1 RES1   0.0000
    34 N34     21.6988  -1.9997 -15.0949   N.2       1 RES1   0.0000
    35 C35     28.7636  -4.9119 -13.5364   C.2       1 RES1   0.0000
@<TRIPOS>BOND
     1     1     2    1
     2     2     3    1
     3     3     4    2
     4     4     5    1
     5     5     6    2
     6     6     7    1
     7     7     8    1
     8     6     9    1
     9     9    10    1
    10    10    11    1
    11    11    12    1
    12    12    13    2
    13    12    14   am
    14    14    15    1
    15    15    16    2
    16    16    17    1
    17    17    18    1
    18    18    19    1
    19    19    20    2
    20    20    21    1
    21    21    22    1
    22    20    23    1
    23    23    24    1
    24    24    25    1
    25    25    26    2
    26    26    27    1
    27    27    28    2
    28    28    29    1
    29    28    30    1
    30    30    31    2
    31    17    32    2
    32    32    33    1
    33    33    34    2
    34     9    35    2
    35    35     3    1
    36    34    15    1
    37    24    18    2
    38    31    25    1
@<TRIPOS>SUBSTRUCTURE
     1 RES1        1 GROUP             0 ****  ****    0  
@<TRIPOS>MOLECULE
ligand_51
    35    38     1     0     0
SMALL
NO_CHARGES
****
Generated from the CSD

@<TRIPOS>ATOM
     1 C1      30.9665  -6.0695 -14.7786   C.3       1 RES1   0.0000
     2 O2      30.5793  -6.4175 -13.3816   O.3       1 RES1   0.0000
     3 C3      29.4897  -5.8274 -12.7744   C.2       1 RES1   0.0000
     4 C4      29.0729  -6.1171 -11.4447   C.2       1 RES1   0.0000
     5 C5      27.9463  -5.4564 -10.9572   C.2       1 RES1   0.0000
     6 C6      27.2374  -4.4999 -11.7463   C.2       1 RES1   0.0000
     7 O7      26.1433  -3.8388 -11.2326   O.3       1 RES1   0.0000
     8 C8      25.7948  -4.1654  -9.8559   C.3       1 RES1   0.0000
     9 C9      27.6299  -4.2218 -13.0827   C.2       1 RES1   0.0000
    10 C10     27.0531  -3.2901 -14.0413   C.3       1 RES1   0.0000
    11 C11     25.7988  -3.9757 -14.6156   C.3       1 RES1   0.0000
    12 C12     24.9884  -3.1905 -15.6706   C.2       1 RES1   0.0000
    13 O13     25.5087  -2.7639 -16.6732   O.2       1 RES1   0.0000
    14 N14     23.7591  -2.9052 -15.2282   N.am      1 RES1   0.0000
    15 C15     22.8538  -2.0886 -15.8139   C.2       1 RES1   0.0000
    16 C16     22.9831  -1.4157 -17.0343   C.2       1 RES1   0.0000
    17 C17     21.9856  -0.5377 -17.5172   C.2       1 RES1   0.0000
    18 C18     22.0877   0.0986 -18.7429   C.2       1 RES1   0.0000
    19 N19     21.6667   1.3795 -18.9232   N.2       1 RES1   0.0000
    20 C20     21.9519   1.7582 -20.1355   C.2       1 RES1   0.0000
    21 S21     21.5517   3.3591 -20.7563   S.3       1 RES1   0.0000
    22 C22     22.1594   3.3179 -22.4162   C.3       1 RES1   0.0000
    23 N23     22.5737   0.7542 -20.7624   N.2       1 RES1   0.0000
    24 C24     22.6713  -0.2835 -19.9346   C.2       1 RES1   0.0000
    25 C25     23.2405  -1.4651 -20.3675   C.2       1 RES1   0.0000
    26 C26     24.3730  -1.5428 -21.2054   C.2       1 RES1   0.0000
    27 C27     24.9491  -2.7731 -21.6068   C.2       1 RES1   0.0000
    28 C28     24.3813  -3.9639 -21.1939   C.2       1 RES1   0.0000
    29 F29     24.8944  -5.1978 -21.5957   F         1 RES1   0.0000
    30 C30     23.2405  -3.8983 -20.3767   C.2       1 RES1   0.0000
    31 C31     22.6663  -2.6979 -19.9610   C.2       1 RES1   0.0000
    32 C32     20.8069  -0.4776 -16.7503   C.2       1 RES1   0.0000
    33 C33     20.6586  -1.1590 -15.5690   C.2       1 RES1   0.0000
    34 N34     21.6988  -1.9997 -15.0949   N.2       1 RES1   0.0000
    35 C35     28.7636  -4.9119 -13.5364   C.2       1 RES1   0.0000
@<TRIPOS>BOND
     1     1     2    1
     2     2     3    1
     3     3     4    2
     4     4     5    1
     5     5     6    2
     6     6     7    1
     7     7     8    1
     8     6     9    1
     9     9    10    1
    10    10    11    1
    11    11    12    1
    12    12    13    2
    13    12    14   am
    14    14    15    1
    15    15    16    2
    16    16    17    1
    17    17    18    1
    18    18    19    1
    19    19    20    2
    20    20    21    1
    21    21    22    1
    22    20    23    1
    23    23    24    1
    24    24    25    1
    25    25    26    2
    26    26    27    1
    27    27    28    2
    28    28    29    1
    29    28    30    1
    30    30    31    2
    31    17    32    2
    32    32    33    1
    33    33    34    2
    34     9    35    2
    35    35     3    1
    36    34    15    1
    37    24    18    2
    38    31    25    1
@<TRIPOS>SUBSTRUCTURE
     1 RES1        1 GROUP             0 ****  ****    0  
@<TRIPOS>MOLECULE
ligand_52
    35    38     1     0     0
SMALL
NO_CHARGES
****
Generated from the CSD

@<TRIPOS>ATOM
     1 C1      31.6885  -5.7474 -11.7057   C.3       1 RES1   0.0000
     2 O2      30.7230  -5.3657 -12.7757   O.3       1 RES1   0.0000
     3 C3      29.4165  -5.8089 -12.7500   C.2       1 RES1   0.0000
     4 C4      28.8860  -6.6469 -11.7291   C.2       1 RES1   0.0000
     5 C5      27.5497  -7.0305 -11.8310   C.2       1 RES1   0.0000
     6 C6      26.7213  -6.5857 -12.9061   C.2       1 RES1   0.0000
     7 O7      25.3957  -6.9553 -12.9701   O.3       1 RES1   0.0000
     8 C8      24.9169  -7.7888 -11.8749   C.3       1 RES1   0.0000
     9 C9      27.2469  -5.7698 -13.9431   C.2       1 RES1   0.0000
    10 C10     26.5784  -5.2116 -15.1098   C.3       1 RES1   0.0000
    11 C11     25.7977  -3.9785 -14.6169   C.3       1 RES1   0.0000
    12 C12     24.9884  -3.1905 -15.6706   C.2       1 RES1   0.0000
    13 O13     25.5095  -2.7622 -16.6720   O.2       1 RES1   0.0000
    14 N14     23.7591  -2.9052 -15.2282   N.am      1 RES1   0.0000
    15 C15     22.8538  -2.0886 -15.8139   C.2       1 RES1   0.0000
    16 C16     22.9830  -1.4159 -17.0345   C.2       1 RES1   0.0000
    17 C17     21.9855  -0.5379 -17.5173   C.2       1 RES1   0.0000
    18 C18     22.0875   0.0983 -18.7431   C.2       1 RES1   0.0000
    19 N19     21.6666   1.3791 -18.9236   N.2       1 RES1   0.0000
    20 C20     21.9517   1.7576 -20.1359   C.2       1 RES1   0.0000
    21 S21     21.5516   3.3585 -20.7569   S.3       1 RES1   0.0000
    22 C22     22.1591   3.3169 -22.4169   C.3       1 RES1   0.0000
    23 N23     22.5733   0.7535 -20.7628   N.2       1 RES1   0.0000
    24 C24     22.6709  -0.2841 -19.9349   C.2       1 RES1   0.0000
    25 C25     23.2399  -1.4658 -20.3676   C.2       1 RES1   0.0000
    26 C26     24.3723  -1.5437 -21.2057   C.2       1 RES1   0.0000
    27 C27     24.9483  -2.7742 -21.6070   C.2       1 RES1   0.0000
    28 C28     24.3804  -3.9648 -21.1938   C.2       1 RES1   0.0000
    29 F29     24.8933  -5.1989 -21.5955   F         1 RES1   0.0000
    30 C30     23.2397  -3.8990 -20.3765   C.2       1 RES1   0.0000
    31 C31     22.6657  -2.6985 -19.9609   C.2       1 RES1   0.0000
    32 C32     20.8070  -0.4776 -16.7503   C.2       1 RES1   0.0000
    33 C33     20.6587  -1.1588 -15.5689   C.2       1 RES1   0.0000
    34 N34     21.6989  -1.9995 -15.0947   N.2       1 RES1   0.0000
    35 C35     28.5963  -5.4118 -13.8061   C.2       1 RES1   0.0000
@<TRIPOS>BOND
     1     1     2    1
     2     2     3    1
     3     3     4    2
     4     4     5    1
     5     5     6    2
     6     6     7    1
     7     7     8    1
     8     6     9    1
     9     9    10    1
    10    10    11    1
    11    11    12    1
    12    12    13    2
    13    12    14   am
    14    14    15    1
    15    15    16    2
    16    16    17    1
    17    17    18    1
    18    18    19    1
    19    19    20    2
    20    20    21    1
    21    21    22    1
    22    20    23    1
    23    23    24    1
    24    24    25    1
    25    25    26    2
    26    26    27    1
    27    27    28    2
    28    28    29    1
    29    28    30    1
    30    30    31    2
    31    17    32    2
    32    32    33    1
    33    33    34    2
    34     9    35    2
    35    35     3    1
    36    34    15    1
    37    24    18    2
    38    31    25    1
@<TRIPOS>SUBSTRUCTURE
     1 RES1        1 GROUP             0 ****  ****    0  
@<TRIPOS>MOLECULE
ligand_53
    35    38     1     0     0
SMALL
NO_CHARGES
****
Generated from the CSD

@<TRIPOS>ATOM
     1 C1      31.2184  -4.4866 -13.8732   C.3       1 RES1   0.0000
     2 O2      30.7230  -5.3657 -12.7757   O.3       1 RES1   0.0000
     3 C3      29.4165  -5.8089 -12.7500   C.2       1 RES1   0.0000
     4 C4      28.8860  -6.6469 -11.7291   C.2       1 RES1   0.0000
     5 C5      27.5497  -7.0305 -11.8309   C.2       1 RES1   0.0000
     6 C6      26.7213  -6.5857 -12.9061   C.2       1 RES1   0.0000
     7 O7      25.3957  -6.9553 -12.9701   O.3       1 RES1   0.0000
     8 C8      24.9169  -7.7888 -11.8749   C.3       1 RES1   0.0000
     9 C9      27.2470  -5.7698 -13.9431   C.2       1 RES1   0.0000
    10 C10     26.5784  -5.2116 -15.1098   C.3       1 RES1   0.0000
    11 C11     25.7977  -3.9785 -14.6169   C.3       1 RES1   0.0000
    12 C12     24.9884  -3.1905 -15.6706   C.2       1 RES1   0.0000
    13 O13     25.5095  -2.7622 -16.6720   O.2       1 RES1   0.0000
    14 N14     23.7591  -2.9052 -15.2282   N.am      1 RES1   0.0000
    15 C15     22.8538  -2.0886 -15.8139   C.2       1 RES1   0.0000
    16 C16     22.9830  -1.4159 -17.0345   C.2       1 RES1   0.0000
    17 C17     21.9855  -0.5379 -17.5173   C.2       1 RES1   0.0000
    18 C18     22.0875   0.0983 -18.7431   C.2       1 RES1   0.0000
    19 N19     21.6666   1.3791 -18.9236   N.2       1 RES1   0.0000
    20 C20     21.9516   1.7576 -20.1359   C.2       1 RES1   0.0000
    21 S21     21.5516   3.3585 -20.7569   S.3       1 RES1   0.0000
    22 C22     22.1591   3.3169 -22.4169   C.3       1 RES1   0.0000
    23 N23     22.5733   0.7535 -20.7628   N.2       1 RES1   0.0000
    24 C24     22.6709  -0.2841 -19.9349   C.2       1 RES1   0.0000
    25 C25     23.2399  -1.4658 -20.3676   C.2       1 RES1   0.0000
    26 C26     24.3723  -1.5437 -21.2057   C.2       1 RES1   0.0000
    27 C27     24.9483  -2.7742 -21.6070   C.2       1 RES1   0.0000
    28 C28     24.3804  -3.9648 -21.1938   C.2       1 RES1   0.0000
    29 F29     24.8933  -5.1989 -21.5955   F         1 RES1   0.0000
    30 C30     23.2397  -3.8990 -20.3765   C.2       1 RES1   0.0000
    31 C31     22.6657  -2.6985 -19.9609   C.2       1 RES1   0.0000
    32 C32     20.8070  -0.4776 -16.7503   C.2       1 RES1   0.0000
    33 C33     20.6587  -1.1588 -15.5689   C.2       1 RES1   0.0000
    34 N34     21.6989  -1.9995 -15.0947   N.2       1 RES1   0.0000
    35 C35     28.5963  -5.4118 -13.8061   C.2       1 RES1   0.0000
@<TRIPOS>BOND
     1     1     2    1
     2     2     3    1
     3     3     4    2
     4     4     5    1
     5     5     6    2
     6     6     7    1
     7     7     8    1
     8     6     9    1
     9     9    10    1
    10    10    11    1
    11    11    12    1
    12    12    13    2
    13    12    14   am
    14    14    15    1
    15    15    16    2
    16    16    17    1
    17    17    18    1
    18    18    19    1
    19    19    20    2
    20    20    21    1
    21    21    22    1
    22    20    23    1
    23    23    24    1
    24    24    25    1
    25    25    26    2
    26    26    27    1
    27    27    28    2
    28    28    29    1
    29    28    30    1
    30    30    31    2
    31    17    32    2
    32    32    33    1
    33    33    34    2
    34     9    35    2
    35    35     3    1
    36    34    15    1
    37    24    18    2
    38    31    25    1
@<TRIPOS>SUBSTRUCTURE
     1 RES1        1 GROUP             0 ****  ****    0  
@<TRIPOS>MOLECULE
ligand_54
    35    38     1     0     0
SMALL
NO_CHARGES
****
Generated from the CSD

@<TRIPOS>ATOM
     1 C1      26.8408  -9.5644 -10.7542   C.3       1 RES1   0.0000
     2 O2      26.4162  -8.7433 -11.9238   O.3       1 RES1   0.0000
     3 C3      27.1359  -7.6332 -12.3161   C.2       1 RES1   0.0000
     4 C4      28.3156  -7.1833 -11.6589   C.2       1 RES1   0.0000
     5 C5      28.9397  -6.0390 -12.1530   C.2       1 RES1   0.0000
     6 C6      28.4370  -5.3439 -13.2951   C.2       1 RES1   0.0000
     7 O7      29.0873  -4.2313 -13.7821   O.3       1 RES1   0.0000
     8 C8      30.3032  -3.8487 -13.0761   C.3       1 RES1   0.0000
     9 C9      27.2469  -5.7698 -13.9431   C.2       1 RES1   0.0000
    10 C10     26.5784  -5.2116 -15.1098   C.3       1 RES1   0.0000
    11 C11     25.7977  -3.9785 -14.6169   C.3       1 RES1   0.0000
    12 C12     24.9884  -3.1905 -15.6706   C.2       1 RES1   0.0000
    13 O13     25.5095  -2.7622 -16.6720   O.2       1 RES1   0.0000
    14 N14     23.7591  -2.9052 -15.2282   N.am      1 RES1   0.0000
    15 C15     22.8538  -2.0886 -15.8139   C.2       1 RES1   0.0000
    16 C16     22.9830  -1.4159 -17.0345   C.2       1 RES1   0.0000
    17 C17     21.9855  -0.5379 -17.5173   C.2       1 RES1   0.0000
    18 C18     22.0875   0.0983 -18.7431   C.2       1 RES1   0.0000
    19 N19     21.6666   1.3791 -18.9236   N.2       1 RES1   0.0000
    20 C20     21.9517   1.7576 -20.1359   C.2       1 RES1   0.0000
    21 S21     21.5516   3.3585 -20.7569   S.3       1 RES1   0.0000
    22 C22     22.1591   3.3169 -22.4169   C.3       1 RES1   0.0000
    23 N23     22.5733   0.7535 -20.7628   N.2       1 RES1   0.0000
    24 C24     22.6709  -0.2841 -19.9349   C.2       1 RES1   0.0000
    25 C25     23.2399  -1.4658 -20.3676   C.2       1 RES1   0.0000
    26 C26     24.3723  -1.5437 -21.2057   C.2       1 RES1   0.0000
    27 C27     24.9483  -2.7742 -21.6070   C.2       1 RES1   0.0000
    28 C28     24.3804  -3.9648 -21.1938   C.2       1 RES1   0.0000
    29 F29     24.8933  -5.1989 -21.5955   F         1 RES1   0.0000
    30 C30     23.2397  -3.8990 -20.3765   C.2       1 RES1   0.0000
    31 C31     22.6657  -2.6985 -19.9609   C.2       1 RES1   0.0000
    32 C32     20.8070  -0.4776 -16.7503   C.2       1 RES1   0.0000
    33 C33     20.6587  -1.1588 -15.5689   C.2       1 RES1   0.0000
    34 N34     21.6989  -1.9995 -15.0947   N.2       1 RES1   0.0000
    35 C35     26.6470  -6.9207 -13.4111   C.2       1 RES1   0.0000
@<TRIPOS>BOND
     1     1     2    1
     2     2     3    1
     3     3     4    2
     4     4     5    1
     5     5     6    2
     6     6     7    1
     7     7     8    1
     8     6     9    1
     9     9    10    1
    10    10    11    1
    11    11    12    1
    12    12    13    2
    13    12    14   am
    14    14    15    1
    15    15    16    2
    16    16    17    1
    17    17    18    1
    18    18    19    1
    19    19    20    2
    20    20    21    1
    21    21    22    1
    22    20    23    1
    23    23    24    1
    24    24    25    1
    25    25    26    2
    26    26    27    1
    27    27    28    2
    28    28    29    1
    29    28    30    1
    30    30    31    2
    31    17    32    2
    32    32    33    1
    33    33    34    2
    34     9    35    2
    35    35     3    1
    36    34    15    1
    37    24    18    2
    38    31    25    1
@<TRIPOS>SUBSTRUCTURE
     1 RES1        1 GROUP             0 ****  ****    0  
@<TRIPOS>MOLECULE
ligand_55
    35    38     1     0     0
SMALL
NO_CHARGES
****
Generated from the CSD

@<TRIPOS>ATOM
     1 C1      25.1880  -9.1650 -12.6561   C.3       1 RES1   0.0000
     2 O2      26.4163  -8.7433 -11.9238   O.3       1 RES1   0.0000
     3 C3      27.1359  -7.6332 -12.3161   C.2       1 RES1   0.0000
     4 C4      28.3156  -7.1833 -11.6589   C.2       1 RES1   0.0000
     5 C5      28.9397  -6.0390 -12.1530   C.2       1 RES1   0.0000
     6 C6      28.4370  -5.3439 -13.2951   C.2       1 RES1   0.0000
     7 O7      29.0873  -4.2313 -13.7821   O.3       1 RES1   0.0000
     8 C8      30.3032  -3.8486 -13.0761   C.3       1 RES1   0.0000
     9 C9      27.2470  -5.7698 -13.9431   C.2       1 RES1   0.0000
    10 C10     26.5784  -5.2116 -15.1098   C.3       1 RES1   0.0000
    11 C11     25.7977  -3.9785 -14.6169   C.3       1 RES1   0.0000
    12 C12     24.9884  -3.1905 -15.6706   C.2       1 RES1   0.0000
    13 O13     25.5095  -2.7622 -16.6720   O.2       1 RES1   0.0000
    14 N14     23.7591  -2.9052 -15.2282   N.am      1 RES1   0.0000
    15 C15     22.8538  -2.0886 -15.8139   C.2       1 RES1   0.0000
    16 C16     22.9830  -1.4159 -17.0345   C.2       1 RES1   0.0000
    17 C17     21.9855  -0.5379 -17.5173   C.2       1 RES1   0.0000
    18 C18     22.0875   0.0983 -18.7431   C.2       1 RES1   0.0000
    19 N19     21.6666   1.3791 -18.9236   N.2       1 RES1   0.0000
    20 C20     21.9516   1.7576 -20.1359   C.2       1 RES1   0.0000
    21 S21     21.5516   3.3585 -20.7569   S.3       1 RES1   0.0000
    22 C22     22.1591   3.3169 -22.4169   C.3       1 RES1   0.0000
    23 N23     22.5733   0.7535 -20.7628   N.2       1 RES1   0.0000
    24 C24     22.6709  -0.2841 -19.9349   C.2       1 RES1   0.0000
    25 C25     23.2399  -1.4658 -20.3676   C.2       1 RES1   0.0000
    26 C26     24.3723  -1.5437 -21.2057   C.2       1 RES1   0.0000
    27 C27     24.9483  -2.7742 -21.6070   C.2       1 RES1   0.0000
    28 C28     24.3804  -3.9648 -21.1938   C.2       1 RES1   0.0000
    29 F29     24.8933  -5.1989 -21.5955   F         1 RES1   0.0000
    30 C30     23.2397  -3.8990 -20.3765   C.2       1 RES1   0.0000
    31 C31     22.6657  -2.6985 -19.9609   C.2       1 RES1   0.0000
    32 C32     20.8070  -0.4776 -16.7503   C.2       1 RES1   0.0000
    33 C33     20.6587  -1.1588 -15.5689   C.2       1 RES1   0.0000
    34 N34     21.6989  -1.9995 -15.0947   N.2       1 RES1   0.0000
    35 C35     26.6470  -6.9207 -13.4111   C.2       1 RES1   0.0000
@<TRIPOS>BOND
     1     1     2    1
     2     2     3    1
     3     3     4    2
     4     4     5    1
     5     5     6    2
     6     6     7    1
     7     7     8    1
     8     6     9    1
     9     9    10    1
    10    10    11    1
    11    11    12    1
    12    12    13    2
    13    12    14   am
    14    14    15    1
    15    15    16    2
    16    16    17    1
    17    17    18    1
    18    18    19    1
    19    19    20    2
    20    20    21    1
    21    21    22    1
    22    20    23    1
    23    23    24    1
    24    24    25    1
    25    25    26    2
    26    26    27    1
    27    27    28    2
    28    28    29    1
    29    28    30    1
    30    30    31    2
    31    17    32    2
    32    32    33    1
    33    33    34    2
    34     9    35    2
    35    35     3    1
    36    34    15    1
    37    24    18    2
    38    31    25    1
@<TRIPOS>SUBSTRUCTURE
     1 RES1        1 GROUP             0 ****  ****    0  
@<TRIPOS>MOLECULE
ligand_56
    35    38     1     0     0
SMALL
NO_CHARGES
****
Generated from the CSD

@<TRIPOS>ATOM
     1 C1      14.6988  -5.2217  -9.4143   C.3       1 RES1   0.0000
     2 O2      15.3259  -4.6688 -10.6487   O.3       1 RES1   0.0000
     3 C3      15.0682  -3.3785 -11.0643   C.2       1 RES1   0.0000
     4 C4      14.2049  -2.4829 -10.3725   C.2       1 RES1   0.0000
     5 C5      14.0238  -1.2089 -10.9086   C.2       1 RES1   0.0000
     6 C6      14.6946  -0.7936 -12.0993   C.2       1 RES1   0.0000
     7 O7      14.5218   0.4803 -12.5945   O.3       1 RES1   0.0000
     8 C8      13.6476   1.3489 -11.8169   C.3       1 RES1   0.0000
     9 C9      15.5387  -1.6874 -12.8110   C.2       1 RES1   0.0000
    10 C10     16.3089  -1.4628 -14.0258   C.3       1 RES1   0.0000
    11 C11     17.5767  -0.6966 -13.6032   C.3       1 RES1   0.0000
    12 C12     18.5803  -0.3274 -14.7180   C.2       1 RES1   0.0000
    13 O13     18.2360   0.2976 -15.6920   O.2       1 RES1   0.0000
    14 N14     19.7544  -0.9424 -14.5405   N.am      1 RES1   0.0000
    15 C15     20.7893  -0.9847 -15.4104   C.2       1 RES1   0.0000
    16 C16     20.8793  -0.3471 -16.6532   C.2       1 RES1   0.0000
    17 C17     21.9956  -0.5154 -17.5044   C.2       1 RES1   0.0000
    18 C18     22.1105   0.1450 -18.7162   C.2       1 RES1   0.0000
    19 N19     21.6950   1.4305 -18.8745   N.2       1 RES1   0.0000
    20 C20     21.9921   1.8326 -20.0764   C.2       1 RES1   0.0000
    21 S21     21.6022   3.4468 -20.6685   S.3       1 RES1   0.0000
    22 C22     22.2247   3.4370 -22.3234   C.3       1 RES1   0.0000
    23 N23     22.6166   0.8394 -20.7177   N.2       1 RES1   0.0000
    24 C24     22.7038  -0.2150 -19.9101   C.2       1 RES1   0.0000
    25 C25     23.2734  -1.3894 -20.3614   C.2       1 RES1   0.0000
    26 C26     24.4132  -1.4537 -21.1906   C.2       1 RES1   0.0000
    27 C27     24.9893  -2.6775 -21.6114   C.2       1 RES1   0.0000
    28 C28     24.4144  -3.8746 -21.2275   C.2       1 RES1   0.0000
    29 F29     24.9275  -5.1018 -21.6494   F         1 RES1   0.0000
    30 C30     23.2665  -3.8219 -20.4195   C.2       1 RES1   0.0000
    31 C31     22.6921  -2.6283 -19.9849   C.2       1 RES1   0.0000
    32 C32     23.0584  -1.2677 -16.9702   C.2       1 RES1   0.0000
    33 C33     22.9920  -1.8695 -15.7393   C.2       1 RES1   0.0000
    34 N34     21.8374  -1.7120 -14.9294   N.2       1 RES1   0.0000
    35 C35     15.6887  -2.9605 -12.2415   C.2       1 RES1   0.0000
@<TRIPOS>BOND
     1     1     2    1
     2     2     3    1
     3     3     4    2
     4     4     5    1
     5     5     6    2
     6     6     7    1
     7     7     8    1
     8     6     9    1
     9     9    10    1
    10    10    11    1
    11    11    12    1
    12    12    13    2
    13    12    14   am
    14    14    15    1
    15    15    16    2
    16    16    17    1
    17    17    18    1
    18    18    19    1
    19    19    20    2
    20    20    21    1
    21    21    22    1
    22    20    23    1
    23    23    24    1
    24    24    25    1
    25    25    26    2
    26    26    27    1
    27    27    28    2
    28    28    29    1
    29    28    30    1
    30    30    31    2
    31    17    32    2
    32    32    33    1
    33    33    34    2
    34     9    35    2
    35    35     3    1
    36    34    15    1
    37    24    18    2
    38    31    25    1
@<TRIPOS>SUBSTRUCTURE
     1 RES1        1 GROUP             0 ****  ****    0  
@<TRIPOS>MOLECULE
ligand_57
    35    38     1     0     0
SMALL
NO_CHARGES
****
Generated from the CSD

@<TRIPOS>ATOM
     1 C1      16.2429  -5.5584 -11.4170   C.3       1 RES1   0.0000
     2 O2      15.3259  -4.6688 -10.6487   O.3       1 RES1   0.0000
     3 C3      15.0682  -3.3785 -11.0643   C.2       1 RES1   0.0000
     4 C4      14.2049  -2.4829 -10.3725   C.2       1 RES1   0.0000
     5 C5      14.0238  -1.2089 -10.9086   C.2       1 RES1   0.0000
     6 C6      14.6946  -0.7937 -12.0993   C.2       1 RES1   0.0000
     7 O7      14.5218   0.4803 -12.5945   O.3       1 RES1   0.0000
     8 C8      13.6476   1.3489 -11.8169   C.3       1 RES1   0.0000
     9 C9      15.5386  -1.6874 -12.8110   C.2       1 RES1   0.0000
    10 C10     16.3089  -1.4628 -14.0258   C.3       1 RES1   0.0000
    11 C11     17.5767  -0.6966 -13.6032   C.3       1 RES1   0.0000
    12 C12     18.5803  -0.3274 -14.7180   C.2       1 RES1   0.0000
    13 O13     18.2360   0.2976 -15.6920   O.2       1 RES1   0.0000
    14 N14     19.7544  -0.9424 -14.5405   N.am      1 RES1   0.0000
    15 C15     20.7893  -0.9847 -15.4104   C.2       1 RES1   0.0000
    16 C16     20.8793  -0.3471 -16.6532   C.2       1 RES1   0.0000
    17 C17     21.9956  -0.5154 -17.5044   C.2       1 RES1   0.0000
    18 C18     22.1105   0.1450 -18.7162   C.2       1 RES1   0.0000
    19 N19     21.6950   1.4305 -18.8745   N.2       1 RES1   0.0000
    20 C20     21.9921   1.8326 -20.0764   C.2       1 RES1   0.0000
    21 S21     21.6022   3.4468 -20.6685   S.3       1 RES1   0.0000
    22 C22     22.2247   3.4370 -22.3234   C.3       1 RES1   0.0000
    23 N23     22.6166   0.8394 -20.7177   N.2       1 RES1   0.0000
    24 C24     22.7038  -0.2150 -19.9101   C.2       1 RES1   0.0000
    25 C25     23.2734  -1.3894 -20.3614   C.2       1 RES1   0.0000
    26 C26     24.4132  -1.4537 -21.1906   C.2       1 RES1   0.0000
    27 C27     24.9893  -2.6775 -21.6114   C.2       1 RES1   0.0000
    28 C28     24.4144  -3.8746 -21.2275   C.2       1 RES1   0.0000
    29 F29     24.9275  -5.1018 -21.6494   F         1 RES1   0.0000
    30 C30     23.2665  -3.8219 -20.4195   C.2       1 RES1   0.0000
    31 C31     22.6921  -2.6283 -19.9849   C.2       1 RES1   0.0000
    32 C32     23.0584  -1.2677 -16.9702   C.2       1 RES1   0.0000
    33 C33     22.9920  -1.8695 -15.7393   C.2       1 RES1   0.0000
    34 N34     21.8374  -1.7120 -14.9294   N.2       1 RES1   0.0000
    35 C35     15.6887  -2.9605 -12.2416   C.2       1 RES1   0.0000
@<TRIPOS>BOND
     1     1     2    1
     2     2     3    1
     3     3     4    2
     4     4     5    1
     5     5     6    2
     6     6     7    1
     7     7     8    1
     8     6     9    1
     9     9    10    1
    10    10    11    1
    11    11    12    1
    12    12    13    2
    13    12    14   am
    14    14    15    1
    15    15    16    2
    16    16    17    1
    17    17    18    1
    18    18    19    1
    19    19    20    2
    20    20    21    1
    21    21    22    1
    22    20    23    1
    23    23    24    1
    24    24    25    1
    25    25    26    2
    26    26    27    1
    27    27    28    2
    28    28    29    1
    29    28    30    1
    30    30    31    2
    31    17    32    2
    32    32    33    1
    33    33    34    2
    34     9    35    2
    35    35     3    1
    36    34    15    1
    37    24    18    2
    38    31    25    1
@<TRIPOS>SUBSTRUCTURE
     1 RES1        1 GROUP             0 ****  ****    0  
@<TRIPOS>MOLECULE
ligand_58
    35    38     1     0     0
SMALL
NO_CHARGES
****
Generated from the CSD

@<TRIPOS>ATOM
     1 C1      11.5100   0.0421 -10.4630   C.3       1 RES1   0.0000
     2 O2      12.5056   0.0083 -11.5722   O.3       1 RES1   0.0000
     3 C3      13.5413  -0.9034 -11.5748   C.2       1 RES1   0.0000
     4 C4      13.7483  -1.8674 -10.5482   C.2       1 RES1   0.0000
     5 C5      14.8423  -2.7228 -10.6696   C.2       1 RES1   0.0000
     6 C6      15.7215  -2.6615 -11.7935   C.2       1 RES1   0.0000
     7 O7      16.7799  -3.5364 -11.9054   O.3       1 RES1   0.0000
     8 C8      16.9103  -4.5132 -10.8320   C.3       1 RES1   0.0000
     9 C9      15.5387  -1.6874 -12.8110   C.2       1 RES1   0.0000
    10 C10     16.3089  -1.4628 -14.0258   C.3       1 RES1   0.0000
    11 C11     17.5767  -0.6966 -13.6032   C.3       1 RES1   0.0000
    12 C12     18.5803  -0.3274 -14.7180   C.2       1 RES1   0.0000
    13 O13     18.2360   0.2976 -15.6920   O.2       1 RES1   0.0000
    14 N14     19.7544  -0.9424 -14.5405   N.am      1 RES1   0.0000
    15 C15     20.7893  -0.9847 -15.4104   C.2       1 RES1   0.0000
    16 C16     20.8793  -0.3471 -16.6532   C.2       1 RES1   0.0000
    17 C17     21.9956  -0.5154 -17.5044   C.2       1 RES1   0.0000
    18 C18     22.1105   0.1450 -18.7162   C.2       1 RES1   0.0000
    19 N19     21.6950   1.4305 -18.8745   N.2       1 RES1   0.0000
    20 C20     21.9921   1.8326 -20.0764   C.2       1 RES1   0.0000
    21 S21     21.6022   3.4468 -20.6685   S.3       1 RES1   0.0000
    22 C22     22.2247   3.4370 -22.3234   C.3       1 RES1   0.0000
    23 N23     22.6166   0.8394 -20.7177   N.2       1 RES1   0.0000
    24 C24     22.7038  -0.2150 -19.9101   C.2       1 RES1   0.0000
    25 C25     23.2734  -1.3894 -20.3614   C.2       1 RES1   0.0000
    26 C26     24.4132  -1.4537 -21.1906   C.2       1 RES1   0.0000
    27 C27     24.9893  -2.6775 -21.6114   C.2       1 RES1   0.0000
    28 C28     24.4144  -3.8746 -21.2275   C.2       1 RES1   0.0000
    29 F29     24.9275  -5.1018 -21.6494   F         1 RES1   0.0000
    30 C30     23.2665  -3.8219 -20.4195   C.2       1 RES1   0.0000
    31 C31     22.6921  -2.6283 -19.9849   C.2       1 RES1   0.0000
    32 C32     23.0584  -1.2677 -16.9702   C.2       1 RES1   0.0000
    33 C33     22.9920  -1.8695 -15.7393   C.2       1 RES1   0.0000
    34 N34     21.8374  -1.7120 -14.9294   N.2       1 RES1   0.0000
    35 C35     14.4307  -0.8428 -12.6477   C.2       1 RES1   0.0000
@<TRIPOS>BOND
     1     1     2    1
     2     2     3    1
     3     3     4    2
     4     4     5    1
     5     5     6    2
     6     6     7    1
     7     7     8    1
     8     6     9    1
     9     9    10    1
    10    10    11    1
    11    11    12    1
    12    12    13    2
    13    12    14   am
    14    14    15    1
    15    15    16    2
    16    16    17    1
    17    17    18    1
    18    18    19    1
    19    19    20    2
    20    20    21    1
    21    21    22    1
    22    20    23    1
    23    23    24    1
    24    24    25    1
    25    25    26    2
    26    26    27    1
    27    27    28    2
    28    28    29    1
    29    28    30    1
    30    30    31    2
    31    17    32    2
    32    32    33    1
    33    33    34    2
    34     9    35    2
    35    35     3    1
    36    34    15    1
    37    24    18    2
    38    31    25    1
@<TRIPOS>SUBSTRUCTURE
     1 RES1        1 GROUP             0 ****  ****    0  
@<TRIPOS>MOLECULE
ligand_59
    35    38     1     0     0
SMALL
NO_CHARGES
****
Generated from the CSD

@<TRIPOS>ATOM
     1 C1      12.3413   0.9927 -12.6797   C.3       1 RES1   0.0000
     2 O2      12.5055   0.0082 -11.5722   O.3       1 RES1   0.0000
     3 C3      13.5413  -0.9034 -11.5748   C.2       1 RES1   0.0000
     4 C4      13.7483  -1.8674 -10.5482   C.2       1 RES1   0.0000
     5 C5      14.8423  -2.7228 -10.6696   C.2       1 RES1   0.0000
     6 C6      15.7215  -2.6616 -11.7935   C.2       1 RES1   0.0000
     7 O7      16.7798  -3.5365 -11.9054   O.3       1 RES1   0.0000
     8 C8      16.9103  -4.5132 -10.8320   C.3       1 RES1   0.0000
     9 C9      15.5386  -1.6874 -12.8110   C.2       1 RES1   0.0000
    10 C10     16.3089  -1.4628 -14.0258   C.3       1 RES1   0.0000
    11 C11     17.5767  -0.6966 -13.6032   C.3       1 RES1   0.0000
    12 C12     18.5803  -0.3274 -14.7180   C.2       1 RES1   0.0000
    13 O13     18.2360   0.2976 -15.6920   O.2       1 RES1   0.0000
    14 N14     19.7544  -0.9424 -14.5405   N.am      1 RES1   0.0000
    15 C15     20.7893  -0.9847 -15.4104   C.2       1 RES1   0.0000
    16 C16     20.8793  -0.3471 -16.6532   C.2       1 RES1   0.0000
    17 C17     21.9956  -0.5154 -17.5044   C.2       1 RES1   0.0000
    18 C18     22.1105   0.1450 -18.7162   C.2       1 RES1   0.0000
    19 N19     21.6950   1.4305 -18.8745   N.2       1 RES1   0.0000
    20 C20     21.9921   1.8326 -20.0764   C.2       1 RES1   0.0000
    21 S21     21.6022   3.4468 -20.6685   S.3       1 RES1   0.0000
    22 C22     22.2247   3.4370 -22.3234   C.3       1 RES1   0.0000
    23 N23     22.6166   0.8394 -20.7177   N.2       1 RES1   0.0000
    24 C24     22.7038  -0.2150 -19.9101   C.2       1 RES1   0.0000
    25 C25     23.2734  -1.3894 -20.3614   C.2       1 RES1   0.0000
    26 C26     24.4132  -1.4537 -21.1906   C.2       1 RES1   0.0000
    27 C27     24.9893  -2.6775 -21.6114   C.2       1 RES1   0.0000
    28 C28     24.4144  -3.8746 -21.2275   C.2       1 RES1   0.0000
    29 F29     24.9275  -5.1018 -21.6494   F         1 RES1   0.0000
    30 C30     23.2665  -3.8219 -20.4195   C.2       1 RES1   0.0000
    31 C31     22.6921  -2.6283 -19.9849   C.2       1 RES1   0.0000
    32 C32     23.0584  -1.2677 -16.9702   C.2       1 RES1   0.0000
    33 C33     22.9920  -1.8695 -15.7393   C.2       1 RES1   0.0000
    34 N34     21.8374  -1.7120 -14.9294   N.2       1 RES1   0.0000
    35 C35     14.4307  -0.8428 -12.6477   C.2       1 RES1   0.0000
@<TRIPOS>BOND
     1     1     2    1
     2     2     3    1
     3     3     4    2
     4     4     5    1
     5     5     6    2
     6     6     7    1
     7     7     8    1
     8     6     9    1
     9     9    10    1
    10    10    11    1
    11    11    12    1
    12    12    13    2
    13    12    14   am
    14    14    15    1
    15    15    16    2
    16    16    17    1
    17    17    18    1
    18    18    19    1
    19    19    20    2
    20    20    21    1
    21    21    22    1
    22    20    23    1
    23    23    24    1
    24    24    25    1
    25    25    26    2
    26    26    27    1
    27    27    28    2
    28    28    29    1
    29    28    30    1
    30    30    31    2
    31    17    32    2
    32    32    33    1
    33    33    34    2
    34     9    35    2
    35    35     3    1
    36    34    15    1
    37    24    18    2
    38    31    25    1
@<TRIPOS>SUBSTRUCTURE
     1 RES1        1 GROUP             0 ****  ****    0  
@<TRIPOS>MOLECULE
ligand_60
    35    38     1     0     0
SMALL
NO_CHARGES
****
Generated from the CSD

@<TRIPOS>ATOM
     1 C1      11.2280  -1.6679 -11.3570   C.3       1 RES1   0.0000
     2 O2      12.3572  -1.0712 -12.1261   O.3       1 RES1   0.0000
     3 C3      13.6116  -0.9393 -11.5666   C.2       1 RES1   0.0000
     4 C4      13.9332  -1.3491 -10.2420   C.2       1 RES1   0.0000
     5 C5      15.2390  -1.1478  -9.7974   C.2       1 RES1   0.0000
     6 C6      16.2382  -0.5723 -10.6402   C.2       1 RES1   0.0000
     7 O7      17.5293  -0.4092 -10.1879   O.3       1 RES1   0.0000
     8 C8      17.7899  -0.8790  -8.8334   C.3       1 RES1   0.0000
     9 C9      15.9219  -0.1371 -11.9549   C.2       1 RES1   0.0000
    10 C10     16.7841   0.4619 -12.9635   C.3       1 RES1   0.0000
    11 C11     17.5778  -0.6941 -13.6014   C.3       1 RES1   0.0000
    12 C12     18.5803  -0.3274 -14.7180   C.2       1 RES1   0.0000
    13 O13     18.2351   0.2957 -15.6928   O.2       1 RES1   0.0000
    14 N14     19.7544  -0.9424 -14.5405   N.am      1 RES1   0.0000
    15 C15     20.7893  -0.9847 -15.4104   C.2       1 RES1   0.0000
    16 C16     20.8794  -0.3469 -16.6531   C.2       1 RES1   0.0000
    17 C17     21.9957  -0.5152 -17.5043   C.2       1 RES1   0.0000
    18 C18     22.1107   0.1454 -18.7160   C.2       1 RES1   0.0000
    19 N19     21.6953   1.4310 -18.8741   N.2       1 RES1   0.0000
    20 C20     21.9925   1.8332 -20.0759   C.2       1 RES1   0.0000
    21 S21     21.6028   3.4476 -20.6677   S.3       1 RES1   0.0000
    22 C22     22.2254   3.4379 -22.3226   C.3       1 RES1   0.0000
    23 N23     22.6169   0.8401 -20.7174   N.2       1 RES1   0.0000
    24 C24     22.7039  -0.2145 -19.9099   C.2       1 RES1   0.0000
    25 C25     23.2734  -1.3889 -20.3615   C.2       1 RES1   0.0000
    26 C26     24.4131  -1.4533 -21.1907   C.2       1 RES1   0.0000
    27 C27     24.9891  -2.6771 -21.6117   C.2       1 RES1   0.0000
    28 C28     24.4140  -3.8741 -21.2280   C.2       1 RES1   0.0000
    29 F29     24.9270  -5.1013 -21.6501   F         1 RES1   0.0000
    30 C30     23.2661  -3.8214 -20.4199   C.2       1 RES1   0.0000
    31 C31     22.6919  -2.6278 -19.9852   C.2       1 RES1   0.0000
    32 C32     23.0584  -1.2677 -16.9702   C.2       1 RES1   0.0000
    33 C33     22.9919  -1.8698 -15.7394   C.2       1 RES1   0.0000
    34 N34     21.8373  -1.7122 -14.9296   N.2       1 RES1   0.0000
    35 C35     14.5966  -0.3520 -12.3608   C.2       1 RES1   0.0000
@<TRIPOS>BOND
     1     1     2    1
     2     2     3    1
     3     3     4    2
     4     4     5    1
     5     5     6    2
     6     6     7    1
     7     7     8    1
     8     6     9    1
     9     9    10    1
    10    10    11    1
    11    11    12    1
    12    12    13    2
    13    12    14   am
    14    14    15    1
    15    15    16    2
    16    16    17    1
    17    17    18    1
    18    18    19    1
    19    19    20    2
    20    20    21    1
    21    21    22    1
    22    20    23    1
    23    23    24    1
    24    24    25    1
    25    25    26    2
    26    26    27    1
    27    27    28    2
    28    28    29    1
    29    28    30    1
    30    30    31    2
    31    17    32    2
    32    32    33    1
    33    33    34    2
    34     9    35    2
    35    35     3    1
    36    34    15    1
    37    24    18    2
    38    31    25    1
@<TRIPOS>SUBSTRUCTURE
     1 RES1        1 GROUP             0 ****  ****    0  
@<TRIPOS>MOLECULE
ligand_61
    35    38     1     0     0
SMALL
NO_CHARGES
****
Generated from the CSD

@<TRIPOS>ATOM
     1 C1      12.0838  -0.6239 -13.5218   C.3       1 RES1   0.0000
     2 O2      12.3572  -1.0712 -12.1261   O.3       1 RES1   0.0000
     3 C3      13.6116  -0.9393 -11.5666   C.2       1 RES1   0.0000
     4 C4      13.9332  -1.3491 -10.2420   C.2       1 RES1   0.0000
     5 C5      15.2390  -1.1479  -9.7974   C.2       1 RES1   0.0000
     6 C6      16.2382  -0.5723 -10.6403   C.2       1 RES1   0.0000
     7 O7      17.5293  -0.4092 -10.1879   O.3       1 RES1   0.0000
     8 C8      17.7899  -0.8791  -8.8334   C.3       1 RES1   0.0000
     9 C9      15.9219  -0.1371 -11.9549   C.2       1 RES1   0.0000
    10 C10     16.7841   0.4619 -12.9635   C.3       1 RES1   0.0000
    11 C11     17.5778  -0.6941 -13.6014   C.3       1 RES1   0.0000
    12 C12     18.5803  -0.3274 -14.7180   C.2       1 RES1   0.0000
    13 O13     18.2351   0.2957 -15.6928   O.2       1 RES1   0.0000
    14 N14     19.7544  -0.9424 -14.5405   N.am      1 RES1   0.0000
    15 C15     20.7893  -0.9847 -15.4104   C.2       1 RES1   0.0000
    16 C16     20.8794  -0.3469 -16.6531   C.2       1 RES1   0.0000
    17 C17     21.9957  -0.5152 -17.5043   C.2       1 RES1   0.0000
    18 C18     22.1107   0.1454 -18.7160   C.2       1 RES1   0.0000
    19 N19     21.6953   1.4310 -18.8741   N.2       1 RES1   0.0000
    20 C20     21.9925   1.8332 -20.0759   C.2       1 RES1   0.0000
    21 S21     21.6028   3.4476 -20.6677   S.3       1 RES1   0.0000
    22 C22     22.2254   3.4380 -22.3226   C.3       1 RES1   0.0000
    23 N23     22.6169   0.8401 -20.7174   N.2       1 RES1   0.0000
    24 C24     22.7039  -0.2144 -19.9099   C.2       1 RES1   0.0000
    25 C25     23.2734  -1.3889 -20.3615   C.2       1 RES1   0.0000
    26 C26     24.4131  -1.4533 -21.1907   C.2       1 RES1   0.0000
    27 C27     24.9891  -2.6771 -21.6117   C.2       1 RES1   0.0000
    28 C28     24.4140  -3.8741 -21.2280   C.2       1 RES1   0.0000
    29 F29     24.9270  -5.1013 -21.6501   F         1 RES1   0.0000
    30 C30     23.2661  -3.8214 -20.4199   C.2       1 RES1   0.0000
    31 C31     22.6918  -2.6278 -19.9852   C.2       1 RES1   0.0000
    32 C32     23.0584  -1.2677 -16.9702   C.2       1 RES1   0.0000
    33 C33     22.9919  -1.8698 -15.7394   C.2       1 RES1   0.0000
    34 N34     21.8373  -1.7122 -14.9296   N.2       1 RES1   0.0000
    35 C35     14.5966  -0.3521 -12.3608   C.2       1 RES1   0.0000
@<TRIPOS>BOND
     1     1     2    1
     2     2     3    1
     3     3     4    2
     4     4     5    1
     5     5     6    2
     6     6     7    1
     7     7     8    1
     8     6     9    1
     9     9    10    1
    10    10    11    1
    11    11    12    1
    12    12    13    2
    13    12    14   am
    14    14    15    1
    15    15    16    2
    16    16    17    1
    17    17    18    1
    18    18    19    1
    19    19    20    2
    20    20    21    1
    21    21    22    1
    22    20    23    1
    23    23    24    1
    24    24    25    1
    25    25    26    2
    26    26    27    1
    27    27    28    2
    28    28    29    1
    29    28    30    1
    30    30    31    2
    31    17    32    2
    32    32    33    1
    33    33    34    2
    34     9    35    2
    35    35     3    1
    36    34    15    1
    37    24    18    2
    38    31    25    1
@<TRIPOS>SUBSTRUCTURE
     1 RES1        1 GROUP             0 ****  ****    0  
@<TRIPOS>MOLECULE
ligand_62
    35    38     1     0     0
SMALL
NO_CHARGES
****
Generated from the CSD

@<TRIPOS>ATOM
     1 C1      15.6048  -0.6645  -7.0197   C.3       1 RES1   0.0000
     2 O2      16.2457  -0.1927  -8.2804   O.3       1 RES1   0.0000
     3 C3      15.6704  -0.4399  -9.5100   C.2       1 RES1   0.0000
     4 C4      14.4477  -1.1476  -9.6826   C.2       1 RES1   0.0000
     5 C5      13.9833  -1.3372 -10.9833   C.2       1 RES1   0.0000
     6 C6      14.6884  -0.8231 -12.1141   C.2       1 RES1   0.0000
     7 O7      14.1949  -0.9986 -13.3883   O.3       1 RES1   0.0000
     8 C8      12.9246  -1.7062 -13.4836   C.3       1 RES1   0.0000
     9 C9      15.9219  -0.1371 -11.9549   C.2       1 RES1   0.0000
    10 C10     16.7841   0.4619 -12.9635   C.3       1 RES1   0.0000
    11 C11     17.5778  -0.6941 -13.6014   C.3       1 RES1   0.0000
    12 C12     18.5803  -0.3274 -14.7180   C.2       1 RES1   0.0000
    13 O13     18.2351   0.2957 -15.6928   O.2       1 RES1   0.0000
    14 N14     19.7544  -0.9424 -14.5405   N.am      1 RES1   0.0000
    15 C15     20.7893  -0.9847 -15.4104   C.2       1 RES1   0.0000
    16 C16     20.8794  -0.3469 -16.6531   C.2       1 RES1   0.0000
    17 C17     21.9957  -0.5152 -17.5043   C.2       1 RES1   0.0000
    18 C18     22.1107   0.1454 -18.7160   C.2       1 RES1   0.0000
    19 N19     21.6953   1.4310 -18.8741   N.2       1 RES1   0.0000
    20 C20     21.9925   1.8332 -20.0759   C.2       1 RES1   0.0000
    21 S21     21.6028   3.4476 -20.6677   S.3       1 RES1   0.0000
    22 C22     22.2254   3.4379 -22.3226   C.3       1 RES1   0.0000
    23 N23     22.6169   0.8401 -20.7174   N.2       1 RES1   0.0000
    24 C24     22.7039  -0.2145 -19.9099   C.2       1 RES1   0.0000
    25 C25     23.2734  -1.3889 -20.3615   C.2       1 RES1   0.0000
    26 C26     24.4131  -1.4533 -21.1907   C.2       1 RES1   0.0000
    27 C27     24.9891  -2.6771 -21.6117   C.2       1 RES1   0.0000
    28 C28     24.4140  -3.8741 -21.2280   C.2       1 RES1   0.0000
    29 F29     24.9270  -5.1013 -21.6501   F         1 RES1   0.0000
    30 C30     23.2661  -3.8214 -20.4199   C.2       1 RES1   0.0000
    31 C31     22.6919  -2.6278 -19.9852   C.2       1 RES1   0.0000
    32 C32     23.0584  -1.2677 -16.9702   C.2       1 RES1   0.0000
    33 C33     22.9919  -1.8698 -15.7394   C.2       1 RES1   0.0000
    34 N34     21.8373  -1.7122 -14.9296   N.2       1 RES1   0.0000
    35 C35     16.3567   0.0266 -10.6313   C.2       1 RES1   0.0000
@<TRIPOS>BOND
     1     1     2    1
     2     2     3    1
     3     3     4    2
     4     4     5    1
     5     5     6    2
     6     6     7    1
     7     7     8    1
     8     6     9    1
     9     9    10    1
    10    10    11    1
    11    11    12    1
    12    12    13    2
    13    12    14   am
    14    14    15    1
    15    15    16    2
    16    16    17    1
    17    17    18    1
    18    18    19    1
    19    19    20    2
    20    20    21    1
    21    21    22    1
    22    20    23    1
    23    23    24    1
    24    24    25    1
    25    25    26    2
    26    26    27    1
    27    27    28    2
    28    28    29    1
    29    28    30    1
    30    30    31    2
    31    17    32    2
    32    32    33    1
    33    33    34    2
    34     9    35    2
    35    35     3    1
    36    34    15    1
    37    24    18    2
    38    31    25    1
@<TRIPOS>SUBSTRUCTURE
     1 RES1        1 GROUP             0 ****  ****    0  
@<TRIPOS>MOLECULE
ligand_63
    35    38     1     0     0
SMALL
NO_CHARGES
****
Generated from the CSD

@<TRIPOS>ATOM
     1 C1      17.5289   0.5574  -8.1656   C.3       1 RES1   0.0000
     2 O2      16.2457  -0.1927  -8.2804   O.3       1 RES1   0.0000
     3 C3      15.6704  -0.4400  -9.5101   C.2       1 RES1   0.0000
     4 C4      14.4476  -1.1477  -9.6826   C.2       1 RES1   0.0000
     5 C5      13.9833  -1.3372 -10.9833   C.2       1 RES1   0.0000
     6 C6      14.6883  -0.8231 -12.1141   C.2       1 RES1   0.0000
     7 O7      14.1949  -0.9987 -13.3883   O.3       1 RES1   0.0000
     8 C8      12.9246  -1.7062 -13.4836   C.3       1 RES1   0.0000
     9 C9      15.9219  -0.1371 -11.9549   C.2       1 RES1   0.0000
    10 C10     16.7841   0.4619 -12.9635   C.3       1 RES1   0.0000
    11 C11     17.5778  -0.6941 -13.6014   C.3       1 RES1   0.0000
    12 C12     18.5803  -0.3274 -14.7180   C.2       1 RES1   0.0000
    13 O13     18.2351   0.2957 -15.6928   O.2       1 RES1   0.0000
    14 N14     19.7544  -0.9424 -14.5405   N.am      1 RES1   0.0000
    15 C15     20.7893  -0.9847 -15.4104   C.2       1 RES1   0.0000
    16 C16     20.8794  -0.3469 -16.6531   C.2       1 RES1   0.0000
    17 C17     21.9957  -0.5152 -17.5043   C.2       1 RES1   0.0000
    18 C18     22.1107   0.1454 -18.7160   C.2       1 RES1   0.0000
    19 N19     21.6953   1.4310 -18.8741   N.2       1 RES1   0.0000
    20 C20     21.9925   1.8332 -20.0759   C.2       1 RES1   0.0000
    21 S21     21.6028   3.4476 -20.6677   S.3       1 RES1   0.0000
    22 C22     22.2254   3.4380 -22.3226   C.3       1 RES1   0.0000
    23 N23     22.6169   0.8401 -20.7174   N.2       1 RES1   0.0000
    24 C24     22.7039  -0.2144 -19.9099   C.2       1 RES1   0.0000
    25 C25     23.2734  -1.3889 -20.3615   C.2       1 RES1   0.0000
    26 C26     24.4131  -1.4533 -21.1907   C.2       1 RES1   0.0000
    27 C27     24.9891  -2.6771 -21.6117   C.2       1 RES1   0.0000
    28 C28     24.4140  -3.8741 -21.2280   C.2       1 RES1   0.0000
    29 F29     24.9270  -5.1013 -21.6501   F         1 RES1   0.0000
    30 C30     23.2661  -3.8214 -20.4199   C.2       1 RES1   0.0000
    31 C31     22.6918  -2.6278 -19.9852   C.2       1 RES1   0.0000
    32 C32     23.0584  -1.2677 -16.9702   C.2       1 RES1   0.0000
    33 C33     22.9919  -1.8698 -15.7394   C.2       1 RES1   0.0000
    34 N34     21.8373  -1.7122 -14.9296   N.2       1 RES1   0.0000
    35 C35     16.3566   0.0266 -10.6313   C.2       1 RES1   0.0000
@<TRIPOS>BOND
     1     1     2    1
     2     2     3    1
     3     3     4    2
     4     4     5    1
     5     5     6    2
     6     6     7    1
     7     7     8    1
     8     6     9    1
     9     9    10    1
    10    10    11    1
    11    11    12    1
    12    12    13    2
    13    12    14   am
    14    14    15    1
    15    15    16    2
    16    16    17    1
    17    17    18    1
    18    18    19    1
    19    19    20    2
    20    20    21    1
    21    21    22    1
    22    20    23    1
    23    23    24    1
    24    24    25    1
    25    25    26    2
    26    26    27    1
    27    27    28    2
    28    28    29    1
    29    28    30    1
    30    30    31    2
    31    17    32    2
    32    32    33    1
    33    33    34    2
    34     9    35    2
    35    35     3    1
    36    34    15    1
    37    24    18    2
    38    31    25    1
@<TRIPOS>SUBSTRUCTURE
     1 RES1        1 GROUP             0 ****  ****    0  
@<TRIPOS>MOLECULE
ligand_64
    35    38     1     0     0
SMALL
NO_CHARGES
****
Generated from the CSD

@<TRIPOS>ATOM
     1 C1      35.8747  -0.5430 -22.2636   C.3       1 RES1   0.0000
     2 O2      34.3888  -0.5708 -22.1454   O.3       1 RES1   0.0000
     3 C3      33.7536  -1.4924 -21.3383   C.2       1 RES1   0.0000
     4 C4      34.4390  -2.4726 -20.5669   C.2       1 RES1   0.0000
     5 C5      33.6733  -3.3510 -19.8018   C.2       1 RES1   0.0000
     6 C6      32.2479  -3.2669 -19.7648   C.2       1 RES1   0.0000
     7 O7      31.5141  -4.1283 -18.9790   O.3       1 RES1   0.0000
     8 C8      32.2860  -5.0844 -18.1958   C.3       1 RES1   0.0000
     9 C9      31.5527  -2.3088 -20.5498   C.2       1 RES1   0.0000
    10 C10     30.1222  -2.0574 -20.6499   C.3       1 RES1   0.0000
    11 C11     29.7365  -1.2315 -19.4081   C.3       1 RES1   0.0000
    12 C12     28.2531  -0.8244 -19.2667   C.2       1 RES1   0.0000
    13 O13     27.3702  -1.6476 -19.2909   O.2       1 RES1   0.0000
    14 N14     28.1050   0.5039 -19.3163   N.am      1 RES1   0.0000
    15 C15     26.9420   1.1893 -19.4002   C.2       1 RES1   0.0000
    16 C16     25.6450   0.6631 -19.3952   C.2       1 RES1   0.0000
    17 C17     24.5021   1.4811 -19.5489   C.2       1 RES1   0.0000
    18 C18     23.2147   0.9730 -19.5028   C.2       1 RES1   0.0000
    19 N19     22.1616   1.7249 -19.0835   N.2       1 RES1   0.0000
    20 C20     21.0640   1.0379 -19.2164   C.2       1 RES1   0.0000
    21 S21     19.4805   1.6690 -18.7662   S.3       1 RES1   0.0000
    22 C22     18.3840   0.3373 -19.1543   C.3       1 RES1   0.0000
    23 N23     21.3668  -0.1564 -19.7355   N.2       1 RES1   0.0000
    24 C24     22.6827  -0.2305 -19.9217   C.2       1 RES1   0.0000
    25 C25     23.2499  -1.3909 -20.4107   C.2       1 RES1   0.0000
    26 C26     24.3459  -1.4281 -21.2985   C.2       1 RES1   0.0000
    27 C27     24.9222  -2.6380 -21.7578   C.2       1 RES1   0.0000
    28 C28     24.3907  -3.8482 -21.3533   C.2       1 RES1   0.0000
    29 F29     24.9040  -5.0627 -21.8104   F         1 RES1   0.0000
    30 C30     23.2857  -3.8227 -20.4862   C.2       1 RES1   0.0000
    31 C31     22.7124  -2.6431 -20.0136   C.2       1 RES1   0.0000
    32 C32     24.7479   2.8664 -19.5873   C.2       1 RES1   0.0000
    33 C33     26.0142   3.3931 -19.5602   C.2       1 RES1   0.0000
    34 N34     27.1405   2.5374 -19.4465   N.2       1 RES1   0.0000
    35 C35     32.3597  -1.4489 -21.3095   C.2       1 RES1   0.0000
@<TRIPOS>BOND
     1     1     2    1
     2     2     3    1
     3     3     4    2
     4     4     5    1
     5     5     6    2
     6     6     7    1
     7     7     8    1
     8     6     9    1
     9     9    10    1
    10    10    11    1
    11    11    12    1
    12    12    13    2
    13    12    14   am
    14    14    15    1
    15    15    16    2
    16    16    17    1
    17    17    18    1
    18    18    19    1
    19    19    20    2
    20    20    21    1
    21    21    22    1
    22    20    23    1
    23    23    24    1
    24    24    25    1
    25    25    26    2
    26    26    27    1
    27    27    28    2
    28    28    29    1
    29    28    30    1
    30    30    31    2
    31    17    32    2
    32    32    33    1
    33    33    34    2
    34     9    35    2
    35    35     3    1
    36    34    15    1
    37    24    18    2
    38    31    25    1
@<TRIPOS>SUBSTRUCTURE
     1 RES1        1 GROUP             0 ****  ****    0  
@<TRIPOS>MOLECULE
ligand_65
    35    38     1     0     0
SMALL
NO_CHARGES
****
Generated from the CSD

@<TRIPOS>ATOM
     1 C1      33.6134   0.4333 -22.9285   C.3       1 RES1   0.0000
     2 O2      34.3888  -0.5708 -22.1454   O.3       1 RES1   0.0000
     3 C3      33.7536  -1.4924 -21.3383   C.2       1 RES1   0.0000
     4 C4      34.4390  -2.4726 -20.5669   C.2       1 RES1   0.0000
     5 C5      33.6733  -3.3510 -19.8018   C.2       1 RES1   0.0000
     6 C6      32.2479  -3.2669 -19.7648   C.2       1 RES1   0.0000
     7 O7      31.5141  -4.1283 -18.9790   O.3       1 RES1   0.0000
     8 C8      32.2860  -5.0843 -18.1958   C.3       1 RES1   0.0000
     9 C9      31.5527  -2.3088 -20.5498   C.2       1 RES1   0.0000
    10 C10     30.1222  -2.0574 -20.6499   C.3       1 RES1   0.0000
    11 C11     29.7365  -1.2315 -19.4081   C.3       1 RES1   0.0000
    12 C12     28.2531  -0.8244 -19.2667   C.2       1 RES1   0.0000
    13 O13     27.3702  -1.6476 -19.2909   O.2       1 RES1   0.0000
    14 N14     28.1050   0.5039 -19.3163   N.am      1 RES1   0.0000
    15 C15     26.9420   1.1893 -19.4002   C.2       1 RES1   0.0000
    16 C16     25.6450   0.6631 -19.3952   C.2       1 RES1   0.0000
    17 C17     24.5021   1.4811 -19.5489   C.2       1 RES1   0.0000
    18 C18     23.2147   0.9730 -19.5028   C.2       1 RES1   0.0000
    19 N19     22.1616   1.7249 -19.0835   N.2       1 RES1   0.0000
    20 C20     21.0640   1.0379 -19.2163   C.2       1 RES1   0.0000
    21 S21     19.4805   1.6690 -18.7662   S.3       1 RES1   0.0000
    22 C22     18.3840   0.3373 -19.1543   C.3       1 RES1   0.0000
    23 N23     21.3668  -0.1564 -19.7355   N.2       1 RES1   0.0000
    24 C24     22.6827  -0.2305 -19.9217   C.2       1 RES1   0.0000
    25 C25     23.2499  -1.3909 -20.4107   C.2       1 RES1   0.0000
    26 C26     24.3459  -1.4281 -21.2985   C.2       1 RES1   0.0000
    27 C27     24.9222  -2.6380 -21.7578   C.2       1 RES1   0.0000
    28 C28     24.3907  -3.8482 -21.3533   C.2       1 RES1   0.0000
    29 F29     24.9040  -5.0627 -21.8104   F         1 RES1   0.0000
    30 C30     23.2857  -3.8227 -20.4862   C.2       1 RES1   0.0000
    31 C31     22.7124  -2.6431 -20.0136   C.2       1 RES1   0.0000
    32 C32     24.7479   2.8664 -19.5873   C.2       1 RES1   0.0000
    33 C33     26.0142   3.3931 -19.5602   C.2       1 RES1   0.0000
    34 N34     27.1405   2.5374 -19.4465   N.2       1 RES1   0.0000
    35 C35     32.3597  -1.4489 -21.3095   C.2       1 RES1   0.0000
@<TRIPOS>BOND
     1     1     2    1
     2     2     3    1
     3     3     4    2
     4     4     5    1
     5     5     6    2
     6     6     7    1
     7     7     8    1
     8     6     9    1
     9     9    10    1
    10    10    11    1
    11    11    12    1
    12    12    13    2
    13    12    14   am
    14    14    15    1
    15    15    16    2
    16    16    17    1
    17    17    18    1
    18    18    19    1
    19    19    20    2
    20    20    21    1
    21    21    22    1
    22    20    23    1
    23    23    24    1
    24    24    25    1
    25    25    26    2
    26    26    27    1
    27    27    28    2
    28    28    29    1
    29    28    30    1
    30    30    31    2
    31    17    32    2
    32    32    33    1
    33    33    34    2
    34     9    35    2
    35    35     3    1
    36    34    15    1
    37    24    18    2
    38    31    25    1
@<TRIPOS>SUBSTRUCTURE
     1 RES1        1 GROUP             0 ****  ****    0  
@<TRIPOS>MOLECULE
ligand_66
    35    38     1     0     0
SMALL
NO_CHARGES
****
Generated from the CSD

@<TRIPOS>ATOM
     1 C1      34.7210  -5.9607 -19.3838   C.3       1 RES1   0.0000
     2 O2      33.3655  -5.3715 -19.5787   O.3       1 RES1   0.0000
     3 C3      33.2075  -4.0674 -20.0010   C.2       1 RES1   0.0000
     4 C4      34.2929  -3.1903 -20.2811   C.2       1 RES1   0.0000
     5 C5      33.9918  -1.8922 -20.6902   C.2       1 RES1   0.0000
     6 C6      32.6433  -1.4497 -20.8504   C.2       1 RES1   0.0000
     7 O7      32.3709  -0.1705 -21.2832   O.3       1 RES1   0.0000
     8 C8      33.5320   0.6591 -21.5779   C.3       1 RES1   0.0000
     9 C9      31.5527  -2.3088 -20.5498   C.2       1 RES1   0.0000
    10 C10     30.1222  -2.0574 -20.6499   C.3       1 RES1   0.0000
    11 C11     29.7365  -1.2315 -19.4081   C.3       1 RES1   0.0000
    12 C12     28.2531  -0.8244 -19.2667   C.2       1 RES1   0.0000
    13 O13     27.3702  -1.6476 -19.2909   O.2       1 RES1   0.0000
    14 N14     28.1050   0.5039 -19.3163   N.am      1 RES1   0.0000
    15 C15     26.9420   1.1893 -19.4002   C.2       1 RES1   0.0000
    16 C16     25.6450   0.6631 -19.3952   C.2       1 RES1   0.0000
    17 C17     24.5021   1.4811 -19.5489   C.2       1 RES1   0.0000
    18 C18     23.2147   0.9730 -19.5028   C.2       1 RES1   0.0000
    19 N19     22.1616   1.7249 -19.0835   N.2       1 RES1   0.0000
    20 C20     21.0640   1.0379 -19.2164   C.2       1 RES1   0.0000
    21 S21     19.4805   1.6690 -18.7662   S.3       1 RES1   0.0000
    22 C22     18.3840   0.3373 -19.1543   C.3       1 RES1   0.0000
    23 N23     21.3668  -0.1564 -19.7355   N.2       1 RES1   0.0000
    24 C24     22.6827  -0.2305 -19.9217   C.2       1 RES1   0.0000
    25 C25     23.2499  -1.3909 -20.4107   C.2       1 RES1   0.0000
    26 C26     24.3459  -1.4281 -21.2985   C.2       1 RES1   0.0000
    27 C27     24.9222  -2.6380 -21.7578   C.2       1 RES1   0.0000
    28 C28     24.3907  -3.8482 -21.3533   C.2       1 RES1   0.0000
    29 F29     24.9040  -5.0627 -21.8104   F         1 RES1   0.0000
    30 C30     23.2857  -3.8227 -20.4862   C.2       1 RES1   0.0000
    31 C31     22.7124  -2.6431 -20.0136   C.2       1 RES1   0.0000
    32 C32     24.7479   2.8664 -19.5873   C.2       1 RES1   0.0000
    33 C33     26.0142   3.3931 -19.5602   C.2       1 RES1   0.0000
    34 N34     27.1405   2.5374 -19.4465   N.2       1 RES1   0.0000
    35 C35     31.8989  -3.6035 -20.1357   C.2       1 RES1   0.0000
@<TRIPOS>BOND
     1     1     2    1
     2     2     3    1
     3     3     4    2
     4     4     5    1
     5     5     6    2
     6     6     7    1
     7     7     8    1
     8     6     9    1
     9     9    10    1
    10    10    11    1
    11    11    12    1
    12    12    13    2
    13    12    14   am
    14    14    15    1
    15    15    16    2
    16    16    17    1
    17    17    18    1
    18    18    19    1
    19    19    20    2
    20    20    21    1
    21    21    22    1
    22    20    23    1
    23    23    24    1
    24    24    25    1
    25    25    26    2
    26    26    27    1
    27    27    28    2
    28    28    29    1
    29    28    30    1
    30    30    31    2
    31    17    32    2
    32    32    33    1
    33    33    34    2
    34     9    35    2
    35    35     3    1
    36    34    15    1
    37    24    18    2
    38    31    25    1
@<TRIPOS>SUBSTRUCTURE
     1 RES1        1 GROUP             0 ****  ****    0  
@<TRIPOS>MOLECULE
ligand_67
    35    38     1     0     0
SMALL
NO_CHARGES
****
Generated from the CSD

@<TRIPOS>ATOM
     1 C1      32.1866  -6.2416 -19.3031   C.3       1 RES1   0.0000
     2 O2      33.3655  -5.3715 -19.5787   O.3       1 RES1   0.0000
     3 C3      33.2075  -4.0674 -20.0010   C.2       1 RES1   0.0000
     4 C4      34.2929  -3.1903 -20.2811   C.2       1 RES1   0.0000
     5 C5      33.9918  -1.8922 -20.6902   C.2       1 RES1   0.0000
     6 C6      32.6433  -1.4497 -20.8504   C.2       1 RES1   0.0000
     7 O7      32.3709  -0.1705 -21.2832   O.3       1 RES1   0.0000
     8 C8      33.5320   0.6591 -21.5779   C.3       1 RES1   0.0000
     9 C9      31.5527  -2.3088 -20.5498   C.2       1 RES1   0.0000
    10 C10     30.1222  -2.0574 -20.6499   C.3       1 RES1   0.0000
    11 C11     29.7365  -1.2315 -19.4081   C.3       1 RES1   0.0000
    12 C12     28.2531  -0.8244 -19.2667   C.2       1 RES1   0.0000
    13 O13     27.3702  -1.6476 -19.2909   O.2       1 RES1   0.0000
    14 N14     28.1050   0.5039 -19.3163   N.am      1 RES1   0.0000
    15 C15     26.9420   1.1893 -19.4002   C.2       1 RES1   0.0000
    16 C16     25.6450   0.6631 -19.3952   C.2       1 RES1   0.0000
    17 C17     24.5021   1.4811 -19.5489   C.2       1 RES1   0.0000
    18 C18     23.2147   0.9730 -19.5028   C.2       1 RES1   0.0000
    19 N19     22.1616   1.7249 -19.0835   N.2       1 RES1   0.0000
    20 C20     21.0640   1.0379 -19.2163   C.2       1 RES1   0.0000
    21 S21     19.4805   1.6690 -18.7662   S.3       1 RES1   0.0000
    22 C22     18.3840   0.3373 -19.1543   C.3       1 RES1   0.0000
    23 N23     21.3668  -0.1564 -19.7355   N.2       1 RES1   0.0000
    24 C24     22.6827  -0.2305 -19.9217   C.2       1 RES1   0.0000
    25 C25     23.2499  -1.3909 -20.4107   C.2       1 RES1   0.0000
    26 C26     24.3459  -1.4281 -21.2985   C.2       1 RES1   0.0000
    27 C27     24.9222  -2.6380 -21.7578   C.2       1 RES1   0.0000
    28 C28     24.3907  -3.8482 -21.3533   C.2       1 RES1   0.0000
    29 F29     24.9040  -5.0627 -21.8104   F         1 RES1   0.0000
    30 C30     23.2857  -3.8227 -20.4862   C.2       1 RES1   0.0000
    31 C31     22.7124  -2.6431 -20.0136   C.2       1 RES1   0.0000
    32 C32     24.7479   2.8664 -19.5873   C.2       1 RES1   0.0000
    33 C33     26.0142   3.3931 -19.5602   C.2       1 RES1   0.0000
    34 N34     27.1405   2.5374 -19.4465   N.2       1 RES1   0.0000
    35 C35     31.8989  -3.6035 -20.1357   C.2       1 RES1   0.0000
@<TRIPOS>BOND
     1     1     2    1
     2     2     3    1
     3     3     4    2
     4     4     5    1
     5     5     6    2
     6     6     7    1
     7     7     8    1
     8     6     9    1
     9     9    10    1
    10    10    11    1
    11    11    12    1
    12    12    13    2
    13    12    14   am
    14    14    15    1
    15    15    16    2
    16    16    17    1
    17    17    18    1
    18    18    19    1
    19    19    20    2
    20    20    21    1
    21    21    22    1
    22    20    23    1
    23    23    24    1
    24    24    25    1
    25    25    26    2
    26    26    27    1
    27    27    28    2
    28    28    29    1
    29    28    30    1
    30    30    31    2
    31    17    32    2
    32    32    33    1
    33    33    34    2
    34     9    35    2
    35    35     3    1
    36    34    15    1
    37    24    18    2
    38    31    25    1
@<TRIPOS>SUBSTRUCTURE
     1 RES1        1 GROUP             0 ****  ****    0  
@<TRIPOS>MOLECULE
ligand_68
    35    38     1     0     0
SMALL
NO_CHARGES
****
Generated from the CSD

@<TRIPOS>ATOM
     1 C1      34.5743  -5.6257 -21.3010   C.3       1 RES1   0.0000
     2 O2      33.2695  -5.1323 -20.7748   O.3       1 RES1   0.0000
     3 C3      33.1960  -3.9891 -20.0057   C.2       1 RES1   0.0000
     4 C4      34.3264  -3.1988 -19.6543   C.2       1 RES1   0.0000
     5 C5      34.1120  -2.0724 -18.8614   C.2       1 RES1   0.0000
     6 C6      32.8035  -1.6979 -18.4282   C.2       1 RES1   0.0000
     7 O7      32.6132  -0.5644 -17.6686   O.3       1 RES1   0.0000
     8 C8      33.8125   0.2090 -17.3736   C.3       1 RES1   0.0000
     9 C9      31.6720  -2.4929 -18.7523   C.2       1 RES1   0.0000
    10 C10     30.2701  -2.2867 -18.4179   C.3       1 RES1   0.0000
    11 C11     29.7368  -1.2314 -19.4053   C.3       1 RES1   0.0000
    12 C12     28.2531  -0.8244 -19.2667   C.2       1 RES1   0.0000
    13 O13     27.3703  -1.6476 -19.2928   O.2       1 RES1   0.0000
    14 N14     28.1050   0.5039 -19.3163   N.am      1 RES1   0.0000
    15 C15     26.9420   1.1893 -19.4002   C.2       1 RES1   0.0000
    16 C16     25.6450   0.6631 -19.3951   C.2       1 RES1   0.0000
    17 C17     24.5021   1.4811 -19.5488   C.2       1 RES1   0.0000
    18 C18     23.2147   0.9730 -19.5026   C.2       1 RES1   0.0000
    19 N19     22.1616   1.7250 -19.0832   N.2       1 RES1   0.0000
    20 C20     21.0640   1.0380 -19.2160   C.2       1 RES1   0.0000
    21 S21     19.4805   1.6691 -18.7658   S.3       1 RES1   0.0000
    22 C22     18.3840   0.3374 -19.1537   C.3       1 RES1   0.0000
    23 N23     21.3668  -0.1564 -19.7350   N.2       1 RES1   0.0000
    24 C24     22.6826  -0.2305 -19.9212   C.2       1 RES1   0.0000
    25 C25     23.2498  -1.3910 -20.4102   C.2       1 RES1   0.0000
    26 C26     24.3458  -1.4283 -21.2980   C.2       1 RES1   0.0000
    27 C27     24.9220  -2.6382 -21.7572   C.2       1 RES1   0.0000
    28 C28     24.3905  -3.8484 -21.3526   C.2       1 RES1   0.0000
    29 F29     24.9038  -5.0629 -21.8096   F         1 RES1   0.0000
    30 C30     23.2856  -3.8228 -20.4855   C.2       1 RES1   0.0000
    31 C31     22.7123  -2.6431 -20.0129   C.2       1 RES1   0.0000
    32 C32     24.7479   2.8664 -19.5873   C.2       1 RES1   0.0000
    33 C33     26.0142   3.3931 -19.5604   C.2       1 RES1   0.0000
    34 N34     27.1405   2.5373 -19.4466   N.2       1 RES1   0.0000
    35 C35     31.9318  -3.6201 -19.5457   C.2       1 RES1   0.0000
@<TRIPOS>BOND
     1     1     2    1
     2     2     3    1
     3     3     4    2
     4     4     5    1
     5     5     6    2
     6     6     7    1
     7     7     8    1
     8     6     9    1
     9     9    10    1
    10    10    11    1
    11    11    12    1
    12    12    13    2
    13    12    14   am
    14    14    15    1
    15    15    16    2
    16    16    17    1
    17    17    18    1
    18    18    19    1
    19    19    20    2
    20    20    21    1
    21    21    22    1
    22    20    23    1
    23    23    24    1
    24    24    25    1
    25    25    26    2
    26    26    27    1
    27    27    28    2
    28    28    29    1
    29    28    30    1
    30    30    31    2
    31    17    32    2
    32    32    33    1
    33    33    34    2
    34     9    35    2
    35    35     3    1
    36    34    15    1
    37    24    18    2
    38    31    25    1
@<TRIPOS>SUBSTRUCTURE
     1 RES1        1 GROUP             0 ****  ****    0  
@<TRIPOS>MOLECULE
ligand_69
    35    38     1     0     0
SMALL
NO_CHARGES
****
Generated from the CSD

@<TRIPOS>ATOM
     1 C1      32.0469  -5.9166 -21.1105   C.3       1 RES1   0.0000
     2 O2      33.2695  -5.1323 -20.7748   O.3       1 RES1   0.0000
     3 C3      33.1960  -3.9891 -20.0057   C.2       1 RES1   0.0000
     4 C4      34.3264  -3.1988 -19.6543   C.2       1 RES1   0.0000
     5 C5      34.1120  -2.0724 -18.8614   C.2       1 RES1   0.0000
     6 C6      32.8035  -1.6979 -18.4281   C.2       1 RES1   0.0000
     7 O7      32.6132  -0.5644 -17.6686   O.3       1 RES1   0.0000
     8 C8      33.8125   0.2090 -17.3736   C.3       1 RES1   0.0000
     9 C9      31.6720  -2.4929 -18.7523   C.2       1 RES1   0.0000
    10 C10     30.2701  -2.2867 -18.4179   C.3       1 RES1   0.0000
    11 C11     29.7368  -1.2314 -19.4053   C.3       1 RES1   0.0000
    12 C12     28.2531  -0.8244 -19.2667   C.2       1 RES1   0.0000
    13 O13     27.3703  -1.6476 -19.2928   O.2       1 RES1   0.0000
    14 N14     28.1050   0.5039 -19.3163   N.am      1 RES1   0.0000
    15 C15     26.9420   1.1893 -19.4002   C.2       1 RES1   0.0000
    16 C16     25.6450   0.6631 -19.3950   C.2       1 RES1   0.0000
    17 C17     24.5021   1.4811 -19.5488   C.2       1 RES1   0.0000
    18 C18     23.2147   0.9730 -19.5025   C.2       1 RES1   0.0000
    19 N19     22.1616   1.7250 -19.0832   N.2       1 RES1   0.0000
    20 C20     21.0640   1.0380 -19.2159   C.2       1 RES1   0.0000
    21 S21     19.4805   1.6691 -18.7658   S.3       1 RES1   0.0000
    22 C22     18.3840   0.3374 -19.1537   C.3       1 RES1   0.0000
    23 N23     21.3668  -0.1564 -19.7350   N.2       1 RES1   0.0000
    24 C24     22.6826  -0.2305 -19.9212   C.2       1 RES1   0.0000
    25 C25     23.2498  -1.3910 -20.4102   C.2       1 RES1   0.0000
    26 C26     24.3458  -1.4283 -21.2980   C.2       1 RES1   0.0000
    27 C27     24.9220  -2.6382 -21.7572   C.2       1 RES1   0.0000
    28 C28     24.3905  -3.8484 -21.3526   C.2       1 RES1   0.0000
    29 F29     24.9038  -5.0629 -21.8096   F         1 RES1   0.0000
    30 C30     23.2856  -3.8228 -20.4855   C.2       1 RES1   0.0000
    31 C31     22.7123  -2.6431 -20.0129   C.2       1 RES1   0.0000
    32 C32     24.7479   2.8664 -19.5873   C.2       1 RES1   0.0000
    33 C33     26.0142   3.3931 -19.5604   C.2       1 RES1   0.0000
    34 N34     27.1405   2.5373 -19.4466   N.2       1 RES1   0.0000
    35 C35     31.9318  -3.6201 -19.5457   C.2       1 RES1   0.0000
@<TRIPOS>BOND
     1     1     2    1
     2     2     3    1
     3     3     4    2
     4     4     5    1
     5     5     6    2
     6     6     7    1
     7     7     8    1
     8     6     9    1
     9     9    10    1
    10    10    11    1
    11    11    12    1
    12    12    13    2
    13    12    14   am
    14    14    15    1
    15    15    16    2
    16    16    17    1
    17    17    18    1
    18    18    19    1
    19    19    20    2
    20    20    21    1
    21    21    22    1
    22    20    23    1
    23    23    24    1
    24    24    25    1
    25    25    26    2
    26    26    27    1
    27    27    28    2
    28    28    29    1
    29    28    30    1
    30    30    31    2
    31    17    32    2
    32    32    33    1
    33    33    34    2
    34     9    35    2
    35    35     3    1
    36    34    15    1
    37    24    18    2
    38    31    25    1
@<TRIPOS>SUBSTRUCTURE
     1 RES1        1 GROUP             0 ****  ****    0  
@<TRIPOS>MOLECULE
ligand_70
    35    38     1     0     0
SMALL
NO_CHARGES
****
Generated from the CSD

@<TRIPOS>ATOM
     1 C1      36.2112  -1.3020 -17.1056   C.3       1 RES1   0.0000
     2 O2      34.7210  -1.2868 -17.0618   O.3       1 RES1   0.0000
     3 C3      33.9719  -1.9639 -18.0021   C.2       1 RES1   0.0000
     4 C4      34.5367  -2.7172 -19.0695   C.2       1 RES1   0.0000
     5 C5      33.6635  -3.3444 -19.9569   C.2       1 RES1   0.0000
     6 C6      32.2463  -3.2623 -19.7991   C.2       1 RES1   0.0000
     7 O7      31.4038  -3.9141 -20.6727   O.3       1 RES1   0.0000
     8 C8      32.0547  -4.6885 -21.7215   C.3       1 RES1   0.0000
     9 C9      31.6720  -2.4929 -18.7523   C.2       1 RES1   0.0000
    10 C10     30.2701  -2.2867 -18.4179   C.3       1 RES1   0.0000
    11 C11     29.7368  -1.2314 -19.4053   C.3       1 RES1   0.0000
    12 C12     28.2531  -0.8244 -19.2667   C.2       1 RES1   0.0000
    13 O13     27.3703  -1.6476 -19.2928   O.2       1 RES1   0.0000
    14 N14     28.1050   0.5039 -19.3163   N.am      1 RES1   0.0000
    15 C15     26.9420   1.1893 -19.4002   C.2       1 RES1   0.0000
    16 C16     25.6450   0.6631 -19.3951   C.2       1 RES1   0.0000
    17 C17     24.5021   1.4811 -19.5488   C.2       1 RES1   0.0000
    18 C18     23.2147   0.9730 -19.5026   C.2       1 RES1   0.0000
    19 N19     22.1616   1.7250 -19.0832   N.2       1 RES1   0.0000
    20 C20     21.0640   1.0380 -19.2160   C.2       1 RES1   0.0000
    21 S21     19.4805   1.6691 -18.7658   S.3       1 RES1   0.0000
    22 C22     18.3840   0.3374 -19.1537   C.3       1 RES1   0.0000
    23 N23     21.3668  -0.1564 -19.7350   N.2       1 RES1   0.0000
    24 C24     22.6826  -0.2305 -19.9212   C.2       1 RES1   0.0000
    25 C25     23.2498  -1.3910 -20.4102   C.2       1 RES1   0.0000
    26 C26     24.3458  -1.4283 -21.2980   C.2       1 RES1   0.0000
    27 C27     24.9220  -2.6382 -21.7572   C.2       1 RES1   0.0000
    28 C28     24.3905  -3.8484 -21.3526   C.2       1 RES1   0.0000
    29 F29     24.9038  -5.0629 -21.8096   F         1 RES1   0.0000
    30 C30     23.2856  -3.8228 -20.4855   C.2       1 RES1   0.0000
    31 C31     22.7123  -2.6431 -20.0129   C.2       1 RES1   0.0000
    32 C32     24.7479   2.8664 -19.5873   C.2       1 RES1   0.0000
    33 C33     26.0142   3.3931 -19.5604   C.2       1 RES1   0.0000
    34 N34     27.1405   2.5373 -19.4466   N.2       1 RES1   0.0000
    35 C35     32.5847  -1.8734 -17.8859   C.2       1 RES1   0.0000
@<TRIPOS>BOND
     1     1     2    1
     2     2     3    1
     3     3     4    2
     4     4     5    1
     5     5     6    2
     6     6     7    1
     7     7     8    1
     8     6     9    1
     9     9    10    1
    10    10    11    1
    11    11    12    1
    12    12    13    2
    13    12    14   am
    14    14    15    1
    15    15    16    2
    16    16    17    1
    17    17    18    1
    18    18    19    1
    19    19    20    2
    20    20    21    1
    21    21    22    1
    22    20    23    1
    23    23    24    1
    24    24    25    1
    25    25    26    2
    26    26    27    1
    27    27    28    2
    28    28    29    1
    29    28    30    1
    30    30    31    2
    31    17    32    2
    32    32    33    1
    33    33    34    2
    34     9    35    2
    35    35     3    1
    36    34    15    1
    37    24    18    2
    38    31    25    1
@<TRIPOS>SUBSTRUCTURE
     1 RES1        1 GROUP             0 ****  ****    0  
@<TRIPOS>MOLECULE
ligand_71
    35    38     1     0     0
SMALL
NO_CHARGES
****
Generated from the CSD

@<TRIPOS>ATOM
     1 C1      34.0689  -0.5158 -15.9649   C.3       1 RES1   0.0000
     2 O2      34.7210  -1.2868 -17.0618   O.3       1 RES1   0.0000
     3 C3      33.9719  -1.9639 -18.0021   C.2       1 RES1   0.0000
     4 C4      34.5367  -2.7172 -19.0695   C.2       1 RES1   0.0000
     5 C5      33.6635  -3.3444 -19.9569   C.2       1 RES1   0.0000
     6 C6      32.2463  -3.2623 -19.7991   C.2       1 RES1   0.0000
     7 O7      31.4038  -3.9141 -20.6727   O.3       1 RES1   0.0000
     8 C8      32.0547  -4.6885 -21.7215   C.3       1 RES1   0.0000
     9 C9      31.6720  -2.4929 -18.7523   C.2       1 RES1   0.0000
    10 C10     30.2701  -2.2867 -18.4179   C.3       1 RES1   0.0000
    11 C11     29.7368  -1.2314 -19.4053   C.3       1 RES1   0.0000
    12 C12     28.2531  -0.8244 -19.2667   C.2       1 RES1   0.0000
    13 O13     27.3703  -1.6476 -19.2928   O.2       1 RES1   0.0000
    14 N14     28.1050   0.5039 -19.3163   N.am      1 RES1   0.0000
    15 C15     26.9420   1.1893 -19.4002   C.2       1 RES1   0.0000
    16 C16     25.6450   0.6631 -19.3950   C.2       1 RES1   0.0000
    17 C17     24.5021   1.4811 -19.5488   C.2       1 RES1   0.0000
    18 C18     23.2147   0.9730 -19.5025   C.2       1 RES1   0.0000
    19 N19     22.1616   1.7250 -19.0832   N.2       1 RES1   0.0000
    20 C20     21.0640   1.0380 -19.2159   C.2       1 RES1   0.0000
    21 S21     19.4805   1.6691 -18.7658   S.3       1 RES1   0.0000
    22 C22     18.3840   0.3374 -19.1537   C.3       1 RES1   0.0000
    23 N23     21.3668  -0.1564 -19.7350   N.2       1 RES1   0.0000
    24 C24     22.6826  -0.2305 -19.9212   C.2       1 RES1   0.0000
    25 C25     23.2498  -1.3910 -20.4102   C.2       1 RES1   0.0000
    26 C26     24.3458  -1.4283 -21.2980   C.2       1 RES1   0.0000
    27 C27     24.9220  -2.6382 -21.7572   C.2       1 RES1   0.0000
    28 C28     24.3905  -3.8484 -21.3526   C.2       1 RES1   0.0000
    29 F29     24.9038  -5.0629 -21.8096   F         1 RES1   0.0000
    30 C30     23.2856  -3.8228 -20.4855   C.2       1 RES1   0.0000
    31 C31     22.7123  -2.6431 -20.0129   C.2       1 RES1   0.0000
    32 C32     24.7479   2.8664 -19.5873   C.2       1 RES1   0.0000
    33 C33     26.0142   3.3931 -19.5604   C.2       1 RES1   0.0000
    34 N34     27.1405   2.5373 -19.4466   N.2       1 RES1   0.0000
    35 C35     32.5847  -1.8734 -17.8859   C.2       1 RES1   0.0000
@<TRIPOS>BOND
     1     1     2    1
     2     2     3    1
     3     3     4    2
     4     4     5    1
     5     5     6    2
     6     6     7    1
     7     7     8    1
     8     6     9    1
     9     9    10    1
    10    10    11    1
    11    11    12    1
    12    12    13    2
    13    12    14   am
    14    14    15    1
    15    15    16    2
    16    16    17    1
    17    17    18    1
    18    18    19    1
    19    19    20    2
    20    20    21    1
    21    21    22    1
    22    20    23    1
    23    23    24    1
    24    24    25    1
    25    25    26    2
    26    26    27    1
    27    27    28    2
    28    28    29    1
    29    28    30    1
    30    30    31    2
    31    17    32    2
    32    32    33    1
    33    33    34    2
    34     9    35    2
    35    35     3    1
    36    34    15    1
    37    24    18    2
    38    31    25    1
@<TRIPOS>SUBSTRUCTURE
     1 RES1        1 GROUP             0 ****  ****    0  
@<TRIPOS>MOLECULE
ligand_72
    35    38     1     0     0
SMALL
NO_CHARGES
****
Generated from the CSD

@<TRIPOS>ATOM
     1 C1      33.6812   5.6000 -13.2720   C.3       1 RES1   0.0000
     2 O2      32.4303   4.9393 -13.7425   O.3       1 RES1   0.0000
     3 C3      31.1926   5.5004 -13.5031   C.2       1 RES1   0.0000
     4 C4      31.0021   6.7261 -12.8052   C.2       1 RES1   0.0000
     5 C5      29.6950   7.1750 -12.6228   C.2       1 RES1   0.0000
     6 C6      28.5750   6.4515 -13.1348   C.2       1 RES1   0.0000
     7 O7      27.2940   6.9297 -12.9666   O.3       1 RES1   0.0000
     8 C8      27.1801   8.2039 -12.2689   C.3       1 RES1   0.0000
     9 C9      28.7521   5.2150 -13.8110   C.2       1 RES1   0.0000
    10 C10     27.7565   4.3353 -14.4064   C.3       1 RES1   0.0000
    11 C11     27.3824   4.9566 -15.7655   C.3       1 RES1   0.0000
    12 C12     26.3296   4.2103 -16.6145   C.2       1 RES1   0.0000
    13 O13     25.2416   3.9366 -16.1684   O.2       1 RES1   0.0000
    14 N14     26.8529   3.7697 -17.7637   N.am      1 RES1   0.0000
    15 C15     26.2700   2.9364 -18.6554   C.2       1 RES1   0.0000
    16 C16     24.9763   2.4051 -18.5997   C.2       1 RES1   0.0000
    17 C17     24.4971   1.4920 -19.5670   C.2       1 RES1   0.0000
    18 C18     23.2049   0.9949 -19.5418   C.2       1 RES1   0.0000
    19 N19     22.1203   1.8156 -19.5645   N.2       1 RES1   0.0000
    20 C20     21.0377   1.0947 -19.6165   C.2       1 RES1   0.0000
    21 S21     19.4212   1.7978 -19.6480   S.3       1 RES1   0.0000
    22 C22     18.3615   0.3840 -19.7172   C.3       1 RES1   0.0000
    23 N23     21.3843  -0.1963 -19.6469   N.2       1 RES1   0.0000
    24 C24     22.7109  -0.2933 -19.5997   C.2       1 RES1   0.0000
    25 C25     23.3153  -1.5349 -19.5745   C.2       1 RES1   0.0000
    26 C26     24.5031  -1.8559 -20.2650   C.2       1 RES1   0.0000
    27 C27     25.1126  -3.1327 -20.1935   C.2       1 RES1   0.0000
    28 C28     24.5246  -4.1327 -19.4416   C.2       1 RES1   0.0000
    29 F29     25.0712  -5.4148 -19.3732   F         1 RES1   0.0000
    30 C30     23.3300  -3.8303 -18.7671   C.2       1 RES1   0.0000
    31 C31     22.7217  -2.5768 -18.8150   C.2       1 RES1   0.0000
    32 C32     25.3615   1.2462 -20.6502   C.2       1 RES1   0.0000
    33 C33     26.6192   1.7881 -20.7296   C.2       1 RES1   0.0000
    34 N34     27.0816   2.6690 -19.7177   N.2       1 RES1   0.0000
    35 C35     30.0817   4.7962 -13.9677   C.2       1 RES1   0.0000
@<TRIPOS>BOND
     1     1     2    1
     2     2     3    1
     3     3     4    2
     4     4     5    1
     5     5     6    2
     6     6     7    1
     7     7     8    1
     8     6     9    1
     9     9    10    1
    10    10    11    1
    11    11    12    1
    12    12    13    2
    13    12    14   am
    14    14    15    1
    15    15    16    2
    16    16    17    1
    17    17    18    1
    18    18    19    1
    19    19    20    2
    20    20    21    1
    21    21    22    1
    22    20    23    1
    23    23    24    1
    24    24    25    1
    25    25    26    2
    26    26    27    1
    27    27    28    2
    28    28    29    1
    29    28    30    1
    30    30    31    2
    31    17    32    2
    32    32    33    1
    33    33    34    2
    34     9    35    2
    35    35     3    1
    36    34    15    1
    37    24    18    2
    38    31    25    1
@<TRIPOS>SUBSTRUCTURE
     1 RES1        1 GROUP             0 ****  ****    0  
@<TRIPOS>MOLECULE
ligand_73
    35    38     1     0     0
SMALL
NO_CHARGES
****
Generated from the CSD

@<TRIPOS>ATOM
     1 C1      32.5639   3.6521 -14.4827   C.3       1 RES1   0.0000
     2 O2      32.4303   4.9393 -13.7425   O.3       1 RES1   0.0000
     3 C3      31.1926   5.5004 -13.5031   C.2       1 RES1   0.0000
     4 C4      31.0021   6.7261 -12.8052   C.2       1 RES1   0.0000
     5 C5      29.6950   7.1750 -12.6228   C.2       1 RES1   0.0000
     6 C6      28.5750   6.4515 -13.1348   C.2       1 RES1   0.0000
     7 O7      27.2940   6.9297 -12.9666   O.3       1 RES1   0.0000
     8 C8      27.1801   8.2039 -12.2689   C.3       1 RES1   0.0000
     9 C9      28.7521   5.2150 -13.8110   C.2       1 RES1   0.0000
    10 C10     27.7565   4.3353 -14.4064   C.3       1 RES1   0.0000
    11 C11     27.3824   4.9566 -15.7655   C.3       1 RES1   0.0000
    12 C12     26.3296   4.2103 -16.6145   C.2       1 RES1   0.0000
    13 O13     25.2416   3.9366 -16.1684   O.2       1 RES1   0.0000
    14 N14     26.8529   3.7697 -17.7637   N.am      1 RES1   0.0000
    15 C15     26.2700   2.9364 -18.6554   C.2       1 RES1   0.0000
    16 C16     24.9763   2.4051 -18.5997   C.2       1 RES1   0.0000
    17 C17     24.4971   1.4920 -19.5670   C.2       1 RES1   0.0000
    18 C18     23.2049   0.9949 -19.5418   C.2       1 RES1   0.0000
    19 N19     22.1203   1.8156 -19.5646   N.2       1 RES1   0.0000
    20 C20     21.0377   1.0947 -19.6165   C.2       1 RES1   0.0000
    21 S21     19.4212   1.7978 -19.6480   S.3       1 RES1   0.0000
    22 C22     18.3615   0.3840 -19.7172   C.3       1 RES1   0.0000
    23 N23     21.3843  -0.1963 -19.6469   N.2       1 RES1   0.0000
    24 C24     22.7109  -0.2933 -19.5997   C.2       1 RES1   0.0000
    25 C25     23.3153  -1.5349 -19.5745   C.2       1 RES1   0.0000
    26 C26     24.5031  -1.8559 -20.2650   C.2       1 RES1   0.0000
    27 C27     25.1126  -3.1328 -20.1935   C.2       1 RES1   0.0000
    28 C28     24.5246  -4.1327 -19.4416   C.2       1 RES1   0.0000
    29 F29     25.0712  -5.4148 -19.3732   F         1 RES1   0.0000
    30 C30     23.3300  -3.8302 -18.7671   C.2       1 RES1   0.0000
    31 C31     22.7217  -2.5768 -18.8150   C.2       1 RES1   0.0000
    32 C32     25.3615   1.2462 -20.6502   C.2       1 RES1   0.0000
    33 C33     26.6192   1.7881 -20.7296   C.2       1 RES1   0.0000
    34 N34     27.0816   2.6690 -19.7177   N.2       1 RES1   0.0000
    35 C35     30.0817   4.7962 -13.9677   C.2       1 RES1   0.0000
@<TRIPOS>BOND
     1     1     2    1
     2     2     3    1
     3     3     4    2
     4     4     5    1
     5     5     6    2
     6     6     7    1
     7     7     8    1
     8     6     9    1
     9     9    10    1
    10    10    11    1
    11    11    12    1
    12    12    13    2
    13    12    14   am
    14    14    15    1
    15    15    16    2
    16    16    17    1
    17    17    18    1
    18    18    19    1
    19    19    20    2
    20    20    21    1
    21    21    22    1
    22    20    23    1
    23    23    24    1
    24    24    25    1
    25    25    26    2
    26    26    27    1
    27    27    28    2
    28    28    29    1
    29    28    30    1
    30    30    31    2
    31    17    32    2
    32    32    33    1
    33    33    34    2
    34     9    35    2
    35    35     3    1
    36    34    15    1
    37    24    18    2
    38    31    25    1
@<TRIPOS>SUBSTRUCTURE
     1 RES1        1 GROUP             0 ****  ****    0  
@<TRIPOS>MOLECULE
ligand_74
    35    38     1     0     0
SMALL
NO_CHARGES
****
Generated from the CSD

@<TRIPOS>ATOM
     1 C1      29.1586   8.6935 -10.2799   C.3       1 RES1   0.0000
     2 O2      28.4165   7.6922 -11.0980   O.3       1 RES1   0.0000
     3 C3      29.0562   6.9461 -12.0666   C.2       1 RES1   0.0000
     4 C4      30.4432   7.0607 -12.3649   C.2       1 RES1   0.0000
     5 C5      30.9603   6.2532 -13.3767   C.2       1 RES1   0.0000
     6 C6      30.1422   5.3198 -14.0835   C.2       1 RES1   0.0000
     7 O7      30.6821   4.5122 -15.0604   O.3       1 RES1   0.0000
     8 C8      32.1130   4.6650 -15.2892   C.3       1 RES1   0.0000
     9 C9      28.7521   5.2150 -13.8110   C.2       1 RES1   0.0000
    10 C10     27.7565   4.3353 -14.4064   C.3       1 RES1   0.0000
    11 C11     27.3824   4.9566 -15.7655   C.3       1 RES1   0.0000
    12 C12     26.3296   4.2103 -16.6145   C.2       1 RES1   0.0000
    13 O13     25.2416   3.9366 -16.1684   O.2       1 RES1   0.0000
    14 N14     26.8529   3.7697 -17.7637   N.am      1 RES1   0.0000
    15 C15     26.2700   2.9364 -18.6554   C.2       1 RES1   0.0000
    16 C16     24.9763   2.4051 -18.5997   C.2       1 RES1   0.0000
    17 C17     24.4971   1.4920 -19.5670   C.2       1 RES1   0.0000
    18 C18     23.2049   0.9949 -19.5418   C.2       1 RES1   0.0000
    19 N19     22.1203   1.8156 -19.5645   N.2       1 RES1   0.0000
    20 C20     21.0377   1.0947 -19.6165   C.2       1 RES1   0.0000
    21 S21     19.4212   1.7978 -19.6480   S.3       1 RES1   0.0000
    22 C22     18.3615   0.3840 -19.7172   C.3       1 RES1   0.0000
    23 N23     21.3843  -0.1963 -19.6469   N.2       1 RES1   0.0000
    24 C24     22.7109  -0.2933 -19.5997   C.2       1 RES1   0.0000
    25 C25     23.3153  -1.5349 -19.5745   C.2       1 RES1   0.0000
    26 C26     24.5031  -1.8559 -20.2650   C.2       1 RES1   0.0000
    27 C27     25.1126  -3.1327 -20.1935   C.2       1 RES1   0.0000
    28 C28     24.5246  -4.1327 -19.4416   C.2       1 RES1   0.0000
    29 F29     25.0712  -5.4148 -19.3732   F         1 RES1   0.0000
    30 C30     23.3300  -3.8303 -18.7671   C.2       1 RES1   0.0000
    31 C31     22.7217  -2.5768 -18.8150   C.2       1 RES1   0.0000
    32 C32     25.3615   1.2462 -20.6502   C.2       1 RES1   0.0000
    33 C33     26.6192   1.7881 -20.7296   C.2       1 RES1   0.0000
    34 N34     27.0816   2.6690 -19.7177   N.2       1 RES1   0.0000
    35 C35     28.2711   6.0489 -12.7908   C.2       1 RES1   0.0000
@<TRIPOS>BOND
     1     1     2    1
     2     2     3    1
     3     3     4    2
     4     4     5    1
     5     5     6    2
     6     6     7    1
     7     7     8    1
     8     6     9    1
     9     9    10    1
    10    10    11    1
    11    11    12    1
    12    12    13    2
    13    12    14   am
    14    14    15    1
    15    15    16    2
    16    16    17    1
    17    17    18    1
    18    18    19    1
    19    19    20    2
    20    20    21    1
    21    21    22    1
    22    20    23    1
    23    23    24    1
    24    24    25    1
    25    25    26    2
    26    26    27    1
    27    27    28    2
    28    28    29    1
    29    28    30    1
    30    30    31    2
    31    17    32    2
    32    32    33    1
    33    33    34    2
    34     9    35    2
    35    35     3    1
    36    34    15    1
    37    24    18    2
    38    31    25    1
@<TRIPOS>SUBSTRUCTURE
     1 RES1        1 GROUP             0 ****  ****    0  
@<TRIPOS>MOLECULE
ligand_75
    35    38     1     0     0
SMALL
NO_CHARGES
****
Generated from the CSD

@<TRIPOS>ATOM
     1 C1      26.9594   7.5239 -10.8313   C.3       1 RES1   0.0000
     2 O2      28.4165   7.6922 -11.0980   O.3       1 RES1   0.0000
     3 C3      29.0562   6.9461 -12.0666   C.2       1 RES1   0.0000
     4 C4      30.4432   7.0607 -12.3649   C.2       1 RES1   0.0000
     5 C5      30.9603   6.2532 -13.3767   C.2       1 RES1   0.0000
     6 C6      30.1422   5.3198 -14.0835   C.2       1 RES1   0.0000
     7 O7      30.6821   4.5122 -15.0604   O.3       1 RES1   0.0000
     8 C8      32.1130   4.6650 -15.2892   C.3       1 RES1   0.0000
     9 C9      28.7521   5.2150 -13.8110   C.2       1 RES1   0.0000
    10 C10     27.7565   4.3353 -14.4064   C.3       1 RES1   0.0000
    11 C11     27.3824   4.9566 -15.7655   C.3       1 RES1   0.0000
    12 C12     26.3296   4.2103 -16.6145   C.2       1 RES1   0.0000
    13 O13     25.2416   3.9366 -16.1684   O.2       1 RES1   0.0000
    14 N14     26.8529   3.7697 -17.7637   N.am      1 RES1   0.0000
    15 C15     26.2700   2.9364 -18.6554   C.2       1 RES1   0.0000
    16 C16     24.9763   2.4051 -18.5997   C.2       1 RES1   0.0000
    17 C17     24.4971   1.4920 -19.5670   C.2       1 RES1   0.0000
    18 C18     23.2049   0.9949 -19.5418   C.2       1 RES1   0.0000
    19 N19     22.1203   1.8156 -19.5646   N.2       1 RES1   0.0000
    20 C20     21.0377   1.0947 -19.6165   C.2       1 RES1   0.0000
    21 S21     19.4212   1.7978 -19.6480   S.3       1 RES1   0.0000
    22 C22     18.3615   0.3840 -19.7172   C.3       1 RES1   0.0000
    23 N23     21.3843  -0.1963 -19.6469   N.2       1 RES1   0.0000
    24 C24     22.7109  -0.2933 -19.5997   C.2       1 RES1   0.0000
    25 C25     23.3153  -1.5349 -19.5745   C.2       1 RES1   0.0000
    26 C26     24.5031  -1.8559 -20.2650   C.2       1 RES1   0.0000
    27 C27     25.1126  -3.1328 -20.1935   C.2       1 RES1   0.0000
    28 C28     24.5246  -4.1327 -19.4416   C.2       1 RES1   0.0000
    29 F29     25.0712  -5.4148 -19.3732   F         1 RES1   0.0000
    30 C30     23.3300  -3.8302 -18.7671   C.2       1 RES1   0.0000
    31 C31     22.7217  -2.5768 -18.8150   C.2       1 RES1   0.0000
    32 C32     25.3615   1.2462 -20.6502   C.2       1 RES1   0.0000
    33 C33     26.6192   1.7881 -20.7296   C.2       1 RES1   0.0000
    34 N34     27.0816   2.6690 -19.7177   N.2       1 RES1   0.0000
    35 C35     28.2711   6.0489 -12.7908   C.2       1 RES1   0.0000
@<TRIPOS>BOND
     1     1     2    1
     2     2     3    1
     3     3     4    2
     4     4     5    1
     5     5     6    2
     6     6     7    1
     7     7     8    1
     8     6     9    1
     9     9    10    1
    10    10    11    1
    11    11    12    1
    12    12    13    2
    13    12    14   am
    14    14    15    1
    15    15    16    2
    16    16    17    1
    17    17    18    1
    18    18    19    1
    19    19    20    2
    20    20    21    1
    21    21    22    1
    22    20    23    1
    23    23    24    1
    24    24    25    1
    25    25    26    2
    26    26    27    1
    27    27    28    2
    28    28    29    1
    29    28    30    1
    30    30    31    2
    31    17    32    2
    32    32    33    1
    33    33    34    2
    34     9    35    2
    35    35     3    1
    36    34    15    1
    37    24    18    2
    38    31    25    1
@<TRIPOS>SUBSTRUCTURE
     1 RES1        1 GROUP             0 ****  ****    0  
@<TRIPOS>MOLECULE
ligand_76
    35    38     1     0     0
SMALL
NO_CHARGES
****
Generated from the CSD

@<TRIPOS>ATOM
     1 C1      29.8962   6.9618  -9.7693   C.3       1 RES1   0.0000
     2 O2      28.8874   6.6024 -10.8065   O.3       1 RES1   0.0000
     3 C3      29.0853   6.9184 -12.1350   C.2       1 RES1   0.0000
     4 C4      30.2374   7.5969 -12.6230   C.2       1 RES1   0.0000
     5 C5      30.3055   7.8641 -13.9894   C.2       1 RES1   0.0000
     6 C6      29.2717   7.4553 -14.8863   C.2       1 RES1   0.0000
     7 O7      29.3747   7.7057 -16.2371   O.3       1 RES1   0.0000
     8 C8      30.5949   8.3769 -16.6656   C.3       1 RES1   0.0000
     9 C9      28.1065   6.7998 -14.4066   C.2       1 RES1   0.0000
    10 C10     26.9546   6.3025 -15.1451   C.3       1 RES1   0.0000
    11 C11     27.3816   4.9594 -15.7670   C.3       1 RES1   0.0000
    12 C12     26.3296   4.2103 -16.6145   C.2       1 RES1   0.0000
    13 O13     25.2424   3.9349 -16.1673   O.2       1 RES1   0.0000
    14 N14     26.8529   3.7697 -17.7637   N.am      1 RES1   0.0000
    15 C15     26.2700   2.9364 -18.6554   C.2       1 RES1   0.0000
    16 C16     24.9762   2.4053 -18.5998   C.2       1 RES1   0.0000
    17 C17     24.4970   1.4922 -19.5671   C.2       1 RES1   0.0000
    18 C18     23.2047   0.9954 -19.5421   C.2       1 RES1   0.0000
    19 N19     22.1202   1.8162 -19.5651   N.2       1 RES1   0.0000
    20 C20     21.0376   1.0955 -19.6172   C.2       1 RES1   0.0000
    21 S21     19.4212   1.7989 -19.6490   S.3       1 RES1   0.0000
    22 C22     18.3612   0.3853 -19.7182   C.3       1 RES1   0.0000
    23 N23     21.3839  -0.1956 -19.6474   N.2       1 RES1   0.0000
    24 C24     22.7105  -0.2928 -19.5999   C.2       1 RES1   0.0000
    25 C25     23.3146  -1.5345 -19.5745   C.2       1 RES1   0.0000
    26 C26     24.5025  -1.8558 -20.2648   C.2       1 RES1   0.0000
    27 C27     25.1117  -3.1327 -20.1931   C.2       1 RES1   0.0000
    28 C28     24.5235  -4.1324 -19.4411   C.2       1 RES1   0.0000
    29 F29     25.0698  -5.4147 -19.3725   F         1 RES1   0.0000
    30 C30     23.3289  -3.8297 -18.7668   C.2       1 RES1   0.0000
    31 C31     22.7208  -2.5761 -18.8150   C.2       1 RES1   0.0000
    32 C32     25.3615   1.2461 -20.6502   C.2       1 RES1   0.0000
    33 C33     26.6193   1.7878 -20.7294   C.2       1 RES1   0.0000
    34 N34     27.0817   2.6687 -19.7176   N.2       1 RES1   0.0000
    35 C35     28.0748   6.5557 -13.0256   C.2       1 RES1   0.0000
@<TRIPOS>BOND
     1     1     2    1
     2     2     3    1
     3     3     4    2
     4     4     5    1
     5     5     6    2
     6     6     7    1
     7     7     8    1
     8     6     9    1
     9     9    10    1
    10    10    11    1
    11    11    12    1
    12    12    13    2
    13    12    14   am
    14    14    15    1
    15    15    16    2
    16    16    17    1
    17    17    18    1
    18    18    19    1
    19    19    20    2
    20    20    21    1
    21    21    22    1
    22    20    23    1
    23    23    24    1
    24    24    25    1
    25    25    26    2
    26    26    27    1
    27    27    28    2
    28    28    29    1
    29    28    30    1
    30    30    31    2
    31    17    32    2
    32    32    33    1
    33    33    34    2
    34     9    35    2
    35    35     3    1
    36    34    15    1
    37    24    18    2
    38    31    25    1
@<TRIPOS>SUBSTRUCTURE
     1 RES1        1 GROUP             0 ****  ****    0  
@<TRIPOS>MOLECULE
ligand_77
    35    38     1     0     0
SMALL
NO_CHARGES
****
Generated from the CSD

@<TRIPOS>ATOM
     1 C1      27.6584   5.8876 -10.3580   C.3       1 RES1   0.0000
     2 O2      28.8875   6.6024 -10.8065   O.3       1 RES1   0.0000
     3 C3      29.0853   6.9184 -12.1350   C.2       1 RES1   0.0000
     4 C4      30.2374   7.5969 -12.6230   C.2       1 RES1   0.0000
     5 C5      30.3055   7.8641 -13.9894   C.2       1 RES1   0.0000
     6 C6      29.2717   7.4553 -14.8863   C.2       1 RES1   0.0000
     7 O7      29.3747   7.7057 -16.2371   O.3       1 RES1   0.0000
     8 C8      30.5949   8.3769 -16.6656   C.3       1 RES1   0.0000
     9 C9      28.1065   6.7998 -14.4066   C.2       1 RES1   0.0000
    10 C10     26.9546   6.3025 -15.1451   C.3       1 RES1   0.0000
    11 C11     27.3816   4.9594 -15.7670   C.3       1 RES1   0.0000
    12 C12     26.3296   4.2103 -16.6145   C.2       1 RES1   0.0000
    13 O13     25.2424   3.9349 -16.1673   O.2       1 RES1   0.0000
    14 N14     26.8529   3.7697 -17.7637   N.am      1 RES1   0.0000
    15 C15     26.2700   2.9364 -18.6554   C.2       1 RES1   0.0000
    16 C16     24.9762   2.4053 -18.5998   C.2       1 RES1   0.0000
    17 C17     24.4970   1.4922 -19.5671   C.2       1 RES1   0.0000
    18 C18     23.2047   0.9954 -19.5421   C.2       1 RES1   0.0000
    19 N19     22.1202   1.8162 -19.5651   N.2       1 RES1   0.0000
    20 C20     21.0376   1.0955 -19.6172   C.2       1 RES1   0.0000
    21 S21     19.4212   1.7989 -19.6490   S.3       1 RES1   0.0000
    22 C22     18.3612   0.3853 -19.7182   C.3       1 RES1   0.0000
    23 N23     21.3839  -0.1956 -19.6474   N.2       1 RES1   0.0000
    24 C24     22.7105  -0.2928 -19.5999   C.2       1 RES1   0.0000
    25 C25     23.3146  -1.5345 -19.5745   C.2       1 RES1   0.0000
    26 C26     24.5025  -1.8558 -20.2648   C.2       1 RES1   0.0000
    27 C27     25.1117  -3.1327 -20.1931   C.2       1 RES1   0.0000
    28 C28     24.5235  -4.1324 -19.4411   C.2       1 RES1   0.0000
    29 F29     25.0698  -5.4147 -19.3725   F         1 RES1   0.0000
    30 C30     23.3289  -3.8297 -18.7668   C.2       1 RES1   0.0000
    31 C31     22.7208  -2.5761 -18.8149   C.2       1 RES1   0.0000
    32 C32     25.3615   1.2461 -20.6502   C.2       1 RES1   0.0000
    33 C33     26.6193   1.7878 -20.7294   C.2       1 RES1   0.0000
    34 N34     27.0817   2.6687 -19.7176   N.2       1 RES1   0.0000
    35 C35     28.0748   6.5557 -13.0256   C.2       1 RES1   0.0000
@<TRIPOS>BOND
     1     1     2    1
     2     2     3    1
     3     3     4    2
     4     4     5    1
     5     5     6    2
     6     6     7    1
     7     7     8    1
     8     6     9    1
     9     9    10    1
    10    10    11    1
    11    11    12    1
    12    12    13    2
    13    12    14   am
    14    14    15    1
    15    15    16    2
    16    16    17    1
    17    17    18    1
    18    18    19    1
    19    19    20    2
    20    20    21    1
    21    21    22    1
    22    20    23    1
    23    23    24    1
    24    24    25    1
    25    25    26    2
    26    26    27    1
    27    27    28    2
    28    28    29    1
    29    28    30    1
    30    30    31    2
    31    17    32    2
    32    32    33    1
    33    33    34    2
    34     9    35    2
    35    35     3    1
    36    34    15    1
    37    24    18    2
    38    31    25    1
@<TRIPOS>SUBSTRUCTURE
     1 RES1        1 GROUP             0 ****  ****    0  
@<TRIPOS>MOLECULE
ligand_78
    35    38     1     0     0
SMALL
NO_CHARGES
****
Generated from the CSD

@<TRIPOS>ATOM
     1 C1      31.7153  10.2006 -14.7869   C.3       1 RES1   0.0000
     2 O2      30.5085   9.4657 -15.2625   O.3       1 RES1   0.0000
     3 C3      29.9307   8.4718 -14.4994   C.2       1 RES1   0.0000
     4 C4      30.4197   8.0687 -13.2249   C.2       1 RES1   0.0000
     5 C5      29.7464   7.0423 -12.5642   C.2       1 RES1   0.0000
     6 C6      28.5882   6.4224 -13.1247   C.2       1 RES1   0.0000
     7 O7      27.9228   5.4291 -12.4400   O.3       1 RES1   0.0000
     8 C8      28.4641   5.0911 -11.1300   C.3       1 RES1   0.0000
     9 C9      28.1065   6.7998 -14.4066   C.2       1 RES1   0.0000
    10 C10     26.9546   6.3025 -15.1451   C.3       1 RES1   0.0000
    11 C11     27.3816   4.9594 -15.7670   C.3       1 RES1   0.0000
    12 C12     26.3296   4.2103 -16.6145   C.2       1 RES1   0.0000
    13 O13     25.2424   3.9349 -16.1673   O.2       1 RES1   0.0000
    14 N14     26.8529   3.7697 -17.7637   N.am      1 RES1   0.0000
    15 C15     26.2700   2.9364 -18.6554   C.2       1 RES1   0.0000
    16 C16     24.9762   2.4053 -18.5998   C.2       1 RES1   0.0000
    17 C17     24.4970   1.4922 -19.5671   C.2       1 RES1   0.0000
    18 C18     23.2047   0.9954 -19.5421   C.2       1 RES1   0.0000
    19 N19     22.1202   1.8162 -19.5651   N.2       1 RES1   0.0000
    20 C20     21.0376   1.0955 -19.6172   C.2       1 RES1   0.0000
    21 S21     19.4212   1.7989 -19.6490   S.3       1 RES1   0.0000
    22 C22     18.3612   0.3853 -19.7182   C.3       1 RES1   0.0000
    23 N23     21.3839  -0.1956 -19.6474   N.2       1 RES1   0.0000
    24 C24     22.7105  -0.2928 -19.5999   C.2       1 RES1   0.0000
    25 C25     23.3146  -1.5345 -19.5745   C.2       1 RES1   0.0000
    26 C26     24.5025  -1.8558 -20.2648   C.2       1 RES1   0.0000
    27 C27     25.1117  -3.1327 -20.1931   C.2       1 RES1   0.0000
    28 C28     24.5235  -4.1324 -19.4411   C.2       1 RES1   0.0000
    29 F29     25.0698  -5.4147 -19.3725   F         1 RES1   0.0000
    30 C30     23.3289  -3.8297 -18.7668   C.2       1 RES1   0.0000
    31 C31     22.7208  -2.5761 -18.8150   C.2       1 RES1   0.0000
    32 C32     25.3615   1.2461 -20.6502   C.2       1 RES1   0.0000
    33 C33     26.6193   1.7878 -20.7294   C.2       1 RES1   0.0000
    34 N34     27.0817   2.6687 -19.7176   N.2       1 RES1   0.0000
    35 C35     28.8157   7.8310 -15.0398   C.2       1 RES1   0.0000
@<TRIPOS>BOND
     1     1     2    1
     2     2     3    1
     3     3     4    2
     4     4     5    1
     5     5     6    2
     6     6     7    1
     7     7     8    1
     8     6     9    1
     9     9    10    1
    10    10    11    1
    11    11    12    1
    12    12    13    2
    13    12    14   am
    14    14    15    1
    15    15    16    2
    16    16    17    1
    17    17    18    1
    18    18    19    1
    19    19    20    2
    20    20    21    1
    21    21    22    1
    22    20    23    1
    23    23    24    1
    24    24    25    1
    25    25    26    2
    26    26    27    1
    27    27    28    2
    28    28    29    1
    29    28    30    1
    30    30    31    2
    31    17    32    2
    32    32    33    1
    33    33    34    2
    34     9    35    2
    35    35     3    1
    36    34    15    1
    37    24    18    2
    38    31    25    1
@<TRIPOS>SUBSTRUCTURE
     1 RES1        1 GROUP             0 ****  ****    0  
@<TRIPOS>MOLECULE
ligand_79
    35    38     1     0     0
SMALL
NO_CHARGES
****
Generated from the CSD

@<TRIPOS>ATOM
     1 C1      29.9467   9.8439 -16.5906   C.3       1 RES1   0.0000
     2 O2      30.5085   9.4657 -15.2625   O.3       1 RES1   0.0000
     3 C3      29.9307   8.4718 -14.4994   C.2       1 RES1   0.0000
     4 C4      30.4197   8.0687 -13.2249   C.2       1 RES1   0.0000
     5 C5      29.7464   7.0423 -12.5642   C.2       1 RES1   0.0000
     6 C6      28.5882   6.4224 -13.1247   C.2       1 RES1   0.0000
     7 O7      27.9228   5.4291 -12.4400   O.3       1 RES1   0.0000
     8 C8      28.4641   5.0911 -11.1300   C.3       1 RES1   0.0000
     9 C9      28.1065   6.7998 -14.4066   C.2       1 RES1   0.0000
    10 C10     26.9546   6.3025 -15.1451   C.3       1 RES1   0.0000
    11 C11     27.3816   4.9594 -15.7670   C.3       1 RES1   0.0000
    12 C12     26.3296   4.2103 -16.6145   C.2       1 RES1   0.0000
    13 O13     25.2424   3.9349 -16.1673   O.2       1 RES1   0.0000
    14 N14     26.8529   3.7697 -17.7637   N.am      1 RES1   0.0000
    15 C15     26.2700   2.9364 -18.6554   C.2       1 RES1   0.0000
    16 C16     24.9762   2.4053 -18.5998   C.2       1 RES1   0.0000
    17 C17     24.4970   1.4922 -19.5671   C.2       1 RES1   0.0000
    18 C18     23.2047   0.9954 -19.5421   C.2       1 RES1   0.0000
    19 N19     22.1202   1.8162 -19.5651   N.2       1 RES1   0.0000
    20 C20     21.0376   1.0955 -19.6172   C.2       1 RES1   0.0000
    21 S21     19.4212   1.7989 -19.6490   S.3       1 RES1   0.0000
    22 C22     18.3612   0.3853 -19.7182   C.3       1 RES1   0.0000
    23 N23     21.3839  -0.1956 -19.6474   N.2       1 RES1   0.0000
    24 C24     22.7105  -0.2928 -19.5999   C.2       1 RES1   0.0000
    25 C25     23.3146  -1.5345 -19.5745   C.2       1 RES1   0.0000
    26 C26     24.5025  -1.8558 -20.2648   C.2       1 RES1   0.0000
    27 C27     25.1117  -3.1327 -20.1931   C.2       1 RES1   0.0000
    28 C28     24.5235  -4.1324 -19.4411   C.2       1 RES1   0.0000
    29 F29     25.0698  -5.4147 -19.3725   F         1 RES1   0.0000
    30 C30     23.3289  -3.8297 -18.7668   C.2       1 RES1   0.0000
    31 C31     22.7208  -2.5761 -18.8149   C.2       1 RES1   0.0000
    32 C32     25.3615   1.2461 -20.6502   C.2       1 RES1   0.0000
    33 C33     26.6193   1.7878 -20.7294   C.2       1 RES1   0.0000
    34 N34     27.0817   2.6687 -19.7176   N.2       1 RES1   0.0000
    35 C35     28.8157   7.8310 -15.0398   C.2       1 RES1   0.0000
@<TRIPOS>BOND
     1     1     2    1
     2     2     3    1
     3     3     4    2
     4     4     5    1
     5     5     6    2
     6     6     7    1
     7     7     8    1
     8     6     9    1
     9     9    10    1
    10    10    11    1
    11    11    12    1
    12    12    13    2
    13    12    14   am
    14    14    15    1
    15    15    16    2
    16    16    17    1
    17    17    18    1
    18    18    19    1
    19    19    20    2
    20    20    21    1
    21    21    22    1
    22    20    23    1
    23    23    24    1
    24    24    25    1
    25    25    26    2
    26    26    27    1
    27    27    28    2
    28    28    29    1
    29    28    30    1
    30    30    31    2
    31    17    32    2
    32    32    33    1
    33    33    34    2
    34     9    35    2
    35    35     3    1
    36    34    15    1
    37    24    18    2
    38    31    25    1
@<TRIPOS>SUBSTRUCTURE
     1 RES1        1 GROUP             0 ****  ****    0  
@<TRIPOS>MOLECULE
ligand_80
    35    38     1     0     0
SMALL
NO_CHARGES
****
Generated from the CSD

@<TRIPOS>ATOM
     1 C1      31.5228  10.7834 -17.3414   C.3       1 RES1   0.0000
     2 O2      30.4164   9.7854 -17.3910   O.3       1 RES1   0.0000
     3 C3      29.2869  10.0085 -18.1515   C.2       1 RES1   0.0000
     4 C4      29.0804  11.1781 -18.9358   C.2       1 RES1   0.0000
     5 C5      27.8872  11.2812 -19.6492   C.2       1 RES1   0.0000
     6 C6      26.9052  10.2444 -19.6225   C.2       1 RES1   0.0000
     7 O7      25.7459  10.3564 -20.3584   O.3       1 RES1   0.0000
     8 C8      25.6186  11.5672 -21.1592   C.3       1 RES1   0.0000
     9 C9      27.0900   9.0845 -18.8238   C.2       1 RES1   0.0000
    10 C10     26.2249   7.9246 -18.6629   C.3       1 RES1   0.0000
    11 C11     26.4521   7.0358 -19.9004   C.3       1 RES1   0.0000
    12 C12     25.6439   5.7218 -19.9810   C.2       1 RES1   0.0000
    13 O13     24.4392   5.7189 -19.9018   O.2       1 RES1   0.0000
    14 N14     26.4468   4.6527 -19.9485   N.am      1 RES1   0.0000
    15 C15     26.0724   3.3589 -19.8246   C.2       1 RES1   0.0000
    16 C16     24.7678   2.8553 -19.7645   C.2       1 RES1   0.0000
    17 C17     24.5018   1.4799 -19.5739   C.2       1 RES1   0.0000
    18 C18     23.2148   0.9689 -19.5555   C.2       1 RES1   0.0000
    19 N19     22.1607   1.6968 -19.0980   N.2       1 RES1   0.0000
    20 C20     21.0638   1.0168 -19.2676   C.2       1 RES1   0.0000
    21 S21     19.4794   1.6220 -18.7861   S.3       1 RES1   0.0000
    22 C22     18.3844   0.3115 -19.2444   C.3       1 RES1   0.0000
    23 N23     21.3681  -0.1483 -19.8486   N.2       1 RES1   0.0000
    24 C24     22.6841  -0.2114 -20.0374   C.2       1 RES1   0.0000
    25 C25     23.2528  -1.3440 -20.5863   C.2       1 RES1   0.0000
    26 C26     24.3231  -1.3315 -21.5055   C.2       1 RES1   0.0000
    27 C27     24.9024  -2.5145 -22.0269   C.2       1 RES1   0.0000
    28 C28     24.3992  -3.7469 -21.6541   C.2       1 RES1   0.0000
    29 F29     24.9157  -4.9355 -22.1716   F         1 RES1   0.0000
    30 C30     23.3195  -3.7704 -20.7558   C.2       1 RES1   0.0000
    31 C31     22.7440  -2.6180 -20.2223   C.2       1 RES1   0.0000
    32 C32     25.6301   0.6385 -19.5683   C.2       1 RES1   0.0000
    33 C33     26.9113   1.1201 -19.6592   C.2       1 RES1   0.0000
    34 N34     27.1411   2.5125 -19.8085   N.2       1 RES1   0.0000
    35 C35     28.3003   9.0230 -18.1174   C.2       1 RES1   0.0000
@<TRIPOS>BOND
     1     1     2    1
     2     2     3    1
     3     3     4    2
     4     4     5    1
     5     5     6    2
     6     6     7    1
     7     7     8    1
     8     6     9    1
     9     9    10    1
    10    10    11    1
    11    11    12    1
    12    12    13    2
    13    12    14   am
    14    14    15    1
    15    15    16    2
    16    16    17    1
    17    17    18    1
    18    18    19    1
    19    19    20    2
    20    20    21    1
    21    21    22    1
    22    20    23    1
    23    23    24    1
    24    24    25    1
    25    25    26    2
    26    26    27    1
    27    27    28    2
    28    28    29    1
    29    28    30    1
    30    30    31    2
    31    17    32    2
    32    32    33    1
    33    33    34    2
    34     9    35    2
    35    35     3    1
    36    34    15    1
    37    24    18    2
    38    31    25    1
@<TRIPOS>SUBSTRUCTURE
     1 RES1        1 GROUP             0 ****  ****    0  
@<TRIPOS>MOLECULE
ligand_81
    35    38     1     0     0
SMALL
NO_CHARGES
****
Generated from the CSD

@<TRIPOS>ATOM
     1 C1      30.5744   8.5370 -16.5916   C.3       1 RES1   0.0000
     2 O2      30.4164   9.7854 -17.3910   O.3       1 RES1   0.0000
     3 C3      29.2869  10.0085 -18.1515   C.2       1 RES1   0.0000
     4 C4      29.0804  11.1781 -18.9358   C.2       1 RES1   0.0000
     5 C5      27.8872  11.2812 -19.6492   C.2       1 RES1   0.0000
     6 C6      26.9052  10.2444 -19.6225   C.2       1 RES1   0.0000
     7 O7      25.7459  10.3564 -20.3584   O.3       1 RES1   0.0000
     8 C8      25.6186  11.5672 -21.1592   C.3       1 RES1   0.0000
     9 C9      27.0900   9.0845 -18.8238   C.2       1 RES1   0.0000
    10 C10     26.2249   7.9246 -18.6629   C.3       1 RES1   0.0000
    11 C11     26.4521   7.0358 -19.9004   C.3       1 RES1   0.0000
    12 C12     25.6439   5.7218 -19.9810   C.2       1 RES1   0.0000
    13 O13     24.4392   5.7189 -19.9018   O.2       1 RES1   0.0000
    14 N14     26.4468   4.6527 -19.9485   N.am      1 RES1   0.0000
    15 C15     26.0724   3.3589 -19.8246   C.2       1 RES1   0.0000
    16 C16     24.7678   2.8553 -19.7645   C.2       1 RES1   0.0000
    17 C17     24.5018   1.4799 -19.5739   C.2       1 RES1   0.0000
    18 C18     23.2148   0.9689 -19.5555   C.2       1 RES1   0.0000
    19 N19     22.1607   1.6968 -19.0980   N.2       1 RES1   0.0000
    20 C20     21.0638   1.0168 -19.2676   C.2       1 RES1   0.0000
    21 S21     19.4794   1.6220 -18.7861   S.3       1 RES1   0.0000
    22 C22     18.3844   0.3115 -19.2444   C.3       1 RES1   0.0000
    23 N23     21.3681  -0.1483 -19.8486   N.2       1 RES1   0.0000
    24 C24     22.6841  -0.2114 -20.0374   C.2       1 RES1   0.0000
    25 C25     23.2528  -1.3440 -20.5863   C.2       1 RES1   0.0000
    26 C26     24.3231  -1.3315 -21.5055   C.2       1 RES1   0.0000
    27 C27     24.9024  -2.5145 -22.0269   C.2       1 RES1   0.0000
    28 C28     24.3992  -3.7469 -21.6541   C.2       1 RES1   0.0000
    29 F29     24.9157  -4.9355 -22.1716   F         1 RES1   0.0000
    30 C30     23.3195  -3.7704 -20.7558   C.2       1 RES1   0.0000
    31 C31     22.7440  -2.6180 -20.2223   C.2       1 RES1   0.0000
    32 C32     25.6301   0.6385 -19.5683   C.2       1 RES1   0.0000
    33 C33     26.9113   1.1201 -19.6592   C.2       1 RES1   0.0000
    34 N34     27.1411   2.5125 -19.8085   N.2       1 RES1   0.0000
    35 C35     28.3003   9.0230 -18.1174   C.2       1 RES1   0.0000
@<TRIPOS>BOND
     1     1     2    1
     2     2     3    1
     3     3     4    2
     4     4     5    1
     5     5     6    2
     6     6     7    1
     7     7     8    1
     8     6     9    1
     9     9    10    1
    10    10    11    1
    11    11    12    1
    12    12    13    2
    13    12    14   am
    14    14    15    1
    15    15    16    2
    16    16    17    1
    17    17    18    1
    18    18    19    1
    19    19    20    2
    20    20    21    1
    21    21    22    1
    22    20    23    1
    23    23    24    1
    24    24    25    1
    25    25    26    2
    26    26    27    1
    27    27    28    2
    28    28    29    1
    29    28    30    1
    30    30    31    2
    31    17    32    2
    32    32    33    1
    33    33    34    2
    34     9    35    2
    35    35     3    1
    36    34    15    1
    37    24    18    2
    38    31    25    1
@<TRIPOS>SUBSTRUCTURE
     1 RES1        1 GROUP             0 ****  ****    0  
@<TRIPOS>MOLECULE
ligand_82
    35    38     1     0     0
SMALL
NO_CHARGES
****
Generated from the CSD

@<TRIPOS>ATOM
     1 C1      26.8464  13.8935 -20.0679   C.3       1 RES1   0.0000
     2 O2      26.2711  12.5403 -19.8218   O.3       1 RES1   0.0000
     3 C3      27.0672  11.4888 -19.4162   C.2       1 RES1   0.0000
     4 C4      28.4701  11.5964 -19.2017   C.2       1 RES1   0.0000
     5 C5      29.1574  10.4512 -18.8026   C.2       1 RES1   0.0000
     6 C6      28.4853   9.2091 -18.5888   C.2       1 RES1   0.0000
     7 O7      29.1816   8.0977 -18.1670   O.3       1 RES1   0.0000
     8 C8      30.6078   8.2922 -17.9402   C.3       1 RES1   0.0000
     9 C9      27.0900   9.0845 -18.8238   C.2       1 RES1   0.0000
    10 C10     26.2249   7.9246 -18.6629   C.3       1 RES1   0.0000
    11 C11     26.4521   7.0358 -19.9004   C.3       1 RES1   0.0000
    12 C12     25.6439   5.7218 -19.9810   C.2       1 RES1   0.0000
    13 O13     24.4392   5.7189 -19.9018   O.2       1 RES1   0.0000
    14 N14     26.4468   4.6527 -19.9485   N.am      1 RES1   0.0000
    15 C15     26.0724   3.3589 -19.8246   C.2       1 RES1   0.0000
    16 C16     24.7678   2.8553 -19.7645   C.2       1 RES1   0.0000
    17 C17     24.5018   1.4799 -19.5739   C.2       1 RES1   0.0000
    18 C18     23.2148   0.9689 -19.5555   C.2       1 RES1   0.0000
    19 N19     22.1607   1.6968 -19.0980   N.2       1 RES1   0.0000
    20 C20     21.0638   1.0168 -19.2676   C.2       1 RES1   0.0000
    21 S21     19.4794   1.6220 -18.7861   S.3       1 RES1   0.0000
    22 C22     18.3844   0.3115 -19.2444   C.3       1 RES1   0.0000
    23 N23     21.3681  -0.1483 -19.8486   N.2       1 RES1   0.0000
    24 C24     22.6841  -0.2114 -20.0374   C.2       1 RES1   0.0000
    25 C25     23.2528  -1.3440 -20.5863   C.2       1 RES1   0.0000
    26 C26     24.3231  -1.3315 -21.5055   C.2       1 RES1   0.0000
    27 C27     24.9024  -2.5145 -22.0269   C.2       1 RES1   0.0000
    28 C28     24.3992  -3.7469 -21.6541   C.2       1 RES1   0.0000
    29 F29     24.9157  -4.9355 -22.1716   F         1 RES1   0.0000
    30 C30     23.3195  -3.7704 -20.7558   C.2       1 RES1   0.0000
    31 C31     22.7440  -2.6180 -20.2223   C.2       1 RES1   0.0000
    32 C32     25.6301   0.6385 -19.5683   C.2       1 RES1   0.0000
    33 C33     26.9113   1.1201 -19.6592   C.2       1 RES1   0.0000
    34 N34     27.1411   2.5125 -19.8085   N.2       1 RES1   0.0000
    35 C35     26.4377  10.2579 -19.2300   C.2       1 RES1   0.0000
@<TRIPOS>BOND
     1     1     2    1
     2     2     3    1
     3     3     4    2
     4     4     5    1
     5     5     6    2
     6     6     7    1
     7     7     8    1
     8     6     9    1
     9     9    10    1
    10    10    11    1
    11    11    12    1
    12    12    13    2
    13    12    14   am
    14    14    15    1
    15    15    16    2
    16    16    17    1
    17    17    18    1
    18    18    19    1
    19    19    20    2
    20    20    21    1
    21    21    22    1
    22    20    23    1
    23    23    24    1
    24    24    25    1
    25    25    26    2
    26    26    27    1
    27    27    28    2
    28    28    29    1
    29    28    30    1
    30    30    31    2
    31    17    32    2
    32    32    33    1
    33    33    34    2
    34     9    35    2
    35    35     3    1
    36    34    15    1
    37    24    18    2
    38    31    25    1
@<TRIPOS>SUBSTRUCTURE
     1 RES1        1 GROUP             0 ****  ****    0  
@<TRIPOS>MOLECULE
ligand_83
    35    38     1     0     0
SMALL
NO_CHARGES
****
Generated from the CSD

@<TRIPOS>ATOM
     1 C1      24.8051  12.3638 -20.0273   C.3       1 RES1   0.0000
     2 O2      26.2711  12.5403 -19.8218   O.3       1 RES1   0.0000
     3 C3      27.0672  11.4888 -19.4162   C.2       1 RES1   0.0000
     4 C4      28.4701  11.5964 -19.2017   C.2       1 RES1   0.0000
     5 C5      29.1574  10.4512 -18.8026   C.2       1 RES1   0.0000
     6 C6      28.4853   9.2091 -18.5888   C.2       1 RES1   0.0000
     7 O7      29.1816   8.0977 -18.1670   O.3       1 RES1   0.0000
     8 C8      30.6078   8.2922 -17.9402   C.3       1 RES1   0.0000
     9 C9      27.0900   9.0845 -18.8238   C.2       1 RES1   0.0000
    10 C10     26.2249   7.9246 -18.6629   C.3       1 RES1   0.0000
    11 C11     26.4521   7.0358 -19.9004   C.3       1 RES1   0.0000
    12 C12     25.6439   5.7218 -19.9810   C.2       1 RES1   0.0000
    13 O13     24.4392   5.7189 -19.9018   O.2       1 RES1   0.0000
    14 N14     26.4468   4.6527 -19.9485   N.am      1 RES1   0.0000
    15 C15     26.0724   3.3589 -19.8246   C.2       1 RES1   0.0000
    16 C16     24.7678   2.8553 -19.7645   C.2       1 RES1   0.0000
    17 C17     24.5018   1.4799 -19.5739   C.2       1 RES1   0.0000
    18 C18     23.2148   0.9689 -19.5555   C.2       1 RES1   0.0000
    19 N19     22.1607   1.6968 -19.0980   N.2       1 RES1   0.0000
    20 C20     21.0638   1.0168 -19.2676   C.2       1 RES1   0.0000
    21 S21     19.4794   1.6220 -18.7861   S.3       1 RES1   0.0000
    22 C22     18.3844   0.3115 -19.2444   C.3       1 RES1   0.0000
    23 N23     21.3681  -0.1483 -19.8486   N.2       1 RES1   0.0000
    24 C24     22.6841  -0.2114 -20.0374   C.2       1 RES1   0.0000
    25 C25     23.2528  -1.3440 -20.5863   C.2       1 RES1   0.0000
    26 C26     24.3231  -1.3315 -21.5055   C.2       1 RES1   0.0000
    27 C27     24.9024  -2.5145 -22.0269   C.2       1 RES1   0.0000
    28 C28     24.3992  -3.7469 -21.6541   C.2       1 RES1   0.0000
    29 F29     24.9157  -4.9355 -22.1716   F         1 RES1   0.0000
    30 C30     23.3195  -3.7704 -20.7558   C.2       1 RES1   0.0000
    31 C31     22.7440  -2.6180 -20.2223   C.2       1 RES1   0.0000
    32 C32     25.6301   0.6385 -19.5683   C.2       1 RES1   0.0000
    33 C33     26.9113   1.1201 -19.6592   C.2       1 RES1   0.0000
    34 N34     27.1411   2.5125 -19.8085   N.2       1 RES1   0.0000
    35 C35     26.4377  10.2579 -19.2300   C.2       1 RES1   0.0000
@<TRIPOS>BOND
     1     1     2    1
     2     2     3    1
     3     3     4    2
     4     4     5    1
     5     5     6    2
     6     6     7    1
     7     7     8    1
     8     6     9    1
     9     9    10    1
    10    10    11    1
    11    11    12    1
    12    12    13    2
    13    12    14   am
    14    14    15    1
    15    15    16    2
    16    16    17    1
    17    17    18    1
    18    18    19    1
    19    19    20    2
    20    20    21    1
    21    21    22    1
    22    20    23    1
    23    23    24    1
    24    24    25    1
    25    25    26    2
    26    26    27    1
    27    27    28    2
    28    28    29    1
    29    28    30    1
    30    30    31    2
    31    17    32    2
    32    32    33    1
    33    33    34    2
    34     9    35    2
    35    35     3    1
    36    34    15    1
    37    24    18    2
    38    31    25    1
@<TRIPOS>SUBSTRUCTURE
     1 RES1        1 GROUP             0 ****  ****    0  
@<TRIPOS>MOLECULE
ligand_84
    35    38     1     0     0
SMALL
NO_CHARGES
****
Generated from the CSD

@<TRIPOS>ATOM
     1 C1      27.0568  13.5840 -18.1535   C.3       1 RES1   0.0000
     2 O2      26.4200  12.3222 -18.6279   O.3       1 RES1   0.0000
     3 C3      27.1128  11.4239 -19.4134   C.2       1 RES1   0.0000
     4 C4      28.4602  11.6141 -19.8309   C.2       1 RES1   0.0000
     5 C5      29.0379  10.6315 -20.6333   C.2       1 RES1   0.0000
     6 C6      28.3214   9.4555 -21.0125   C.2       1 RES1   0.0000
     7 O7      28.9230   8.4847 -21.7829   O.3       1 RES1   0.0000
     8 C8      30.3117   8.7351 -22.1465   C.3       1 RES1   0.0000
     9 C9      26.9686   9.2675 -20.6222   C.2       1 RES1   0.0000
    10 C10     26.0735   8.1522 -20.8953   C.3       1 RES1   0.0000
    11 C11     26.4523   7.0359 -19.9036   C.3       1 RES1   0.0000
    12 C12     25.6439   5.7218 -19.9810   C.2       1 RES1   0.0000
    13 O13     24.4393   5.7191 -19.8996   O.2       1 RES1   0.0000
    14 N14     26.4468   4.6527 -19.9485   N.am      1 RES1   0.0000
    15 C15     26.0724   3.3589 -19.8246   C.2       1 RES1   0.0000
    16 C16     24.7678   2.8553 -19.7647   C.2       1 RES1   0.0000
    17 C17     24.5018   1.4799 -19.5741   C.2       1 RES1   0.0000
    18 C18     23.2148   0.9689 -19.5559   C.2       1 RES1   0.0000
    19 N19     22.1606   1.6968 -19.0987   N.2       1 RES1   0.0000
    20 C20     21.0638   1.0168 -19.2684   C.2       1 RES1   0.0000
    21 S21     19.4793   1.6219 -18.7872   S.3       1 RES1   0.0000
    22 C22     18.3844   0.3114 -19.2457   C.3       1 RES1   0.0000
    23 N23     21.3682  -0.1484 -19.8493   N.2       1 RES1   0.0000
    24 C24     22.6843  -0.2114 -20.0379   C.2       1 RES1   0.0000
    25 C25     23.2530  -1.3440 -20.5866   C.2       1 RES1   0.0000
    26 C26     24.3236  -1.3316 -21.5056   C.2       1 RES1   0.0000
    27 C27     24.9029  -2.5146 -22.0268   C.2       1 RES1   0.0000
    28 C28     24.3997  -3.7470 -21.6540   C.2       1 RES1   0.0000
    29 F29     24.9163  -4.9356 -22.1714   F         1 RES1   0.0000
    30 C30     23.3198  -3.7705 -20.7559   C.2       1 RES1   0.0000
    31 C31     22.7442  -2.6181 -20.2227   C.2       1 RES1   0.0000
    32 C32     25.6301   0.6385 -19.5682   C.2       1 RES1   0.0000
    33 C33     26.9113   1.1202 -19.6589   C.2       1 RES1   0.0000
    34 N34     27.1411   2.5125 -19.8083   N.2       1 RES1   0.0000
    35 C35     26.4235  10.2818 -19.8212   C.2       1 RES1   0.0000
@<TRIPOS>BOND
     1     1     2    1
     2     2     3    1
     3     3     4    2
     4     4     5    1
     5     5     6    2
     6     6     7    1
     7     7     8    1
     8     6     9    1
     9     9    10    1
    10    10    11    1
    11    11    12    1
    12    12    13    2
    13    12    14   am
    14    14    15    1
    15    15    16    2
    16    16    17    1
    17    17    18    1
    18    18    19    1
    19    19    20    2
    20    20    21    1
    21    21    22    1
    22    20    23    1
    23    23    24    1
    24    24    25    1
    25    25    26    2
    26    26    27    1
    27    27    28    2
    28    28    29    1
    29    28    30    1
    30    30    31    2
    31    17    32    2
    32    32    33    1
    33    33    34    2
    34     9    35    2
    35    35     3    1
    36    34    15    1
    37    24    18    2
    38    31    25    1
@<TRIPOS>SUBSTRUCTURE
     1 RES1        1 GROUP             0 ****  ****    0  
@<TRIPOS>MOLECULE
ligand_85
    35    38     1     0     0
SMALL
NO_CHARGES
****
Generated from the CSD

@<TRIPOS>ATOM
     1 C1      25.0089  12.0641 -18.2218   C.3       1 RES1   0.0000
     2 O2      26.4200  12.3222 -18.6279   O.3       1 RES1   0.0000
     3 C3      27.1128  11.4239 -19.4134   C.2       1 RES1   0.0000
     4 C4      28.4602  11.6141 -19.8309   C.2       1 RES1   0.0000
     5 C5      29.0379  10.6315 -20.6333   C.2       1 RES1   0.0000
     6 C6      28.3214   9.4555 -21.0125   C.2       1 RES1   0.0000
     7 O7      28.9230   8.4847 -21.7829   O.3       1 RES1   0.0000
     8 C8      30.3117   8.7351 -22.1465   C.3       1 RES1   0.0000
     9 C9      26.9686   9.2675 -20.6222   C.2       1 RES1   0.0000
    10 C10     26.0735   8.1522 -20.8953   C.3       1 RES1   0.0000
    11 C11     26.4523   7.0359 -19.9036   C.3       1 RES1   0.0000
    12 C12     25.6439   5.7218 -19.9810   C.2       1 RES1   0.0000
    13 O13     24.4393   5.7191 -19.8996   O.2       1 RES1   0.0000
    14 N14     26.4468   4.6527 -19.9485   N.am      1 RES1   0.0000
    15 C15     26.0724   3.3589 -19.8246   C.2       1 RES1   0.0000
    16 C16     24.7678   2.8553 -19.7647   C.2       1 RES1   0.0000
    17 C17     24.5018   1.4799 -19.5741   C.2       1 RES1   0.0000
    18 C18     23.2148   0.9689 -19.5559   C.2       1 RES1   0.0000
    19 N19     22.1606   1.6968 -19.0987   N.2       1 RES1   0.0000
    20 C20     21.0638   1.0168 -19.2684   C.2       1 RES1   0.0000
    21 S21     19.4793   1.6219 -18.7872   S.3       1 RES1   0.0000
    22 C22     18.3844   0.3114 -19.2457   C.3       1 RES1   0.0000
    23 N23     21.3682  -0.1484 -19.8493   N.2       1 RES1   0.0000
    24 C24     22.6843  -0.2114 -20.0379   C.2       1 RES1   0.0000
    25 C25     23.2530  -1.3440 -20.5866   C.2       1 RES1   0.0000
    26 C26     24.3236  -1.3316 -21.5056   C.2       1 RES1   0.0000
    27 C27     24.9029  -2.5146 -22.0268   C.2       1 RES1   0.0000
    28 C28     24.3997  -3.7470 -21.6540   C.2       1 RES1   0.0000
    29 F29     24.9163  -4.9356 -22.1714   F         1 RES1   0.0000
    30 C30     23.3198  -3.7705 -20.7559   C.2       1 RES1   0.0000
    31 C31     22.7442  -2.6181 -20.2227   C.2       1 RES1   0.0000
    32 C32     25.6301   0.6385 -19.5682   C.2       1 RES1   0.0000
    33 C33     26.9113   1.1202 -19.6589   C.2       1 RES1   0.0000
    34 N34     27.1411   2.5125 -19.8083   N.2       1 RES1   0.0000
    35 C35     26.4235  10.2818 -19.8212   C.2       1 RES1   0.0000
@<TRIPOS>BOND
     1     1     2    1
     2     2     3    1
     3     3     4    2
     4     4     5    1
     5     5     6    2
     6     6     7    1
     7     7     8    1
     8     6     9    1
     9     9    10    1
    10    10    11    1
    11    11    12    1
    12    12    13    2
    13    12    14   am
    14    14    15    1
    15    15    16    2
    16    16    17    1
    17    17    18    1
    18    18    19    1
    19    19    20    2
    20    20    21    1
    21    21    22    1
    22    20    23    1
    23    23    24    1
    24    24    25    1
    25    25    26    2
    26    26    27    1
    27    27    28    2
    28    28    29    1
    29    28    30    1
    30    30    31    2
    31    17    32    2
    32    32    33    1
    33    33    34    2
    34     9    35    2
    35    35     3    1
    36    34    15    1
    37    24    18    2
    38    31    25    1
@<TRIPOS>SUBSTRUCTURE
     1 RES1        1 GROUP             0 ****  ****    0  
@<TRIPOS>MOLECULE
ligand_86
    35    38     1     0     0
SMALL
NO_CHARGES
****
Generated from the CSD

@<TRIPOS>ATOM
     1 C1      31.0125  11.4729 -22.4977   C.3       1 RES1   0.0000
     2 O2      29.9358  10.4420 -22.4731   O.3       1 RES1   0.0000
     3 C3      28.9705  10.4407 -21.4871   C.2       1 RES1   0.0000
     4 C4      28.9158  11.3960 -20.4334   C.2       1 RES1   0.0000
     5 C5      27.8920  11.2725 -19.4954   C.2       1 RES1   0.0000
     6 C6      26.9089  10.2406 -19.5892   C.2       1 RES1   0.0000
     7 O7      25.8899  10.1558 -18.6660   O.3       1 RES1   0.0000
     8 C8      25.8823  11.1853 -17.6347   C.3       1 RES1   0.0000
     9 C9      26.9686   9.2675 -20.6222   C.2       1 RES1   0.0000
    10 C10     26.0735   8.1522 -20.8953   C.3       1 RES1   0.0000
    11 C11     26.4523   7.0359 -19.9036   C.3       1 RES1   0.0000
    12 C12     25.6439   5.7218 -19.9810   C.2       1 RES1   0.0000
    13 O13     24.4393   5.7191 -19.8996   O.2       1 RES1   0.0000
    14 N14     26.4468   4.6527 -19.9485   N.am      1 RES1   0.0000
    15 C15     26.0724   3.3589 -19.8246   C.2       1 RES1   0.0000
    16 C16     24.7678   2.8553 -19.7647   C.2       1 RES1   0.0000
    17 C17     24.5018   1.4799 -19.5741   C.2       1 RES1   0.0000
    18 C18     23.2148   0.9689 -19.5559   C.2       1 RES1   0.0000
    19 N19     22.1606   1.6968 -19.0987   N.2       1 RES1   0.0000
    20 C20     21.0638   1.0168 -19.2684   C.2       1 RES1   0.0000
    21 S21     19.4793   1.6219 -18.7872   S.3       1 RES1   0.0000
    22 C22     18.3844   0.3114 -19.2457   C.3       1 RES1   0.0000
    23 N23     21.3682  -0.1484 -19.8493   N.2       1 RES1   0.0000
    24 C24     22.6843  -0.2114 -20.0379   C.2       1 RES1   0.0000
    25 C25     23.2530  -1.3440 -20.5866   C.2       1 RES1   0.0000
    26 C26     24.3236  -1.3316 -21.5056   C.2       1 RES1   0.0000
    27 C27     24.9029  -2.5146 -22.0268   C.2       1 RES1   0.0000
    28 C28     24.3997  -3.7470 -21.6540   C.2       1 RES1   0.0000
    29 F29     24.9163  -4.9356 -22.1714   F         1 RES1   0.0000
    30 C30     23.3198  -3.7705 -20.7559   C.2       1 RES1   0.0000
    31 C31     22.7442  -2.6181 -20.2227   C.2       1 RES1   0.0000
    32 C32     25.6301   0.6385 -19.5682   C.2       1 RES1   0.0000
    33 C33     26.9113   1.1202 -19.6589   C.2       1 RES1   0.0000
    34 N34     27.1411   2.5125 -19.8083   N.2       1 RES1   0.0000
    35 C35     28.0170   9.4240 -21.5408   C.2       1 RES1   0.0000
@<TRIPOS>BOND
     1     1     2    1
     2     2     3    1
     3     3     4    2
     4     4     5    1
     5     5     6    2
     6     6     7    1
     7     7     8    1
     8     6     9    1
     9     9    10    1
    10    10    11    1
    11    11    12    1
    12    12    13    2
    13    12    14   am
    14    14    15    1
    15    15    16    2
    16    16    17    1
    17    17    18    1
    18    18    19    1
    19    19    20    2
    20    20    21    1
    21    21    22    1
    22    20    23    1
    23    23    24    1
    24    24    25    1
    25    25    26    2
    26    26    27    1
    27    27    28    2
    28    28    29    1
    29    28    30    1
    30    30    31    2
    31    17    32    2
    32    32    33    1
    33    33    34    2
    34     9    35    2
    35    35     3    1
    36    34    15    1
    37    24    18    2
    38    31    25    1
@<TRIPOS>SUBSTRUCTURE
     1 RES1        1 GROUP             0 ****  ****    0  
@<TRIPOS>MOLECULE
ligand_87
    35    38     1     0     0
SMALL
NO_CHARGES
****
Generated from the CSD

@<TRIPOS>ATOM
     1 C1      29.9375   9.4138 -23.5526   C.3       1 RES1   0.0000
     2 O2      29.9358  10.4420 -22.4731   O.3       1 RES1   0.0000
     3 C3      28.9705  10.4407 -21.4871   C.2       1 RES1   0.0000
     4 C4      28.9158  11.3960 -20.4334   C.2       1 RES1   0.0000
     5 C5      27.8920  11.2725 -19.4954   C.2       1 RES1   0.0000
     6 C6      26.9089  10.2406 -19.5892   C.2       1 RES1   0.0000
     7 O7      25.8899  10.1558 -18.6660   O.3       1 RES1   0.0000
     8 C8      25.8823  11.1853 -17.6347   C.3       1 RES1   0.0000
     9 C9      26.9686   9.2675 -20.6222   C.2       1 RES1   0.0000
    10 C10     26.0735   8.1522 -20.8953   C.3       1 RES1   0.0000
    11 C11     26.4523   7.0359 -19.9036   C.3       1 RES1   0.0000
    12 C12     25.6439   5.7218 -19.9810   C.2       1 RES1   0.0000
    13 O13     24.4393   5.7191 -19.8996   O.2       1 RES1   0.0000
    14 N14     26.4468   4.6527 -19.9485   N.am      1 RES1   0.0000
    15 C15     26.0724   3.3589 -19.8246   C.2       1 RES1   0.0000
    16 C16     24.7678   2.8553 -19.7647   C.2       1 RES1   0.0000
    17 C17     24.5018   1.4799 -19.5741   C.2       1 RES1   0.0000
    18 C18     23.2148   0.9689 -19.5559   C.2       1 RES1   0.0000
    19 N19     22.1606   1.6968 -19.0987   N.2       1 RES1   0.0000
    20 C20     21.0638   1.0168 -19.2684   C.2       1 RES1   0.0000
    21 S21     19.4793   1.6219 -18.7872   S.3       1 RES1   0.0000
    22 C22     18.3844   0.3114 -19.2457   C.3       1 RES1   0.0000
    23 N23     21.3682  -0.1484 -19.8493   N.2       1 RES1   0.0000
    24 C24     22.6843  -0.2114 -20.0379   C.2       1 RES1   0.0000
    25 C25     23.2530  -1.3440 -20.5866   C.2       1 RES1   0.0000
    26 C26     24.3236  -1.3316 -21.5056   C.2       1 RES1   0.0000
    27 C27     24.9029  -2.5146 -22.0268   C.2       1 RES1   0.0000
    28 C28     24.3997  -3.7470 -21.6540   C.2       1 RES1   0.0000
    29 F29     24.9163  -4.9356 -22.1714   F         1 RES1   0.0000
    30 C30     23.3198  -3.7705 -20.7559   C.2       1 RES1   0.0000
    31 C31     22.7442  -2.6181 -20.2227   C.2       1 RES1   0.0000
    32 C32     25.6301   0.6385 -19.5682   C.2       1 RES1   0.0000
    33 C33     26.9113   1.1202 -19.6589   C.2       1 RES1   0.0000
    34 N34     27.1411   2.5125 -19.8083   N.2       1 RES1   0.0000
    35 C35     28.0170   9.4240 -21.5408   C.2       1 RES1   0.0000
@<TRIPOS>BOND
     1     1     2    1
     2     2     3    1
     3     3     4    2
     4     4     5    1
     5     5     6    2
     6     6     7    1
     7     7     8    1
     8     6     9    1
     9     9    10    1
    10    10    11    1
    11    11    12    1
    12    12    13    2
    13    12    14   am
    14    14    15    1
    15    15    16    2
    16    16    17    1
    17    17    18    1
    18    18    19    1
    19    19    20    2
    20    20    21    1
    21    21    22    1
    22    20    23    1
    23    23    24    1
    24    24    25    1
    25    25    26    2
    26    26    27    1
    27    27    28    2
    28    28    29    1
    29    28    30    1
    30    30    31    2
    31    17    32    2
    32    32    33    1
    33    33    34    2
    34     9    35    2
    35    35     3    1
    36    34    15    1
    37    24    18    2
    38    31    25    1
@<TRIPOS>SUBSTRUCTURE
     1 RES1        1 GROUP             0 ****  ****    0  
@<TRIPOS>MOLECULE
ligand_88
    35    38     1     0     0
SMALL
NO_CHARGES
****
Generated from the CSD

@<TRIPOS>ATOM
     1 C1      33.7200   4.6431 -26.3273   C.3       1 RES1   0.0000
     2 O2      32.3785   4.2776 -25.7892   O.3       1 RES1   0.0000
     3 C3      31.8505   3.0175 -25.9827   C.2       1 RES1   0.0000
     4 C4      32.5188   1.9810 -26.6932   C.2       1 RES1   0.0000
     5 C5      31.8660   0.7563 -26.8245   C.2       1 RES1   0.0000
     6 C6      30.5787   0.5269 -26.2498   C.2       1 RES1   0.0000
     7 O7      29.9656  -0.7011 -26.3688   O.3       1 RES1   0.0000
     8 C8      30.7229  -1.7206 -27.0833   C.3       1 RES1   0.0000
     9 C9      29.8923   1.5618 -25.5604   C.2       1 RES1   0.0000
    10 C10     28.5925   1.5328 -24.9052   C.3       1 RES1   0.0000
    11 C11     28.8063   0.8480 -23.5419   C.3       1 RES1   0.0000
    12 C12     27.5674   0.6872 -22.6333   C.2       1 RES1   0.0000
    13 O13     26.5680   0.1346 -23.0250   O.2       1 RES1   0.0000
    14 N14     27.6988   1.3868 -21.5011   N.am      1 RES1   0.0000
    15 C15     26.7445   1.6118 -20.5695   C.2       1 RES1   0.0000
    16 C16     25.4364   1.1138 -20.5577   C.2       1 RES1   0.0000
    17 C17     24.5065   1.4692 -19.5537   C.2       1 RES1   0.0000
    18 C18     23.2244   0.9477 -19.5121   C.2       1 RES1   0.0000
    19 N19     22.1237   1.7438 -19.5823   N.2       1 RES1   0.0000
    20 C20     21.0563   0.9992 -19.6054   C.2       1 RES1   0.0000
    21 S21     19.4262   1.6667 -19.6819   S.3       1 RES1   0.0000
    22 C22     18.3957   0.2299 -19.6877   C.3       1 RES1   0.0000
    23 N23     21.4290  -0.2843 -19.5695   N.2       1 RES1   0.0000
    24 C24     22.7569  -0.3517 -19.5091   C.2       1 RES1   0.0000
    25 C25     23.3859  -1.5779 -19.4186   C.2       1 RES1   0.0000
    26 C26     24.5479  -1.9312 -20.1368   C.2       1 RES1   0.0000
    27 C27     25.1847  -3.1889 -19.9978   C.2       1 RES1   0.0000
    28 C28     24.6504  -4.1383 -19.1468   C.2       1 RES1   0.0000
    29 F29     25.2245  -5.4026 -19.0076   F         1 RES1   0.0000
    30 C30     23.4814  -3.8049 -18.4428   C.2       1 RES1   0.0000
    31 C31     22.8472  -2.5686 -18.5567   C.2       1 RES1   0.0000
    32 C32     25.0165   2.2586 -18.5060   C.2       1 RES1   0.0000
    33 C33     26.3066   2.7247 -18.4928   C.2       1 RES1   0.0000
    34 N34     27.2003   2.3805 -19.5399   N.2       1 RES1   0.0000
    35 C35     30.5809   2.7794 -25.4562   C.2       1 RES1   0.0000
@<TRIPOS>BOND
     1     1     2    1
     2     2     3    1
     3     3     4    2
     4     4     5    1
     5     5     6    2
     6     6     7    1
     7     7     8    1
     8     6     9    1
     9     9    10    1
    10    10    11    1
    11    11    12    1
    12    12    13    2
    13    12    14   am
    14    14    15    1
    15    15    16    2
    16    16    17    1
    17    17    18    1
    18    18    19    1
    19    19    20    2
    20    20    21    1
    21    21    22    1
    22    20    23    1
    23    23    24    1
    24    24    25    1
    25    25    26    2
    26    26    27    1
    27    27    28    2
    28    28    29    1
    29    28    30    1
    30    30    31    2
    31    17    32    2
    32    32    33    1
    33    33    34    2
    34     9    35    2
    35    35     3    1
    36    34    15    1
    37    24    18    2
    38    31    25    1
@<TRIPOS>SUBSTRUCTURE
     1 RES1        1 GROUP             0 ****  ****    0  
@<TRIPOS>MOLECULE
ligand_89
    35    38     1     0     0
SMALL
NO_CHARGES
****
Generated from the CSD

@<TRIPOS>ATOM
     1 C1      31.6286   5.3208 -25.0329   C.3       1 RES1   0.0000
     2 O2      32.3785   4.2776 -25.7892   O.3       1 RES1   0.0000
     3 C3      31.8505   3.0175 -25.9827   C.2       1 RES1   0.0000
     4 C4      32.5188   1.9810 -26.6932   C.2       1 RES1   0.0000
     5 C5      31.8660   0.7563 -26.8245   C.2       1 RES1   0.0000
     6 C6      30.5787   0.5269 -26.2498   C.2       1 RES1   0.0000
     7 O7      29.9656  -0.7011 -26.3688   O.3       1 RES1   0.0000
     8 C8      30.7229  -1.7206 -27.0833   C.3       1 RES1   0.0000
     9 C9      29.8923   1.5618 -25.5604   C.2       1 RES1   0.0000
    10 C10     28.5925   1.5328 -24.9052   C.3       1 RES1   0.0000
    11 C11     28.8063   0.8480 -23.5419   C.3       1 RES1   0.0000
    12 C12     27.5674   0.6872 -22.6333   C.2       1 RES1   0.0000
    13 O13     26.5680   0.1346 -23.0250   O.2       1 RES1   0.0000
    14 N14     27.6988   1.3868 -21.5011   N.am      1 RES1   0.0000
    15 C15     26.7445   1.6118 -20.5695   C.2       1 RES1   0.0000
    16 C16     25.4364   1.1138 -20.5577   C.2       1 RES1   0.0000
    17 C17     24.5065   1.4692 -19.5537   C.2       1 RES1   0.0000
    18 C18     23.2244   0.9477 -19.5121   C.2       1 RES1   0.0000
    19 N19     22.1237   1.7438 -19.5823   N.2       1 RES1   0.0000
    20 C20     21.0563   0.9992 -19.6054   C.2       1 RES1   0.0000
    21 S21     19.4262   1.6667 -19.6819   S.3       1 RES1   0.0000
    22 C22     18.3957   0.2299 -19.6877   C.3       1 RES1   0.0000
    23 N23     21.4290  -0.2843 -19.5695   N.2       1 RES1   0.0000
    24 C24     22.7569  -0.3517 -19.5091   C.2       1 RES1   0.0000
    25 C25     23.3859  -1.5779 -19.4186   C.2       1 RES1   0.0000
    26 C26     24.5478  -1.9312 -20.1369   C.2       1 RES1   0.0000
    27 C27     25.1847  -3.1889 -19.9978   C.2       1 RES1   0.0000
    28 C28     24.6504  -4.1383 -19.1468   C.2       1 RES1   0.0000
    29 F29     25.2245  -5.4026 -19.0076   F         1 RES1   0.0000
    30 C30     23.4814  -3.8049 -18.4428   C.2       1 RES1   0.0000
    31 C31     22.8472  -2.5686 -18.5567   C.2       1 RES1   0.0000
    32 C32     25.0165   2.2586 -18.5060   C.2       1 RES1   0.0000
    33 C33     26.3066   2.7247 -18.4928   C.2       1 RES1   0.0000
    34 N34     27.2003   2.3805 -19.5399   N.2       1 RES1   0.0000
    35 C35     30.5809   2.7794 -25.4562   C.2       1 RES1   0.0000
@<TRIPOS>BOND
     1     1     2    1
     2     2     3    1
     3     3     4    2
     4     4     5    1
     5     5     6    2
     6     6     7    1
     7     7     8    1
     8     6     9    1
     9     9    10    1
    10    10    11    1
    11    11    12    1
    12    12    13    2
    13    12    14   am
    14    14    15    1
    15    15    16    2
    16    16    17    1
    17    17    18    1
    18    18    19    1
    19    19    20    2
    20    20    21    1
    21    21    22    1
    22    20    23    1
    23    23    24    1
    24    24    25    1
    25    25    26    2
    26    26    27    1
    27    27    28    2
    28    28    29    1
    29    28    30    1
    30    30    31    2
    31    17    32    2
    32    32    33    1
    33    33    34    2
    34     9    35    2
    35    35     3    1
    36    34    15    1
    37    24    18    2
    38    31    25    1
@<TRIPOS>SUBSTRUCTURE
     1 RES1        1 GROUP             0 ****  ****    0  
@<TRIPOS>MOLECULE
ligand_90
    35    38     1     0     0
SMALL
NO_CHARGES
****
Generated from the CSD

@<TRIPOS>ATOM
     1 C1      32.4088  -0.7596 -29.1677   C.3       1 RES1   0.0000
     2 O2      31.2204  -0.5224 -28.2992   O.3       1 RES1   0.0000
     3 C3      31.2193   0.4764 -27.3472   C.2       1 RES1   0.0000
     4 C4      32.3209   1.3469 -27.1138   C.2       1 RES1   0.0000
     5 C5      32.1906   2.3074 -26.1119   C.2       1 RES1   0.0000
     6 C6      30.9883   2.4411 -25.3525   C.2       1 RES1   0.0000
     7 O7      30.8729   3.4166 -24.3866   O.3       1 RES1   0.0000
     8 C8      32.0295   4.2881 -24.2253   C.3       1 RES1   0.0000
     9 C9      29.8923   1.5618 -25.5604   C.2       1 RES1   0.0000
    10 C10     28.5925   1.5328 -24.9052   C.3       1 RES1   0.0000
    11 C11     28.8063   0.8480 -23.5419   C.3       1 RES1   0.0000
    12 C12     27.5674   0.6872 -22.6333   C.2       1 RES1   0.0000
    13 O13     26.5680   0.1346 -23.0250   O.2       1 RES1   0.0000
    14 N14     27.6988   1.3868 -21.5011   N.am      1 RES1   0.0000
    15 C15     26.7445   1.6118 -20.5695   C.2       1 RES1   0.0000
    16 C16     25.4364   1.1138 -20.5577   C.2       1 RES1   0.0000
    17 C17     24.5065   1.4692 -19.5537   C.2       1 RES1   0.0000
    18 C18     23.2244   0.9477 -19.5121   C.2       1 RES1   0.0000
    19 N19     22.1237   1.7438 -19.5823   N.2       1 RES1   0.0000
    20 C20     21.0563   0.9992 -19.6054   C.2       1 RES1   0.0000
    21 S21     19.4262   1.6667 -19.6819   S.3       1 RES1   0.0000
    22 C22     18.3957   0.2299 -19.6877   C.3       1 RES1   0.0000
    23 N23     21.4290  -0.2843 -19.5695   N.2       1 RES1   0.0000
    24 C24     22.7569  -0.3517 -19.5091   C.2       1 RES1   0.0000
    25 C25     23.3859  -1.5779 -19.4186   C.2       1 RES1   0.0000
    26 C26     24.5479  -1.9312 -20.1368   C.2       1 RES1   0.0000
    27 C27     25.1847  -3.1889 -19.9978   C.2       1 RES1   0.0000
    28 C28     24.6504  -4.1383 -19.1468   C.2       1 RES1   0.0000
    29 F29     25.2245  -5.4026 -19.0076   F         1 RES1   0.0000
    30 C30     23.4814  -3.8049 -18.4428   C.2       1 RES1   0.0000
    31 C31     22.8472  -2.5686 -18.5567   C.2       1 RES1   0.0000
    32 C32     25.0165   2.2586 -18.5060   C.2       1 RES1   0.0000
    33 C33     26.3066   2.7247 -18.4928   C.2       1 RES1   0.0000
    34 N34     27.2003   2.3805 -19.5399   N.2       1 RES1   0.0000
    35 C35     30.0666   0.6065 -26.5726   C.2       1 RES1   0.0000
@<TRIPOS>BOND
     1     1     2    1
     2     2     3    1
     3     3     4    2
     4     4     5    1
     5     5     6    2
     6     6     7    1
     7     7     8    1
     8     6     9    1
     9     9    10    1
    10    10    11    1
    11    11    12    1
    12    12    13    2
    13    12    14   am
    14    14    15    1
    15    15    16    2
    16    16    17    1
    17    17    18    1
    18    18    19    1
    19    19    20    2
    20    20    21    1
    21    21    22    1
    22    20    23    1
    23    23    24    1
    24    24    25    1
    25    25    26    2
    26    26    27    1
    27    27    28    2
    28    28    29    1
    29    28    30    1
    30    30    31    2
    31    17    32    2
    32    32    33    1
    33    33    34    2
    34     9    35    2
    35    35     3    1
    36    34    15    1
    37    24    18    2
    38    31    25    1
@<TRIPOS>SUBSTRUCTURE
     1 RES1        1 GROUP             0 ****  ****    0  
@<TRIPOS>MOLECULE
ligand_91
    35    38     1     0     0
SMALL
NO_CHARGES
****
Generated from the CSD

@<TRIPOS>ATOM
     1 C1      30.0324  -1.4011 -28.4971   C.3       1 RES1   0.0000
     2 O2      31.2204  -0.5224 -28.2992   O.3       1 RES1   0.0000
     3 C3      31.2193   0.4764 -27.3472   C.2       1 RES1   0.0000
     4 C4      32.3209   1.3469 -27.1138   C.2       1 RES1   0.0000
     5 C5      32.1906   2.3074 -26.1119   C.2       1 RES1   0.0000
     6 C6      30.9883   2.4411 -25.3525   C.2       1 RES1   0.0000
     7 O7      30.8729   3.4166 -24.3866   O.3       1 RES1   0.0000
     8 C8      32.0295   4.2881 -24.2253   C.3       1 RES1   0.0000
     9 C9      29.8923   1.5618 -25.5604   C.2       1 RES1   0.0000
    10 C10     28.5925   1.5328 -24.9052   C.3       1 RES1   0.0000
    11 C11     28.8063   0.8480 -23.5419   C.3       1 RES1   0.0000
    12 C12     27.5674   0.6872 -22.6333   C.2       1 RES1   0.0000
    13 O13     26.5680   0.1346 -23.0250   O.2       1 RES1   0.0000
    14 N14     27.6988   1.3868 -21.5011   N.am      1 RES1   0.0000
    15 C15     26.7445   1.6118 -20.5695   C.2       1 RES1   0.0000
    16 C16     25.4364   1.1138 -20.5577   C.2       1 RES1   0.0000
    17 C17     24.5065   1.4692 -19.5537   C.2       1 RES1   0.0000
    18 C18     23.2244   0.9477 -19.5121   C.2       1 RES1   0.0000
    19 N19     22.1237   1.7438 -19.5823   N.2       1 RES1   0.0000
    20 C20     21.0563   0.9992 -19.6054   C.2       1 RES1   0.0000
    21 S21     19.4262   1.6667 -19.6819   S.3       1 RES1   0.0000
    22 C22     18.3957   0.2299 -19.6877   C.3       1 RES1   0.0000
    23 N23     21.4290  -0.2843 -19.5695   N.2       1 RES1   0.0000
    24 C24     22.7569  -0.3517 -19.5091   C.2       1 RES1   0.0000
    25 C25     23.3859  -1.5779 -19.4186   C.2       1 RES1   0.0000
    26 C26     24.5478  -1.9312 -20.1369   C.2       1 RES1   0.0000
    27 C27     25.1847  -3.1889 -19.9978   C.2       1 RES1   0.0000
    28 C28     24.6504  -4.1383 -19.1468   C.2       1 RES1   0.0000
    29 F29     25.2245  -5.4026 -19.0076   F         1 RES1   0.0000
    30 C30     23.4814  -3.8049 -18.4428   C.2       1 RES1   0.0000
    31 C31     22.8472  -2.5686 -18.5567   C.2       1 RES1   0.0000
    32 C32     25.0165   2.2586 -18.5060   C.2       1 RES1   0.0000
    33 C33     26.3066   2.7247 -18.4928   C.2       1 RES1   0.0000
    34 N34     27.2003   2.3805 -19.5399   N.2       1 RES1   0.0000
    35 C35     30.0666   0.6065 -26.5726   C.2       1 RES1   0.0000
@<TRIPOS>BOND
     1     1     2    1
     2     2     3    1
     3     3     4    2
     4     4     5    1
     5     5     6    2
     6     6     7    1
     7     7     8    1
     8     6     9    1
     9     9    10    1
    10    10    11    1
    11    11    12    1
    12    12    13    2
    13    12    14   am
    14    14    15    1
    15    15    16    2
    16    16    17    1
    17    17    18    1
    18    18    19    1
    19    19    20    2
    20    20    21    1
    21    21    22    1
    22    20    23    1
    23    23    24    1
    24    24    25    1
    25    25    26    2
    26    26    27    1
    27    27    28    2
    28    28    29    1
    29    28    30    1
    30    30    31    2
    31    17    32    2
    32    32    33    1
    33    33    34    2
    34     9    35    2
    35    35     3    1
    36    34    15    1
    37    24    18    2
    38    31    25    1
@<TRIPOS>SUBSTRUCTURE
     1 RES1        1 GROUP             0 ****  ****    0  
@<TRIPOS>MOLECULE
ligand_92
    35    38     1     0     0
SMALL
NO_CHARGES
****
Generated from the CSD

@<TRIPOS>ATOM
     1 C1      31.7385   0.9984 -29.6799   C.3       1 RES1   0.0000
     2 O2      30.8048   0.5889 -28.5921   O.3       1 RES1   0.0000
     3 C3      31.2248   0.5175 -27.2796   C.2       1 RES1   0.0000
     4 C4      32.5497   0.8194 -26.8562   C.2       1 RES1   0.0000
     5 C5      32.8434   0.6956 -25.4991   C.2       1 RES1   0.0000
     6 C6      31.8514   0.3025 -24.5496   C.2       1 RES1   0.0000
     7 O7      32.1584   0.2144 -23.2094   O.3       1 RES1   0.0000
     8 C8      33.5253   0.5672 -22.8482   C.3       1 RES1   0.0000
     9 C9      30.5331  -0.0251 -24.9646   C.2       1 RES1   0.0000
    10 C10     29.3875  -0.4373 -24.1663   C.3       1 RES1   0.0000
    11 C11     28.8077   0.8454 -23.5404   C.3       1 RES1   0.0000
    12 C12     27.5674   0.6872 -22.6333   C.2       1 RES1   0.0000
    13 O13     26.5674   0.1364 -23.0261   O.2       1 RES1   0.0000
    14 N14     27.6988   1.3868 -21.5011   N.am      1 RES1   0.0000
    15 C15     26.7445   1.6118 -20.5695   C.2       1 RES1   0.0000
    16 C16     25.4365   1.1135 -20.5575   C.2       1 RES1   0.0000
    17 C17     24.5066   1.4689 -19.5536   C.2       1 RES1   0.0000
    18 C18     23.2246   0.9471 -19.5118   C.2       1 RES1   0.0000
    19 N19     22.1237   1.7431 -19.5821   N.2       1 RES1   0.0000
    20 C20     21.0565   0.9982 -19.6049   C.2       1 RES1   0.0000
    21 S21     19.4262   1.6653 -19.6815   S.3       1 RES1   0.0000
    22 C22     18.3961   0.2283 -19.6869   C.3       1 RES1   0.0000
    23 N23     21.4294  -0.2852 -19.5688   N.2       1 RES1   0.0000
    24 C24     22.7574  -0.3523 -19.5085   C.2       1 RES1   0.0000
    25 C25     23.3866  -1.5784 -19.4177   C.2       1 RES1   0.0000
    26 C26     24.5486  -1.9316 -20.1360   C.2       1 RES1   0.0000
    27 C27     25.1857  -3.1892 -19.9967   C.2       1 RES1   0.0000
    28 C28     24.6517  -4.1384 -19.1454   C.2       1 RES1   0.0000
    29 F29     25.2261  -5.4026 -19.0060   F         1 RES1   0.0000
    30 C30     23.4827  -3.8051 -18.4414   C.2       1 RES1   0.0000
    31 C31     22.8482  -2.5690 -18.5556   C.2       1 RES1   0.0000
    32 C32     25.0165   2.2587 -18.5061   C.2       1 RES1   0.0000
    33 C33     26.3065   2.7251 -18.4930   C.2       1 RES1   0.0000
    34 N34     27.2002   2.3808 -19.5401   N.2       1 RES1   0.0000
    35 C35     30.2810   0.1066 -26.3382   C.2       1 RES1   0.0000
@<TRIPOS>BOND
     1     1     2    1
     2     2     3    1
     3     3     4    2
     4     4     5    1
     5     5     6    2
     6     6     7    1
     7     7     8    1
     8     6     9    1
     9     9    10    1
    10    10    11    1
    11    11    12    1
    12    12    13    2
    13    12    14   am
    14    14    15    1
    15    15    16    2
    16    16    17    1
    17    17    18    1
    18    18    19    1
    19    19    20    2
    20    20    21    1
    21    21    22    1
    22    20    23    1
    23    23    24    1
    24    24    25    1
    25    25    26    2
    26    26    27    1
    27    27    28    2
    28    28    29    1
    29    28    30    1
    30    30    31    2
    31    17    32    2
    32    32    33    1
    33    33    34    2
    34     9    35    2
    35    35     3    1
    36    34    15    1
    37    24    18    2
    38    31    25    1
@<TRIPOS>SUBSTRUCTURE
     1 RES1        1 GROUP             0 ****  ****    0  
@<TRIPOS>MOLECULE
ligand_93
    35    38     1     0     0
SMALL
NO_CHARGES
****
Generated from the CSD

@<TRIPOS>ATOM
     1 C1      29.4009   0.2615 -28.9720   C.3       1 RES1   0.0000
     2 O2      30.8048   0.5889 -28.5921   O.3       1 RES1   0.0000
     3 C3      31.2248   0.5175 -27.2796   C.2       1 RES1   0.0000
     4 C4      32.5497   0.8195 -26.8562   C.2       1 RES1   0.0000
     5 C5      32.8434   0.6956 -25.4991   C.2       1 RES1   0.0000
     6 C6      31.8514   0.3025 -24.5496   C.2       1 RES1   0.0000
     7 O7      32.1584   0.2144 -23.2094   O.3       1 RES1   0.0000
     8 C8      33.5253   0.5672 -22.8482   C.3       1 RES1   0.0000
     9 C9      30.5331  -0.0251 -24.9646   C.2       1 RES1   0.0000
    10 C10     29.3875  -0.4373 -24.1663   C.3       1 RES1   0.0000
    11 C11     28.8077   0.8454 -23.5404   C.3       1 RES1   0.0000
    12 C12     27.5674   0.6872 -22.6333   C.2       1 RES1   0.0000
    13 O13     26.5674   0.1364 -23.0261   O.2       1 RES1   0.0000
    14 N14     27.6988   1.3868 -21.5011   N.am      1 RES1   0.0000
    15 C15     26.7445   1.6118 -20.5695   C.2       1 RES1   0.0000
    16 C16     25.4365   1.1135 -20.5575   C.2       1 RES1   0.0000
    17 C17     24.5066   1.4689 -19.5536   C.2       1 RES1   0.0000
    18 C18     23.2245   0.9471 -19.5118   C.2       1 RES1   0.0000
    19 N19     22.1237   1.7431 -19.5821   N.2       1 RES1   0.0000
    20 C20     21.0565   0.9982 -19.6049   C.2       1 RES1   0.0000
    21 S21     19.4262   1.6653 -19.6815   S.3       1 RES1   0.0000
    22 C22     18.3961   0.2283 -19.6869   C.3       1 RES1   0.0000
    23 N23     21.4294  -0.2852 -19.5689   N.2       1 RES1   0.0000
    24 C24     22.7574  -0.3523 -19.5085   C.2       1 RES1   0.0000
    25 C25     23.3866  -1.5784 -19.4178   C.2       1 RES1   0.0000
    26 C26     24.5486  -1.9316 -20.1360   C.2       1 RES1   0.0000
    27 C27     25.1857  -3.1892 -19.9967   C.2       1 RES1   0.0000
    28 C28     24.6517  -4.1384 -19.1454   C.2       1 RES1   0.0000
    29 F29     25.2260  -5.4026 -19.0060   F         1 RES1   0.0000
    30 C30     23.4827  -3.8051 -18.4414   C.2       1 RES1   0.0000
    31 C31     22.8482  -2.5690 -18.5556   C.2       1 RES1   0.0000
    32 C32     25.0165   2.2587 -18.5061   C.2       1 RES1   0.0000
    33 C33     26.3065   2.7251 -18.4930   C.2       1 RES1   0.0000
    34 N34     27.2002   2.3808 -19.5401   N.2       1 RES1   0.0000
    35 C35     30.2810   0.1066 -26.3382   C.2       1 RES1   0.0000
@<TRIPOS>BOND
     1     1     2    1
     2     2     3    1
     3     3     4    2
     4     4     5    1
     5     5     6    2
     6     6     7    1
     7     7     8    1
     8     6     9    1
     9     9    10    1
    10    10    11    1
    11    11    12    1
    12    12    13    2
    13    12    14   am
    14    14    15    1
    15    15    16    2
    16    16    17    1
    17    17    18    1
    18    18    19    1
    19    19    20    2
    20    20    21    1
    21    21    22    1
    22    20    23    1
    23    23    24    1
    24    24    25    1
    25    25    26    2
    26    26    27    1
    27    27    28    2
    28    28    29    1
    29    28    30    1
    30    30    31    2
    31    17    32    2
    32    32    33    1
    33    33    34    2
    34     9    35    2
    35    35     3    1
    36    34    15    1
    37    24    18    2
    38    31    25    1
@<TRIPOS>SUBSTRUCTURE
     1 RES1        1 GROUP             0 ****  ****    0  
@<TRIPOS>MOLECULE
ligand_94
    35    38     1     0     0
SMALL
NO_CHARGES
****
Generated from the CSD

@<TRIPOS>ATOM
     1 C1      35.5040  -0.0298 -24.8075   C.3       1 RES1   0.0000
     2 O2      34.1440  -0.3109 -24.2652   O.3       1 RES1   0.0000
     3 C3      33.0091   0.0051 -24.9837   C.2       1 RES1   0.0000
     4 C4      33.0322   0.6108 -26.2715   C.2       1 RES1   0.0000
     5 C5      31.8102   0.8870 -26.8829   C.2       1 RES1   0.0000
     6 C6      30.5680   0.5568 -26.2599   C.2       1 RES1   0.0000
     7 O7      29.3734   0.8138 -26.8962   O.3       1 RES1   0.0000
     8 C8      29.4774   1.4072 -28.2230   C.3       1 RES1   0.0000
     9 C9      30.5331  -0.0251 -24.9646   C.2       1 RES1   0.0000
    10 C10     29.3875  -0.4373 -24.1663   C.3       1 RES1   0.0000
    11 C11     28.8077   0.8454 -23.5404   C.3       1 RES1   0.0000
    12 C12     27.5674   0.6872 -22.6333   C.2       1 RES1   0.0000
    13 O13     26.5674   0.1364 -23.0261   O.2       1 RES1   0.0000
    14 N14     27.6988   1.3868 -21.5011   N.am      1 RES1   0.0000
    15 C15     26.7445   1.6118 -20.5695   C.2       1 RES1   0.0000
    16 C16     25.4365   1.1135 -20.5575   C.2       1 RES1   0.0000
    17 C17     24.5066   1.4689 -19.5536   C.2       1 RES1   0.0000
    18 C18     23.2246   0.9471 -19.5118   C.2       1 RES1   0.0000
    19 N19     22.1237   1.7431 -19.5821   N.2       1 RES1   0.0000
    20 C20     21.0565   0.9982 -19.6049   C.2       1 RES1   0.0000
    21 S21     19.4262   1.6653 -19.6815   S.3       1 RES1   0.0000
    22 C22     18.3961   0.2283 -19.6869   C.3       1 RES1   0.0000
    23 N23     21.4294  -0.2852 -19.5688   N.2       1 RES1   0.0000
    24 C24     22.7574  -0.3523 -19.5085   C.2       1 RES1   0.0000
    25 C25     23.3866  -1.5784 -19.4177   C.2       1 RES1   0.0000
    26 C26     24.5486  -1.9316 -20.1360   C.2       1 RES1   0.0000
    27 C27     25.1857  -3.1892 -19.9967   C.2       1 RES1   0.0000
    28 C28     24.6517  -4.1384 -19.1454   C.2       1 RES1   0.0000
    29 F29     25.2261  -5.4026 -19.0060   F         1 RES1   0.0000
    30 C30     23.4827  -3.8051 -18.4414   C.2       1 RES1   0.0000
    31 C31     22.8482  -2.5690 -18.5556   C.2       1 RES1   0.0000
    32 C32     25.0165   2.2587 -18.5061   C.2       1 RES1   0.0000
    33 C33     26.3065   2.7251 -18.4930   C.2       1 RES1   0.0000
    34 N34     27.2002   2.3808 -19.5401   N.2       1 RES1   0.0000
    35 C35     31.7834  -0.2807 -24.3824   C.2       1 RES1   0.0000
@<TRIPOS>BOND
     1     1     2    1
     2     2     3    1
     3     3     4    2
     4     4     5    1
     5     5     6    2
     6     6     7    1
     7     7     8    1
     8     6     9    1
     9     9    10    1
    10    10    11    1
    11    11    12    1
    12    12    13    2
    13    12    14   am
    14    14    15    1
    15    15    16    2
    16    16    17    1
    17    17    18    1
    18    18    19    1
    19    19    20    2
    20    20    21    1
    21    21    22    1
    22    20    23    1
    23    23    24    1
    24    24    25    1
    25    25    26    2
    26    26    27    1
    27    27    28    2
    28    28    29    1
    29    28    30    1
    30    30    31    2
    31    17    32    2
    32    32    33    1
    33    33    34    2
    34     9    35    2
    35    35     3    1
    36    34    15    1
    37    24    18    2
    38    31    25    1
@<TRIPOS>SUBSTRUCTURE
     1 RES1        1 GROUP             0 ****  ****    0  
@<TRIPOS>MOLECULE
ligand_95
    35    38     1     0     0
SMALL
NO_CHARGES
****
Generated from the CSD

@<TRIPOS>ATOM
     1 C1      34.0534  -0.9473 -22.9201   C.3       1 RES1   0.0000
     2 O2      34.1440  -0.3109 -24.2652   O.3       1 RES1   0.0000
     3 C3      33.0091   0.0051 -24.9837   C.2       1 RES1   0.0000
     4 C4      33.0322   0.6108 -26.2715   C.2       1 RES1   0.0000
     5 C5      31.8102   0.8870 -26.8829   C.2       1 RES1   0.0000
     6 C6      30.5680   0.5568 -26.2599   C.2       1 RES1   0.0000
     7 O7      29.3734   0.8138 -26.8962   O.3       1 RES1   0.0000
     8 C8      29.4774   1.4072 -28.2230   C.3       1 RES1   0.0000
     9 C9      30.5331  -0.0251 -24.9646   C.2       1 RES1   0.0000
    10 C10     29.3875  -0.4373 -24.1663   C.3       1 RES1   0.0000
    11 C11     28.8077   0.8454 -23.5404   C.3       1 RES1   0.0000
    12 C12     27.5674   0.6872 -22.6333   C.2       1 RES1   0.0000
    13 O13     26.5674   0.1364 -23.0261   O.2       1 RES1   0.0000
    14 N14     27.6988   1.3868 -21.5011   N.am      1 RES1   0.0000
    15 C15     26.7445   1.6118 -20.5695   C.2       1 RES1   0.0000
    16 C16     25.4365   1.1135 -20.5575   C.2       1 RES1   0.0000
    17 C17     24.5066   1.4689 -19.5536   C.2       1 RES1   0.0000
    18 C18     23.2245   0.9471 -19.5118   C.2       1 RES1   0.0000
    19 N19     22.1237   1.7431 -19.5821   N.2       1 RES1   0.0000
    20 C20     21.0565   0.9982 -19.6049   C.2       1 RES1   0.0000
    21 S21     19.4262   1.6653 -19.6815   S.3       1 RES1   0.0000
    22 C22     18.3961   0.2283 -19.6869   C.3       1 RES1   0.0000
    23 N23     21.4294  -0.2852 -19.5689   N.2       1 RES1   0.0000
    24 C24     22.7574  -0.3523 -19.5085   C.2       1 RES1   0.0000
    25 C25     23.3866  -1.5784 -19.4178   C.2       1 RES1   0.0000
    26 C26     24.5486  -1.9316 -20.1360   C.2       1 RES1   0.0000
    27 C27     25.1857  -3.1892 -19.9967   C.2       1 RES1   0.0000
    28 C28     24.6517  -4.1384 -19.1454   C.2       1 RES1   0.0000
    29 F29     25.2260  -5.4026 -19.0060   F         1 RES1   0.0000
    30 C30     23.4827  -3.8051 -18.4414   C.2       1 RES1   0.0000
    31 C31     22.8482  -2.5690 -18.5556   C.2       1 RES1   0.0000
    32 C32     25.0165   2.2587 -18.5061   C.2       1 RES1   0.0000
    33 C33     26.3065   2.7251 -18.4930   C.2       1 RES1   0.0000
    34 N34     27.2002   2.3808 -19.5401   N.2       1 RES1   0.0000
    35 C35     31.7834  -0.2807 -24.3824   C.2       1 RES1   0.0000
@<TRIPOS>BOND
     1     1     2    1
     2     2     3    1
     3     3     4    2
     4     4     5    1
     5     5     6    2
     6     6     7    1
     7     7     8    1
     8     6     9    1
     9     9    10    1
    10    10    11    1
    11    11    12    1
    12    12    13    2
    13    12    14   am
    14    14    15    1
    15    15    16    2
    16    16    17    1
    17    17    18    1
    18    18    19    1
    19    19    20    2
    20    20    21    1
    21    21    22    1
    22    20    23    1
    23    23    24    1
    24    24    25    1
    25    25    26    2
    26    26    27    1
    27    27    28    2
    28    28    29    1
    29    28    30    1
    30    30    31    2
    31    17    32    2
    32    32    33    1
    33    33    34    2
    34     9    35    2
    35    35     3    1
    36    34    15    1
    37    24    18    2
    38    31    25    1
@<TRIPOS>SUBSTRUCTURE
     1 RES1        1 GROUP             0 ****  ****    0  
@<TRIPOS>MOLECULE
ligand_96
    35    38     1     0     0
SMALL
NO_CHARGES
****
Generated from the CSD

@<TRIPOS>ATOM
     1 C1      27.7315  -5.0984  -8.1883   C.3       1 RES1   0.0000
     2 O2      27.3230  -4.3455  -9.4085   O.3       1 RES1   0.0000
     3 C3      27.7295  -4.7464 -10.6647   C.2       1 RES1   0.0000
     4 C4      28.5525  -5.8828 -10.9039   C.2       1 RES1   0.0000
     5 C5      28.8988  -6.1696 -12.2234   C.2       1 RES1   0.0000
     6 C6      28.4310  -5.3721 -13.3121   C.2       1 RES1   0.0000
     7 O7      28.7635  -5.6920 -14.6102   O.3       1 RES1   0.0000
     8 C8      29.5834  -6.8848 -14.7784   C.3       1 RES1   0.0000
     9 C9      27.6298  -4.2218 -13.0827   C.2       1 RES1   0.0000
    10 C10     27.0531  -3.2901 -14.0413   C.3       1 RES1   0.0000
    11 C11     25.7988  -3.9757 -14.6156   C.3       1 RES1   0.0000
    12 C12     24.9884  -3.1905 -15.6706   C.2       1 RES1   0.0000
    13 O13     25.5087  -2.7639 -16.6732   O.2       1 RES1   0.0000
    14 N14     23.7591  -2.9052 -15.2282   N.am      1 RES1   0.0000
    15 C15     22.8538  -2.0886 -15.8139   C.2       1 RES1   0.0000
    16 C16     22.9831  -1.4157 -17.0343   C.2       1 RES1   0.0000
    17 C17     21.9856  -0.5377 -17.5172   C.2       1 RES1   0.0000
    18 C18     22.0877   0.0986 -18.7429   C.2       1 RES1   0.0000
    19 N19     21.6667   1.3795 -18.9232   N.2       1 RES1   0.0000
    20 C20     21.9519   1.7582 -20.1355   C.2       1 RES1   0.0000
    21 S21     21.5517   3.3591 -20.7563   S.3       1 RES1   0.0000
    22 C22     20.7583   4.1433 -19.3844   C.3       1 RES1   0.0000
    23 N23     22.5737   0.7542 -20.7624   N.2       1 RES1   0.0000
    24 C24     22.6713  -0.2835 -19.9346   C.2       1 RES1   0.0000
    25 C25     23.2405  -1.4651 -20.3675   C.2       1 RES1   0.0000
    26 C26     24.3730  -1.5428 -21.2054   C.2       1 RES1   0.0000
    27 C27     24.9491  -2.7731 -21.6068   C.2       1 RES1   0.0000
    28 C28     24.3813  -3.9639 -21.1939   C.2       1 RES1   0.0000
    29 F29     24.8944  -5.1978 -21.5957   F         1 RES1   0.0000
    30 C30     23.2405  -3.8983 -20.3767   C.2       1 RES1   0.0000
    31 C31     22.6663  -2.6979 -19.9610   C.2       1 RES1   0.0000
    32 C32     20.8069  -0.4776 -16.7503   C.2       1 RES1   0.0000
    33 C33     20.6586  -1.1590 -15.5690   C.2       1 RES1   0.0000
    34 N34     21.6988  -1.9997 -15.0949   N.2       1 RES1   0.0000
    35 C35     27.3096  -3.9652 -11.7414   C.2       1 RES1   0.0000
@<TRIPOS>BOND
     1     1     2    1
     2     2     3    1
     3     3     4    2
     4     4     5    1
     5     5     6    2
     6     6     7    1
     7     7     8    1
     8     6     9    1
     9     9    10    1
    10    10    11    1
    11    11    12    1
    12    12    13    2
    13    12    14   am
    14    14    15    1
    15    15    16    2
    16    16    17    1
    17    17    18    1
    18    18    19    1
    19    19    20    2
    20    20    21    1
    21    21    22    1
    22    20    23    1
    23    23    24    1
    24    24    25    1
    25    25    26    2
    26    26    27    1
    27    27    28    2
    28    28    29    1
    29    28    30    1
    30    30    31    2
    31    17    32    2
    32    32    33    1
    33    33    34    2
    34     9    35    2
    35    35     3    1
    36    34    15    1
    37    24    18    2
    38    31    25    1
@<TRIPOS>SUBSTRUCTURE
     1 RES1        1 GROUP             0 ****  ****    0  
@<TRIPOS>MOLECULE
ligand_97
    35    38     1     0     0
SMALL
NO_CHARGES
****
Generated from the CSD

@<TRIPOS>ATOM
     1 C1      26.4579  -3.1454  -9.2238   C.3       1 RES1   0.0000
     2 O2      27.3230  -4.3455  -9.4085   O.3       1 RES1   0.0000
     3 C3      27.7295  -4.7464 -10.6647   C.2       1 RES1   0.0000
     4 C4      28.5525  -5.8827 -10.9039   C.2       1 RES1   0.0000
     5 C5      28.8988  -6.1695 -12.2234   C.2       1 RES1   0.0000
     6 C6      28.4310  -5.3721 -13.3121   C.2       1 RES1   0.0000
     7 O7      28.7635  -5.6920 -14.6102   O.3       1 RES1   0.0000
     8 C8      29.5834  -6.8848 -14.7784   C.3       1 RES1   0.0000
     9 C9      27.6299  -4.2218 -13.0827   C.2       1 RES1   0.0000
    10 C10     27.0531  -3.2901 -14.0413   C.3       1 RES1   0.0000
    11 C11     25.7988  -3.9757 -14.6156   C.3       1 RES1   0.0000
    12 C12     24.9884  -3.1905 -15.6706   C.2       1 RES1   0.0000
    13 O13     25.5087  -2.7639 -16.6732   O.2       1 RES1   0.0000
    14 N14     23.7591  -2.9052 -15.2282   N.am      1 RES1   0.0000
    15 C15     22.8538  -2.0886 -15.8139   C.2       1 RES1   0.0000
    16 C16     22.9831  -1.4157 -17.0343   C.2       1 RES1   0.0000
    17 C17     21.9856  -0.5377 -17.5172   C.2       1 RES1   0.0000
    18 C18     22.0877   0.0986 -18.7429   C.2       1 RES1   0.0000
    19 N19     21.6667   1.3795 -18.9232   N.2       1 RES1   0.0000
    20 C20     21.9519   1.7582 -20.1355   C.2       1 RES1   0.0000
    21 S21     21.5517   3.3591 -20.7563   S.3       1 RES1   0.0000
    22 C22     20.7583   4.1433 -19.3844   C.3       1 RES1   0.0000
    23 N23     22.5737   0.7542 -20.7624   N.2       1 RES1   0.0000
    24 C24     22.6713  -0.2835 -19.9346   C.2       1 RES1   0.0000
    25 C25     23.2405  -1.4651 -20.3675   C.2       1 RES1   0.0000
    26 C26     24.3730  -1.5428 -21.2054   C.2       1 RES1   0.0000
    27 C27     24.9491  -2.7731 -21.6068   C.2       1 RES1   0.0000
    28 C28     24.3813  -3.9639 -21.1939   C.2       1 RES1   0.0000
    29 F29     24.8944  -5.1978 -21.5957   F         1 RES1   0.0000
    30 C30     23.2405  -3.8983 -20.3767   C.2       1 RES1   0.0000
    31 C31     22.6663  -2.6979 -19.9610   C.2       1 RES1   0.0000
    32 C32     20.8069  -0.4776 -16.7503   C.2       1 RES1   0.0000
    33 C33     20.6586  -1.1590 -15.5690   C.2       1 RES1   0.0000
    34 N34     21.6988  -1.9997 -15.0949   N.2       1 RES1   0.0000
    35 C35     27.3097  -3.9652 -11.7414   C.2       1 RES1   0.0000
@<TRIPOS>BOND
     1     1     2    1
     2     2     3    1
     3     3     4    2
     4     4     5    1
     5     5     6    2
     6     6     7    1
     7     7     8    1
     8     6     9    1
     9     9    10    1
    10    10    11    1
    11    11    12    1
    12    12    13    2
    13    12    14   am
    14    14    15    1
    15    15    16    2
    16    16    17    1
    17    17    18    1
    18    18    19    1
    19    19    20    2
    20    20    21    1
    21    21    22    1
    22    20    23    1
    23    23    24    1
    24    24    25    1
    25    25    26    2
    26    26    27    1
    27    27    28    2
    28    28    29    1
    29    28    30    1
    30    30    31    2
    31    17    32    2
    32    32    33    1
    33    33    34    2
    34     9    35    2
    35    35     3    1
    36    34    15    1
    37    24    18    2
    38    31    25    1
@<TRIPOS>SUBSTRUCTURE
     1 RES1        1 GROUP             0 ****  ****    0  
@<TRIPOS>MOLECULE
ligand_98
    35    38     1     0     0
SMALL
NO_CHARGES
****
Generated from the CSD

@<TRIPOS>ATOM
     1 C1      31.4121  -7.4238 -12.6629   C.3       1 RES1   0.0000
     2 O2      30.5793  -6.4175 -13.3816   O.3       1 RES1   0.0000
     3 C3      29.4896  -5.8275 -12.7744   C.2       1 RES1   0.0000
     4 C4      29.0729  -6.1171 -11.4447   C.2       1 RES1   0.0000
     5 C5      27.9463  -5.4564 -10.9572   C.2       1 RES1   0.0000
     6 C6      27.2374  -4.4999 -11.7463   C.2       1 RES1   0.0000
     7 O7      26.1433  -3.8388 -11.2326   O.3       1 RES1   0.0000
     8 C8      25.7947  -4.1655  -9.8559   C.3       1 RES1   0.0000
     9 C9      27.6298  -4.2218 -13.0827   C.2       1 RES1   0.0000
    10 C10     27.0531  -3.2901 -14.0413   C.3       1 RES1   0.0000
    11 C11     25.7988  -3.9757 -14.6156   C.3       1 RES1   0.0000
    12 C12     24.9884  -3.1905 -15.6706   C.2       1 RES1   0.0000
    13 O13     25.5087  -2.7639 -16.6732   O.2       1 RES1   0.0000
    14 N14     23.7591  -2.9052 -15.2282   N.am      1 RES1   0.0000
    15 C15     22.8538  -2.0886 -15.8139   C.2       1 RES1   0.0000
    16 C16     22.9831  -1.4157 -17.0343   C.2       1 RES1   0.0000
    17 C17     21.9856  -0.5377 -17.5172   C.2       1 RES1   0.0000
    18 C18     22.0877   0.0986 -18.7429   C.2       1 RES1   0.0000
    19 N19     21.6667   1.3795 -18.9232   N.2       1 RES1   0.0000
    20 C20     21.9519   1.7582 -20.1355   C.2       1 RES1   0.0000
    21 S21     21.5517   3.3591 -20.7563   S.3       1 RES1   0.0000
    22 C22     20.7583   4.1433 -19.3844   C.3       1 RES1   0.0000
    23 N23     22.5737   0.7542 -20.7624   N.2       1 RES1   0.0000
    24 C24     22.6713  -0.2835 -19.9346   C.2       1 RES1   0.0000
    25 C25     23.2405  -1.4651 -20.3675   C.2       1 RES1   0.0000
    26 C26     24.3730  -1.5428 -21.2054   C.2       1 RES1   0.0000
    27 C27     24.9491  -2.7731 -21.6068   C.2       1 RES1   0.0000
    28 C28     24.3813  -3.9639 -21.1939   C.2       1 RES1   0.0000
    29 F29     24.8944  -5.1978 -21.5957   F         1 RES1   0.0000
    30 C30     23.2405  -3.8983 -20.3767   C.2       1 RES1   0.0000
    31 C31     22.6663  -2.6979 -19.9610   C.2       1 RES1   0.0000
    32 C32     20.8069  -0.4776 -16.7503   C.2       1 RES1   0.0000
    33 C33     20.6586  -1.1590 -15.5690   C.2       1 RES1   0.0000
    34 N34     21.6988  -1.9997 -15.0949   N.2       1 RES1   0.0000
    35 C35     28.7636  -4.9119 -13.5364   C.2       1 RES1   0.0000
@<TRIPOS>BOND
     1     1     2    1
     2     2     3    1
     3     3     4    2
     4     4     5    1
     5     5     6    2
     6     6     7    1
     7     7     8    1
     8     6     9    1
     9     9    10    1
    10    10    11    1
    11    11    12    1
    12    12    13    2
    13    12    14   am
    14    14    15    1
    15    15    16    2
    16    16    17    1
    17    17    18    1
    18    18    19    1
    19    19    20    2
    20    20    21    1
    21    21    22    1
    22    20    23    1
    23    23    24    1
    24    24    25    1
    25    25    26    2
    26    26    27    1
    27    27    28    2
    28    28    29    1
    29    28    30    1
    30    30    31    2
    31    17    32    2
    32    32    33    1
    33    33    34    2
    34     9    35    2
    35    35     3    1
    36    34    15    1
    37    24    18    2
    38    31    25    1
@<TRIPOS>SUBSTRUCTURE
     1 RES1        1 GROUP             0 ****  ****    0  
@<TRIPOS>MOLECULE
ligand_99
    35    38     1     0     0
SMALL
NO_CHARGES
****
Generated from the CSD

@<TRIPOS>ATOM
     1 C1      30.9665  -6.0695 -14.7786   C.3       1 RES1   0.0000
     2 O2      30.5793  -6.4175 -13.3816   O.3       1 RES1   0.0000
     3 C3      29.4897  -5.8274 -12.7744   C.2       1 RES1   0.0000
     4 C4      29.0729  -6.1171 -11.4447   C.2       1 RES1   0.0000
     5 C5      27.9463  -5.4564 -10.9572   C.2       1 RES1   0.0000
     6 C6      27.2374  -4.4999 -11.7463   C.2       1 RES1   0.0000
     7 O7      26.1433  -3.8388 -11.2326   O.3       1 RES1   0.0000
     8 C8      25.7948  -4.1654  -9.8559   C.3       1 RES1   0.0000
     9 C9      27.6299  -4.2218 -13.0827   C.2       1 RES1   0.0000
    10 C10     27.0531  -3.2901 -14.0413   C.3       1 RES1   0.0000
    11 C11     25.7988  -3.9757 -14.6156   C.3       1 RES1   0.0000
    12 C12     24.9884  -3.1905 -15.6706   C.2       1 RES1   0.0000
    13 O13     25.5087  -2.7639 -16.6732   O.2       1 RES1   0.0000
    14 N14     23.7591  -2.9052 -15.2282   N.am      1 RES1   0.0000
    15 C15     22.8538  -2.0886 -15.8139   C.2       1 RES1   0.0000
    16 C16     22.9831  -1.4157 -17.0343   C.2       1 RES1   0.0000
    17 C17     21.9856  -0.5377 -17.5172   C.2       1 RES1   0.0000
    18 C18     22.0877   0.0986 -18.7429   C.2       1 RES1   0.0000
    19 N19     21.6667   1.3795 -18.9232   N.2       1 RES1   0.0000
    20 C20     21.9519   1.7582 -20.1355   C.2       1 RES1   0.0000
    21 S21     21.5517   3.3591 -20.7563   S.3       1 RES1   0.0000
    22 C22     20.7583   4.1433 -19.3844   C.3       1 RES1   0.0000
    23 N23     22.5737   0.7542 -20.7624   N.2       1 RES1   0.0000
    24 C24     22.6713  -0.2835 -19.9346   C.2       1 RES1   0.0000
    25 C25     23.2405  -1.4651 -20.3675   C.2       1 RES1   0.0000
    26 C26     24.3730  -1.5428 -21.2054   C.2       1 RES1   0.0000
    27 C27     24.9491  -2.7731 -21.6068   C.2       1 RES1   0.0000
    28 C28     24.3813  -3.9639 -21.1939   C.2       1 RES1   0.0000
    29 F29     24.8944  -5.1978 -21.5957   F         1 RES1   0.0000
    30 C30     23.2405  -3.8983 -20.3767   C.2       1 RES1   0.0000
    31 C31     22.6663  -2.6979 -19.9610   C.2       1 RES1   0.0000
    32 C32     20.8069  -0.4776 -16.7503   C.2       1 RES1   0.0000
    33 C33     20.6586  -1.1590 -15.5690   C.2       1 RES1   0.0000
    34 N34     21.6988  -1.9997 -15.0949   N.2       1 RES1   0.0000
    35 C35     28.7636  -4.9119 -13.5364   C.2       1 RES1   0.0000
@<TRIPOS>BOND
     1     1     2    1
     2     2     3    1
     3     3     4    2
     4     4     5    1
     5     5     6    2
     6     6     7    1
     7     7     8    1
     8     6     9    1
     9     9    10    1
    10    10    11    1
    11    11    12    1
    12    12    13    2
    13    12    14   am
    14    14    15    1
    15    15    16    2
    16    16    17    1
    17    17    18    1
    18    18    19    1
    19    19    20    2
    20    20    21    1
    21    21    22    1
    22    20    23    1
    23    23    24    1
    24    24    25    1
    25    25    26    2
    26    26    27    1
    27    27    28    2
    28    28    29    1
    29    28    30    1
    30    30    31    2
    31    17    32    2
    32    32    33    1
    33    33    34    2
    34     9    35    2
    35    35     3    1
    36    34    15    1
    37    24    18    2
    38    31    25    1
@<TRIPOS>SUBSTRUCTURE
     1 RES1        1 GROUP             0 ****  ****    0  
