@<TRIPOS>MOLECULE
native
    21    22     1     0     0
SMALL
NO_CHARGES
****
Generated from the CSD

@<TRIPOS>ATOM
     1 C1      37.8410 159.4290  -5.4130   C.3       1 RES1   0.0000
     2 O2      37.9140 159.8230  -6.7650   O.3       1 RES1   0.0000
     3 C3      39.1250 160.3720  -7.2430   C.2       1 RES1   0.0000
     4 C4      39.0390 161.2940  -8.2750   C.2       1 RES1   0.0000
     5 C5      40.1810 161.8680  -8.8070   C.2       1 RES1   0.0000
     6 C6      41.4320 161.5260  -8.3200   C.2       1 RES1   0.0000
     7 O7      42.5340 162.1600  -8.9410   O.3       1 RES1   0.0000
     8 C8      43.8130 162.0700  -8.3740   C.3       1 RES1   0.0000
     9 C9      44.8050 162.5880  -9.3970   C.3       1 RES1   0.0000
    10 C10     43.8530 162.8700  -7.0860   C.2       1 RES1   0.0000
    11 O11     43.0550 163.7650  -6.8700   O.2       1 RES1   0.0000
    12 N12     44.8670 162.5110  -6.1670   N.am      1 RES1   0.0000
    13 C13     45.1000 163.0820  -4.8890   C.2       1 RES1   0.0000
    14 C14     45.8470 162.3210  -4.0060   C.2       1 RES1   0.0000
    15 C15     46.1160 162.7910  -2.7370   C.2       1 RES1   0.0000
    16 C16     45.6290 164.0250  -2.3590   C.2       1 RES1   0.0000
    17 I17     46.0480 164.7050  -0.4040   I         1 RES1   0.0000
    18 C18     44.8780 164.7990  -3.2350   C.2       1 RES1   0.0000
    19 C19     44.6110 164.3240  -4.5100   C.2       1 RES1   0.0000
    20 C20     41.5330 160.5890  -7.2890   C.2       1 RES1   0.0000
    21 C21     40.3780 160.0110  -6.7510   C.2       1 RES1   0.0000
@<TRIPOS>BOND
     1     1     2    1
     2     2     3    1
     3     3     4    2
     4     4     5    1
     5     5     6    2
     6     6     7    1
     7     7     8    1
     8     8     9    1
     9     8    10    1
    10    10    11    2
    11    10    12   am
    12    12    13    1
    13    13    14    2
    14    14    15    1
    15    15    16    2
    16    16    17    1
    17    16    18    1
    18    18    19    2
    19     6    20    1
    20    20    21    2
    21    21     3    1
    22    19    13    1
@<TRIPOS>SUBSTRUCTURE
     1 RES1        1 GROUP             0 ****  ****    0  
@<TRIPOS>MOLECULE
ligand_0
    21    22     1     0     0
SMALL
NO_CHARGES
****
Generated from the CSD

@<TRIPOS>ATOM
     1 C1      51.3797 161.5497  -9.3235   C.3       1 RES1   0.0000
     2 O2      50.4960 162.6486  -9.3224   O.3       1 RES1   0.0000
     3 C3      49.1195 162.4068  -9.1147   C.2       1 RES1   0.0000
     4 C4      48.7292 161.0901  -8.9237   C.2       1 RES1   0.0000
     5 C5      47.3969 160.7694  -8.7263   C.2       1 RES1   0.0000
     6 C6      46.4286 161.7601  -8.7218   C.2       1 RES1   0.0000
     7 O7      45.0968 161.3248  -8.5246   O.3       1 RES1   0.0000
     8 C8      44.0463 162.2527  -8.4985   C.3       1 RES1   0.0000
     9 C9      42.7470 161.4763  -8.5881   C.3       1 RES1   0.0000
    10 C10     44.1306 163.0771  -7.2281   C.2       1 RES1   0.0000
    11 O11     43.6053 164.1735  -7.1472   O.2       1 RES1   0.0000
    12 N12     44.8521 162.4939  -6.1600   N.am      1 RES1   0.0000
    13 C13     45.0763 163.0552  -4.8761   C.2       1 RES1   0.0000
    14 C14     45.8192 162.2885  -3.9946   C.2       1 RES1   0.0000
    15 C15     46.0797 162.7490  -2.7203   C.2       1 RES1   0.0000
    16 C16     45.5882 163.9791  -2.3356   C.2       1 RES1   0.0000
    17 I17     45.9941 164.6444  -0.3728   I         1 RES1   0.0000
    18 C18     44.8411 164.7587  -3.2100   C.2       1 RES1   0.0000
    19 C19     44.5827 164.2933  -4.4903   C.2       1 RES1   0.0000
    20 C20     46.8073 163.0890  -8.9256   C.2       1 RES1   0.0000
    21 C21     48.1542 163.4120  -9.1232   C.2       1 RES1   0.0000
@<TRIPOS>BOND
     1     1     2    1
     2     2     3    1
     3     3     4    2
     4     4     5    1
     5     5     6    2
     6     6     7    1
     7     7     8    1
     8     8     9    1
     9     8    10    1
    10    10    11    2
    11    10    12   am
    12    12    13    1
    13    13    14    2
    14    14    15    1
    15    15    16    2
    16    16    17    1
    17    16    18    1
    18    18    19    2
    19     6    20    1
    20    20    21    2
    21    21     3    1
    22    19    13    1
@<TRIPOS>SUBSTRUCTURE
     1 RES1        1 GROUP             0 ****  ****    0  
@<TRIPOS>MOLECULE
ligand_1
    21    22     1     0     0
SMALL
NO_CHARGES
****
Generated from the CSD

@<TRIPOS>ATOM
     1 C1      50.9237 163.9778  -9.5193   C.3       1 RES1   0.0000
     2 O2      50.4960 162.6486  -9.3224   O.3       1 RES1   0.0000
     3 C3      49.1195 162.4068  -9.1147   C.2       1 RES1   0.0000
     4 C4      48.7292 161.0901  -8.9237   C.2       1 RES1   0.0000
     5 C5      47.3969 160.7694  -8.7263   C.2       1 RES1   0.0000
     6 C6      46.4286 161.7601  -8.7218   C.2       1 RES1   0.0000
     7 O7      45.0968 161.3248  -8.5246   O.3       1 RES1   0.0000
     8 C8      44.0463 162.2527  -8.4985   C.3       1 RES1   0.0000
     9 C9      42.7470 161.4763  -8.5881   C.3       1 RES1   0.0000
    10 C10     44.1306 163.0771  -7.2281   C.2       1 RES1   0.0000
    11 O11     43.6053 164.1735  -7.1472   O.2       1 RES1   0.0000
    12 N12     44.8521 162.4939  -6.1600   N.am      1 RES1   0.0000
    13 C13     45.0763 163.0552  -4.8761   C.2       1 RES1   0.0000
    14 C14     45.8192 162.2885  -3.9946   C.2       1 RES1   0.0000
    15 C15     46.0797 162.7490  -2.7203   C.2       1 RES1   0.0000
    16 C16     45.5882 163.9791  -2.3356   C.2       1 RES1   0.0000
    17 I17     45.9941 164.6444  -0.3728   I         1 RES1   0.0000
    18 C18     44.8411 164.7587  -3.2100   C.2       1 RES1   0.0000
    19 C19     44.5827 164.2933  -4.4903   C.2       1 RES1   0.0000
    20 C20     46.8073 163.0890  -8.9256   C.2       1 RES1   0.0000
    21 C21     48.1542 163.4120  -9.1232   C.2       1 RES1   0.0000
@<TRIPOS>BOND
     1     1     2    1
     2     2     3    1
     3     3     4    2
     4     4     5    1
     5     5     6    2
     6     6     7    1
     7     7     8    1
     8     8     9    1
     9     8    10    1
    10    10    11    2
    11    10    12   am
    12    12    13    1
    13    13    14    2
    14    14    15    1
    15    15    16    2
    16    16    17    1
    17    16    18    1
    18    18    19    2
    19     6    20    1
    20    20    21    2
    21    21     3    1
    22    19    13    1
@<TRIPOS>SUBSTRUCTURE
     1 RES1        1 GROUP             0 ****  ****    0  
@<TRIPOS>MOLECULE
ligand_2
    21    22     1     0     0
SMALL
NO_CHARGES
****
Generated from the CSD

@<TRIPOS>ATOM
     1 C1      36.7064 161.2982  -8.0852   C.3       1 RES1   0.0000
     2 O2      37.7891 160.9300  -7.2602   O.3       1 RES1   0.0000
     3 C3      39.0940 161.3025  -7.6536   C.2       1 RES1   0.0000
     4 C4      39.2203 162.0131  -8.8375   C.2       1 RES1   0.0000
     5 C5      40.4661 162.4039  -9.2979   C.2       1 RES1   0.0000
     6 C6      41.6105 162.0862  -8.5848   C.2       1 RES1   0.0000
     7 O7      42.8333 162.5211  -9.1483   O.3       1 RES1   0.0000
     8 C8      44.0463 162.2527  -8.4985   C.3       1 RES1   0.0000
     9 C9      45.1658 162.5539  -9.4757   C.3       1 RES1   0.0000
    10 C10     44.1447 163.0965  -7.2420   C.2       1 RES1   0.0000
    11 O11     43.6248 164.1963  -7.1739   O.2       1 RES1   0.0000
    12 N12     44.8725 162.5269  -6.1708   N.am      1 RES1   0.0000
    13 C13     45.1098 163.1072  -4.8978   C.2       1 RES1   0.0000
    14 C14     45.8568 162.3511  -4.0105   C.2       1 RES1   0.0000
    15 C15     46.1298 162.8303  -2.7458   C.2       1 RES1   0.0000
    16 C16     45.6468 164.0684  -2.3763   C.2       1 RES1   0.0000
    17 I17     46.0719 164.7625  -0.4276   I         1 RES1   0.0000
    18 C18     44.8958 164.8375  -3.2567   C.2       1 RES1   0.0000
    19 C19     44.6248 164.3533  -4.5273   C.2       1 RES1   0.0000
    20 C20     41.4979 161.3598  -7.3970   C.2       1 RES1   0.0000
    21 C21     40.2381 160.9670  -6.9319   C.2       1 RES1   0.0000
@<TRIPOS>BOND
     1     1     2    1
     2     2     3    1
     3     3     4    2
     4     4     5    1
     5     5     6    2
     6     6     7    1
     7     7     8    1
     8     8     9    1
     9     8    10    1
    10    10    11    2
    11    10    12   am
    12    12    13    1
    13    13    14    2
    14    14    15    1
    15    15    16    2
    16    16    17    1
    17    16    18    1
    18    18    19    2
    19     6    20    1
    20    20    21    2
    21    21     3    1
    22    19    13    1
@<TRIPOS>SUBSTRUCTURE
     1 RES1        1 GROUP             0 ****  ****    0  
@<TRIPOS>MOLECULE
ligand_3
    21    22     1     0     0
SMALL
NO_CHARGES
****
Generated from the CSD

@<TRIPOS>ATOM
     1 C1      37.6286 160.2069  -6.0603   C.3       1 RES1   0.0000
     2 O2      37.7891 160.9300  -7.2602   O.3       1 RES1   0.0000
     3 C3      39.0940 161.3025  -7.6536   C.2       1 RES1   0.0000
     4 C4      39.2203 162.0131  -8.8375   C.2       1 RES1   0.0000
     5 C5      40.4661 162.4039  -9.2979   C.2       1 RES1   0.0000
     6 C6      41.6105 162.0862  -8.5848   C.2       1 RES1   0.0000
     7 O7      42.8333 162.5211  -9.1483   O.3       1 RES1   0.0000
     8 C8      44.0463 162.2527  -8.4985   C.3       1 RES1   0.0000
     9 C9      45.1658 162.5539  -9.4757   C.3       1 RES1   0.0000
    10 C10     44.1447 163.0965  -7.2420   C.2       1 RES1   0.0000
    11 O11     43.6248 164.1963  -7.1739   O.2       1 RES1   0.0000
    12 N12     44.8725 162.5269  -6.1708   N.am      1 RES1   0.0000
    13 C13     45.1098 163.1072  -4.8978   C.2       1 RES1   0.0000
    14 C14     45.8568 162.3511  -4.0105   C.2       1 RES1   0.0000
    15 C15     46.1298 162.8303  -2.7458   C.2       1 RES1   0.0000
    16 C16     45.6468 164.0684  -2.3763   C.2       1 RES1   0.0000
    17 I17     46.0719 164.7625  -0.4276   I         1 RES1   0.0000
    18 C18     44.8958 164.8375  -3.2567   C.2       1 RES1   0.0000
    19 C19     44.6248 164.3533  -4.5273   C.2       1 RES1   0.0000
    20 C20     41.4979 161.3598  -7.3970   C.2       1 RES1   0.0000
    21 C21     40.2381 160.9670  -6.9319   C.2       1 RES1   0.0000
@<TRIPOS>BOND
     1     1     2    1
     2     2     3    1
     3     3     4    2
     4     4     5    1
     5     5     6    2
     6     6     7    1
     7     7     8    1
     8     8     9    1
     9     8    10    1
    10    10    11    2
    11    10    12   am
    12    12    13    1
    13    13    14    2
    14    14    15    1
    15    15    16    2
    16    16    17    1
    17    16    18    1
    18    18    19    2
    19     6    20    1
    20    20    21    2
    21    21     3    1
    22    19    13    1
@<TRIPOS>SUBSTRUCTURE
     1 RES1        1 GROUP             0 ****  ****    0  
@<TRIPOS>MOLECULE
ligand_4
    21    22     1     0     0
SMALL
NO_CHARGES
****
Generated from the CSD

@<TRIPOS>ATOM
     1 C1      42.2146 156.7349  -4.2464   C.3       1 RES1   0.0000
     2 O2      41.2119 157.0789  -5.1764   O.3       1 RES1   0.0000
     3 C3      41.4585 158.1448  -6.0705   C.2       1 RES1   0.0000
     4 C4      42.6839 158.7857  -5.9700   C.2       1 RES1   0.0000
     5 C5      42.9966 159.8473  -6.8017   C.2       1 RES1   0.0000
     6 C6      42.0865 160.2918  -7.7467   C.2       1 RES1   0.0000
     7 O7      42.4993 161.3905  -8.5369   O.3       1 RES1   0.0000
     8 C8      43.7520 161.9831  -8.3244   C.3       1 RES1   0.0000
     9 C9      44.0425 162.8788  -9.5128   C.3       1 RES1   0.0000
    10 C10     43.7311 162.7566  -7.0198   C.2       1 RES1   0.0000
    11 O11     42.8042 163.4941  -6.7343   O.2       1 RES1   0.0000
    12 N12     44.8465 162.5661  -6.1707   N.am      1 RES1   0.0000
    13 C13     45.0680 163.1704  -4.9061   C.2       1 RES1   0.0000
    14 C14     45.8039 162.4315  -3.9954   C.2       1 RES1   0.0000
    15 C15     46.0611 162.9345  -2.7367   C.2       1 RES1   0.0000
    16 C16     45.5736 164.1793  -2.3968   C.2       1 RES1   0.0000
    17 I17     45.9745 164.9103  -0.4564   I         1 RES1   0.0000
    18 C18     44.8338 164.9315  -3.3008   C.2       1 RES1   0.0000
    19 C19     44.5785 164.4233  -4.5654   C.2       1 RES1   0.0000
    20 C20     40.8436 159.6627  -7.8497   C.2       1 RES1   0.0000
    21 C21     40.5294 158.5888  -7.0097   C.2       1 RES1   0.0000
@<TRIPOS>BOND
     1     1     2    1
     2     2     3    1
     3     3     4    2
     4     4     5    1
     5     5     6    2
     6     6     7    1
     7     7     8    1
     8     8     9    1
     9     8    10    1
    10    10    11    2
    11    10    12   am
    12    12    13    1
    13    13    14    2
    14    14    15    1
    15    15    16    2
    16    16    17    1
    17    16    18    1
    18    18    19    2
    19     6    20    1
    20    20    21    2
    21    21     3    1
    22    19    13    1
@<TRIPOS>SUBSTRUCTURE
     1 RES1        1 GROUP             0 ****  ****    0  
@<TRIPOS>MOLECULE
ligand_5
    21    22     1     0     0
SMALL
NO_CHARGES
****
Generated from the CSD

@<TRIPOS>ATOM
     1 C1      39.9744 156.4074  -5.2545   C.3       1 RES1   0.0000
     2 O2      41.2119 157.0789  -5.1764   O.3       1 RES1   0.0000
     3 C3      41.4585 158.1448  -6.0705   C.2       1 RES1   0.0000
     4 C4      42.6839 158.7857  -5.9700   C.2       1 RES1   0.0000
     5 C5      42.9966 159.8473  -6.8017   C.2       1 RES1   0.0000
     6 C6      42.0865 160.2918  -7.7467   C.2       1 RES1   0.0000
     7 O7      42.4993 161.3905  -8.5369   O.3       1 RES1   0.0000
     8 C8      43.7520 161.9831  -8.3244   C.3       1 RES1   0.0000
     9 C9      44.0425 162.8788  -9.5128   C.3       1 RES1   0.0000
    10 C10     43.7311 162.7566  -7.0198   C.2       1 RES1   0.0000
    11 O11     42.8042 163.4941  -6.7343   O.2       1 RES1   0.0000
    12 N12     44.8465 162.5661  -6.1707   N.am      1 RES1   0.0000
    13 C13     45.0680 163.1704  -4.9061   C.2       1 RES1   0.0000
    14 C14     45.8039 162.4315  -3.9954   C.2       1 RES1   0.0000
    15 C15     46.0611 162.9345  -2.7367   C.2       1 RES1   0.0000
    16 C16     45.5736 164.1793  -2.3968   C.2       1 RES1   0.0000
    17 I17     45.9745 164.9103  -0.4564   I         1 RES1   0.0000
    18 C18     44.8338 164.9315  -3.3008   C.2       1 RES1   0.0000
    19 C19     44.5785 164.4233  -4.5654   C.2       1 RES1   0.0000
    20 C20     40.8436 159.6627  -7.8497   C.2       1 RES1   0.0000
    21 C21     40.5294 158.5888  -7.0097   C.2       1 RES1   0.0000
@<TRIPOS>BOND
     1     1     2    1
     2     2     3    1
     3     3     4    2
     4     4     5    1
     5     5     6    2
     6     6     7    1
     7     7     8    1
     8     8     9    1
     9     8    10    1
    10    10    11    2
    11    10    12   am
    12    12    13    1
    13    13    14    2
    14    14    15    1
    15    15    16    2
    16    16    17    1
    17    16    18    1
    18    18    19    2
    19     6    20    1
    20    20    21    2
    21    21     3    1
    22    19    13    1
@<TRIPOS>SUBSTRUCTURE
     1 RES1        1 GROUP             0 ****  ****    0  
@<TRIPOS>MOLECULE
ligand_6
    21    22     1     0     0
SMALL
NO_CHARGES
****
Generated from the CSD

@<TRIPOS>ATOM
     1 C1      47.9863 157.8098 -12.9359   C.3       1 RES1   0.0000
     2 O2      46.9289 158.7181 -13.1494   O.3       1 RES1   0.0000
     3 C3      46.4156 159.4281 -12.0409   C.2       1 RES1   0.0000
     4 C4      46.9945 159.1792 -10.8058   C.2       1 RES1   0.0000
     5 C5      46.5397 159.8254  -9.6690   C.2       1 RES1   0.0000
     6 C6      45.4928 160.7294  -9.7455   C.2       1 RES1   0.0000
     7 O7      45.0968 161.3248  -8.5246   O.3       1 RES1   0.0000
     8 C8      44.0463 162.2527  -8.4985   C.3       1 RES1   0.0000
     9 C9      42.7466 161.4755  -8.5742   C.3       1 RES1   0.0000
    10 C10     44.1386 163.0864  -7.2347   C.2       1 RES1   0.0000
    11 O11     43.6136 164.1832  -7.1584   O.2       1 RES1   0.0000
    12 N12     44.8670 162.5110  -6.1670   N.am      1 RES1   0.0000
    13 C13     45.1000 163.0820  -4.8890   C.2       1 RES1   0.0000
    14 C14     45.8470 162.3210  -4.0060   C.2       1 RES1   0.0000
    15 C15     46.1160 162.7910  -2.7370   C.2       1 RES1   0.0000
    16 C16     45.6290 164.0250  -2.3590   C.2       1 RES1   0.0000
    17 I17     46.0480 164.7050  -0.4040   I         1 RES1   0.0000
    18 C18     44.8780 164.7990  -3.2350   C.2       1 RES1   0.0000
    19 C19     44.6110 164.3240  -4.5100   C.2       1 RES1   0.0000
    20 C20     44.8928 160.9796 -10.9819   C.2       1 RES1   0.0000
    21 C21     45.3545 160.3272 -12.1303   C.2       1 RES1   0.0000
@<TRIPOS>BOND
     1     1     2    1
     2     2     3    1
     3     3     4    2
     4     4     5    1
     5     5     6    2
     6     6     7    1
     7     7     8    1
     8     8     9    1
     9     8    10    1
    10    10    11    2
    11    10    12   am
    12    12    13    1
    13    13    14    2
    14    14    15    1
    15    15    16    2
    16    16    17    1
    17    16    18    1
    18    18    19    2
    19     6    20    1
    20    20    21    2
    21    21     3    1
    22    19    13    1
@<TRIPOS>SUBSTRUCTURE
     1 RES1        1 GROUP             0 ****  ****    0  
@<TRIPOS>MOLECULE
ligand_7
    21    22     1     0     0
SMALL
NO_CHARGES
****
Generated from the CSD

@<TRIPOS>ATOM
     1 C1      46.3606 158.9499 -14.4189   C.3       1 RES1   0.0000
     2 O2      46.9289 158.7181 -13.1494   O.3       1 RES1   0.0000
     3 C3      46.4156 159.4281 -12.0409   C.2       1 RES1   0.0000
     4 C4      46.9945 159.1792 -10.8058   C.2       1 RES1   0.0000
     5 C5      46.5397 159.8254  -9.6690   C.2       1 RES1   0.0000
     6 C6      45.4928 160.7294  -9.7455   C.2       1 RES1   0.0000
     7 O7      45.0968 161.3248  -8.5246   O.3       1 RES1   0.0000
     8 C8      44.0463 162.2527  -8.4985   C.3       1 RES1   0.0000
     9 C9      42.7466 161.4755  -8.5742   C.3       1 RES1   0.0000
    10 C10     44.1386 163.0864  -7.2347   C.2       1 RES1   0.0000
    11 O11     43.6136 164.1832  -7.1584   O.2       1 RES1   0.0000
    12 N12     44.8670 162.5110  -6.1670   N.am      1 RES1   0.0000
    13 C13     45.1000 163.0820  -4.8890   C.2       1 RES1   0.0000
    14 C14     45.8470 162.3210  -4.0060   C.2       1 RES1   0.0000
    15 C15     46.1160 162.7910  -2.7370   C.2       1 RES1   0.0000
    16 C16     45.6290 164.0250  -2.3590   C.2       1 RES1   0.0000
    17 I17     46.0480 164.7050  -0.4040   I         1 RES1   0.0000
    18 C18     44.8780 164.7990  -3.2350   C.2       1 RES1   0.0000
    19 C19     44.6110 164.3240  -4.5100   C.2       1 RES1   0.0000
    20 C20     44.8928 160.9796 -10.9819   C.2       1 RES1   0.0000
    21 C21     45.3545 160.3272 -12.1303   C.2       1 RES1   0.0000
@<TRIPOS>BOND
     1     1     2    1
     2     2     3    1
     3     3     4    2
     4     4     5    1
     5     5     6    2
     6     6     7    1
     7     7     8    1
     8     8     9    1
     9     8    10    1
    10    10    11    2
    11    10    12   am
    12    12    13    1
    13    13    14    2
    14    14    15    1
    15    15    16    2
    16    16    17    1
    17    16    18    1
    18    18    19    2
    19     6    20    1
    20    20    21    2
    21    21     3    1
    22    19    13    1
@<TRIPOS>SUBSTRUCTURE
     1 RES1        1 GROUP             0 ****  ****    0  
@<TRIPOS>MOLECULE
ligand_8
    21    22     1     0     0
SMALL
NO_CHARGES
****
Generated from the CSD

@<TRIPOS>ATOM
     1 C1      48.2962 156.0672  -6.3118   C.3       1 RES1   0.0000
     2 O2      48.7356 157.3660  -6.6412   O.3       1 RES1   0.0000
     3 C3      47.7752 158.3209  -7.0441   C.2       1 RES1   0.0000
     4 C4      46.4518 157.9093  -7.0873   C.2       1 RES1   0.0000
     5 C5      45.4528 158.7819  -7.4838   C.2       1 RES1   0.0000
     6 C6      45.7597 160.0821  -7.8502   C.2       1 RES1   0.0000
     7 O7      44.6678 160.8878  -8.2511   O.3       1 RES1   0.0000
     8 C8      44.8757 162.2200  -8.6351   C.3       1 RES1   0.0000
     9 C9      43.6019 162.7104  -9.2953   C.3       1 RES1   0.0000
    10 C10     45.2405 163.0467  -7.4169   C.2       1 RES1   0.0000
    11 O11     45.8399 164.1022  -7.5228   O.2       1 RES1   0.0000
    12 N12     44.8436 162.5145  -6.1676   N.am      1 RES1   0.0000
    13 C13     45.0633 163.0879  -4.8883   C.2       1 RES1   0.0000
    14 C14     45.8042 162.3301  -3.9974   C.2       1 RES1   0.0000
    15 C15     46.0603 162.8027  -2.7267   C.2       1 RES1   0.0000
    16 C16     45.5666 164.0359  -2.3550   C.2       1 RES1   0.0000
    17 I17     45.9658 164.7198  -0.3972   I         1 RES1   0.0000
    18 C18     44.8216 164.8067  -3.2389   C.2       1 RES1   0.0000
    19 C19     44.5676 164.3291  -4.5156   C.2       1 RES1   0.0000
    20 C20     47.0906 160.5054  -7.8229   C.2       1 RES1   0.0000
    21 C21     48.0990 159.6231  -7.4203   C.2       1 RES1   0.0000
@<TRIPOS>BOND
     1     1     2    1
     2     2     3    1
     3     3     4    2
     4     4     5    1
     5     5     6    2
     6     6     7    1
     7     7     8    1
     8     8     9    1
     9     8    10    1
    10    10    11    2
    11    10    12   am
    12    12    13    1
    13    13    14    2
    14    14    15    1
    15    15    16    2
    16    16    17    1
    17    16    18    1
    18    18    19    2
    19     6    20    1
    20    20    21    2
    21    21     3    1
    22    19    13    1
@<TRIPOS>SUBSTRUCTURE
     1 RES1        1 GROUP             0 ****  ****    0  
@<TRIPOS>MOLECULE
ligand_9
    21    22     1     0     0
SMALL
NO_CHARGES
****
Generated from the CSD

@<TRIPOS>ATOM
     1 C1      50.0898 157.7551  -6.5870   C.3       1 RES1   0.0000
     2 O2      48.7356 157.3660  -6.6412   O.3       1 RES1   0.0000
     3 C3      47.7752 158.3209  -7.0441   C.2       1 RES1   0.0000
     4 C4      46.4518 157.9093  -7.0873   C.2       1 RES1   0.0000
     5 C5      45.4528 158.7819  -7.4838   C.2       1 RES1   0.0000
     6 C6      45.7597 160.0821  -7.8502   C.2       1 RES1   0.0000
     7 O7      44.6678 160.8878  -8.2511   O.3       1 RES1   0.0000
     8 C8      44.8757 162.2200  -8.6351   C.3       1 RES1   0.0000
     9 C9      43.6019 162.7104  -9.2953   C.3       1 RES1   0.0000
    10 C10     45.2405 163.0467  -7.4169   C.2       1 RES1   0.0000
    11 O11     45.8399 164.1022  -7.5228   O.2       1 RES1   0.0000
    12 N12     44.8436 162.5145  -6.1676   N.am      1 RES1   0.0000
    13 C13     45.0633 163.0879  -4.8883   C.2       1 RES1   0.0000
    14 C14     45.8042 162.3301  -3.9974   C.2       1 RES1   0.0000
    15 C15     46.0603 162.8027  -2.7267   C.2       1 RES1   0.0000
    16 C16     45.5666 164.0359  -2.3550   C.2       1 RES1   0.0000
    17 I17     45.9658 164.7198  -0.3972   I         1 RES1   0.0000
    18 C18     44.8216 164.8067  -3.2389   C.2       1 RES1   0.0000
    19 C19     44.5676 164.3291  -4.5156   C.2       1 RES1   0.0000
    20 C20     47.0906 160.5054  -7.8229   C.2       1 RES1   0.0000
    21 C21     48.0990 159.6231  -7.4203   C.2       1 RES1   0.0000
@<TRIPOS>BOND
     1     1     2    1
     2     2     3    1
     3     3     4    2
     4     4     5    1
     5     5     6    2
     6     6     7    1
     7     7     8    1
     8     8     9    1
     9     8    10    1
    10    10    11    2
    11    10    12   am
    12    12    13    1
    13    13    14    2
    14    14    15    1
    15    15    16    2
    16    16    17    1
    17    16    18    1
    18    18    19    2
    19     6    20    1
    20    20    21    2
    21    21     3    1
    22    19    13    1
@<TRIPOS>SUBSTRUCTURE
     1 RES1        1 GROUP             0 ****  ****    0  
@<TRIPOS>MOLECULE
ligand_10
    21    22     1     0     0
SMALL
NO_CHARGES
****
Generated from the CSD

@<TRIPOS>ATOM
     1 C1      47.5958 167.1243 -11.1243   C.3       1 RES1   0.0000
     2 O2      46.3217 167.0443 -10.5253   O.3       1 RES1   0.0000
     3 C3      45.8832 165.7928 -10.0375   C.2       1 RES1   0.0000
     4 C4      46.7469 164.7180 -10.1832   C.2       1 RES1   0.0000
     5 C5      46.3858 163.4562  -9.7424   C.2       1 RES1   0.0000
     6 C6      45.1505 163.2446  -9.1521   C.2       1 RES1   0.0000
     7 O7      44.8751 161.9167  -8.7486   O.3       1 RES1   0.0000
     8 C8      43.6536 161.6028  -8.1365   C.3       1 RES1   0.0000
     9 C9      43.5285 160.0919  -8.1120   C.3       1 RES1   0.0000
    10 C10     43.6178 162.1999  -6.7427   C.2       1 RES1   0.0000
    11 O11     42.5633 162.4129  -6.1706   O.2       1 RES1   0.0000
    12 N12     44.8751 162.4893  -6.1621   N.am      1 RES1   0.0000
    13 C13     45.1132 163.0485  -4.8798   C.2       1 RES1   0.0000
    14 C14     45.8589 162.2769  -4.0049   C.2       1 RES1   0.0000
    15 C15     46.1326 162.7351  -2.7326   C.2       1 RES1   0.0000
    16 C16     45.6516 163.9679  -2.3431   C.2       1 RES1   0.0000
    17 I17     46.0777 164.6297  -0.3834   I         1 RES1   0.0000
    18 C18     44.9020 164.7524  -3.2110   C.2       1 RES1   0.0000
    19 C19     44.6303 164.2893  -4.4893   C.2       1 RES1   0.0000
    20 C20     44.2662 164.3166  -9.0108   C.2       1 RES1   0.0000
    21 C21     44.6331 165.5916  -9.4551   C.2       1 RES1   0.0000
@<TRIPOS>BOND
     1     1     2    1
     2     2     3    1
     3     3     4    2
     4     4     5    1
     5     5     6    2
     6     6     7    1
     7     7     8    1
     8     8     9    1
     9     8    10    1
    10    10    11    2
    11    10    12   am
    12    12    13    1
    13    13    14    2
    14    14    15    1
    15    15    16    2
    16    16    17    1
    17    16    18    1
    18    18    19    2
    19     6    20    1
    20    20    21    2
    21    21     3    1
    22    19    13    1
@<TRIPOS>SUBSTRUCTURE
     1 RES1        1 GROUP             0 ****  ****    0  
@<TRIPOS>MOLECULE
ligand_11
    21    22     1     0     0
SMALL
NO_CHARGES
****
Generated from the CSD

@<TRIPOS>ATOM
     1 C1      45.4653 168.1565 -10.3911   C.3       1 RES1   0.0000
     2 O2      46.3217 167.0443 -10.5253   O.3       1 RES1   0.0000
     3 C3      45.8832 165.7928 -10.0375   C.2       1 RES1   0.0000
     4 C4      46.7469 164.7180 -10.1832   C.2       1 RES1   0.0000
     5 C5      46.3858 163.4562  -9.7424   C.2       1 RES1   0.0000
     6 C6      45.1505 163.2446  -9.1521   C.2       1 RES1   0.0000
     7 O7      44.8751 161.9167  -8.7486   O.3       1 RES1   0.0000
     8 C8      43.6536 161.6028  -8.1365   C.3       1 RES1   0.0000
     9 C9      43.5285 160.0919  -8.1120   C.3       1 RES1   0.0000
    10 C10     43.6178 162.1999  -6.7427   C.2       1 RES1   0.0000
    11 O11     42.5633 162.4129  -6.1706   O.2       1 RES1   0.0000
    12 N12     44.8751 162.4893  -6.1621   N.am      1 RES1   0.0000
    13 C13     45.1132 163.0485  -4.8798   C.2       1 RES1   0.0000
    14 C14     45.8589 162.2770  -4.0049   C.2       1 RES1   0.0000
    15 C15     46.1326 162.7351  -2.7326   C.2       1 RES1   0.0000
    16 C16     45.6516 163.9679  -2.3432   C.2       1 RES1   0.0000
    17 I17     46.0777 164.6297  -0.3834   I         1 RES1   0.0000
    18 C18     44.9020 164.7524  -3.2110   C.2       1 RES1   0.0000
    19 C19     44.6303 164.2893  -4.4893   C.2       1 RES1   0.0000
    20 C20     44.2662 164.3166  -9.0108   C.2       1 RES1   0.0000
    21 C21     44.6331 165.5916  -9.4551   C.2       1 RES1   0.0000
@<TRIPOS>BOND
     1     1     2    1
     2     2     3    1
     3     3     4    2
     4     4     5    1
     5     5     6    2
     6     6     7    1
     7     7     8    1
     8     8     9    1
     9     8    10    1
    10    10    11    2
    11    10    12   am
    12    12    13    1
    13    13    14    2
    14    14    15    1
    15    15    16    2
    16    16    17    1
    17    16    18    1
    18    18    19    2
    19     6    20    1
    20    20    21    2
    21    21     3    1
    22    19    13    1
@<TRIPOS>SUBSTRUCTURE
     1 RES1        1 GROUP             0 ****  ****    0  
@<TRIPOS>MOLECULE
ligand_12
    21    22     1     0     0
SMALL
NO_CHARGES
****
Generated from the CSD

@<TRIPOS>ATOM
     1 C1      37.3619 160.4880  -7.5533   C.3       1 RES1   0.0000
     2 O2      38.0416 161.5339  -8.2110   O.3       1 RES1   0.0000
     3 C3      39.4545 161.5189  -8.2205   C.2       1 RES1   0.0000
     4 C4      40.0948 162.5604  -8.8745   C.2       1 RES1   0.0000
     5 C5      41.4768 162.6112  -8.9390   C.2       1 RES1   0.0000
     6 C6      42.2449 161.6172  -8.3548   C.2       1 RES1   0.0000
     7 O7      43.6465 161.7568  -8.4889   O.3       1 RES1   0.0000
     8 C8      44.5085 160.8006  -7.9340   C.3       1 RES1   0.0000
     9 C9      45.7881 160.8106  -8.7472   C.3       1 RES1   0.0000
    10 C10     44.7584 161.1307  -6.4748   C.2       1 RES1   0.0000
    11 O11     44.8634 160.2543  -5.6350   O.2       1 RES1   0.0000
    12 N12     44.8584 162.5067  -6.1611   N.am      1 RES1   0.0000
    13 C13     45.1304 163.0732  -4.8888   C.2       1 RES1   0.0000
    14 C14     46.0023 162.3663  -4.0782   C.2       1 RES1   0.0000
    15 C15     46.3182 162.8356  -2.8198   C.2       1 RES1   0.0000
    16 C16     45.7525 164.0140  -2.3793   C.2       1 RES1   0.0000
    17 I17     46.2477 164.6935  -0.4420   I         1 RES1   0.0000
    18 C18     44.8760 164.7334  -3.1823   C.2       1 RES1   0.0000
    19 C19     44.5621 164.2594  -4.4470   C.2       1 RES1   0.0000
    20 C20     41.6116 160.5559  -7.7038   C.2       1 RES1   0.0000
    21 C21     40.2149 160.5068  -7.6377   C.2       1 RES1   0.0000
@<TRIPOS>BOND
     1     1     2    1
     2     2     3    1
     3     3     4    2
     4     4     5    1
     5     5     6    2
     6     6     7    1
     7     7     8    1
     8     8     9    1
     9     8    10    1
    10    10    11    2
    11    10    12   am
    12    12    13    1
    13    13    14    2
    14    14    15    1
    15    15    16    2
    16    16    17    1
    17    16    18    1
    18    18    19    2
    19     6    20    1
    20    20    21    2
    21    21     3    1
    22    19    13    1
@<TRIPOS>SUBSTRUCTURE
     1 RES1        1 GROUP             0 ****  ****    0  
@<TRIPOS>MOLECULE
ligand_13
    21    22     1     0     0
SMALL
NO_CHARGES
****
Generated from the CSD

@<TRIPOS>ATOM
     1 C1      39.2431 159.6407 -13.5046   C.3       1 RES1   0.0000
     2 O2      40.4553 159.1601 -12.9679   O.3       1 RES1   0.0000
     3 C3      41.1147 159.9374 -11.9894   C.2       1 RES1   0.0000
     4 C4      40.5167 161.1329 -11.6210   C.2       1 RES1   0.0000
     5 C5      41.1066 161.9571 -10.6780   C.2       1 RES1   0.0000
     6 C6      42.3097 161.6035 -10.0894   C.2       1 RES1   0.0000
     7 O7      42.8333 162.5211  -9.1483   O.3       1 RES1   0.0000
     8 C8      44.0463 162.2527  -8.4985   C.3       1 RES1   0.0000
     9 C9      45.1662 162.5671  -9.4710   C.3       1 RES1   0.0000
    10 C10     44.1386 163.0864  -7.2347   C.2       1 RES1   0.0000
    11 O11     43.6136 164.1832  -7.1584   O.2       1 RES1   0.0000
    12 N12     44.8670 162.5110  -6.1670   N.am      1 RES1   0.0000
    13 C13     45.1000 163.0820  -4.8890   C.2       1 RES1   0.0000
    14 C14     45.8470 162.3210  -4.0060   C.2       1 RES1   0.0000
    15 C15     46.1160 162.7910  -2.7370   C.2       1 RES1   0.0000
    16 C16     45.6290 164.0250  -2.3590   C.2       1 RES1   0.0000
    17 I17     46.0480 164.7050  -0.4040   I         1 RES1   0.0000
    18 C18     44.8780 164.7990  -3.2350   C.2       1 RES1   0.0000
    19 C19     44.6110 164.3240  -4.5100   C.2       1 RES1   0.0000
    20 C20     42.9288 160.4077 -10.4611   C.2       1 RES1   0.0000
    21 C21     42.3307 159.5747 -11.4129   C.2       1 RES1   0.0000
@<TRIPOS>BOND
     1     1     2    1
     2     2     3    1
     3     3     4    2
     4     4     5    1
     5     5     6    2
     6     6     7    1
     7     7     8    1
     8     8     9    1
     9     8    10    1
    10    10    11    2
    11    10    12   am
    12    12    13    1
    13    13    14    2
    14    14    15    1
    15    15    16    2
    16    16    17    1
    17    16    18    1
    18    18    19    2
    19     6    20    1
    20    20    21    2
    21    21     3    1
    22    19    13    1
@<TRIPOS>SUBSTRUCTURE
     1 RES1        1 GROUP             0 ****  ****    0  
@<TRIPOS>MOLECULE
ligand_14
    21    22     1     0     0
SMALL
NO_CHARGES
****
Generated from the CSD

@<TRIPOS>ATOM
     1 C1      41.0392 157.9389 -13.3632   C.3       1 RES1   0.0000
     2 O2      40.4553 159.1601 -12.9679   O.3       1 RES1   0.0000
     3 C3      41.1147 159.9374 -11.9894   C.2       1 RES1   0.0000
     4 C4      40.5167 161.1329 -11.6210   C.2       1 RES1   0.0000
     5 C5      41.1066 161.9571 -10.6780   C.2       1 RES1   0.0000
     6 C6      42.3097 161.6035 -10.0894   C.2       1 RES1   0.0000
     7 O7      42.8333 162.5211  -9.1483   O.3       1 RES1   0.0000
     8 C8      44.0463 162.2527  -8.4985   C.3       1 RES1   0.0000
     9 C9      45.1662 162.5671  -9.4710   C.3       1 RES1   0.0000
    10 C10     44.1386 163.0864  -7.2347   C.2       1 RES1   0.0000
    11 O11     43.6136 164.1832  -7.1584   O.2       1 RES1   0.0000
    12 N12     44.8670 162.5110  -6.1670   N.am      1 RES1   0.0000
    13 C13     45.1000 163.0820  -4.8890   C.2       1 RES1   0.0000
    14 C14     45.8470 162.3210  -4.0060   C.2       1 RES1   0.0000
    15 C15     46.1160 162.7910  -2.7370   C.2       1 RES1   0.0000
    16 C16     45.6290 164.0250  -2.3590   C.2       1 RES1   0.0000
    17 I17     46.0480 164.7050  -0.4040   I         1 RES1   0.0000
    18 C18     44.8780 164.7990  -3.2350   C.2       1 RES1   0.0000
    19 C19     44.6110 164.3240  -4.5100   C.2       1 RES1   0.0000
    20 C20     42.9288 160.4077 -10.4611   C.2       1 RES1   0.0000
    21 C21     42.3307 159.5747 -11.4129   C.2       1 RES1   0.0000
@<TRIPOS>BOND
     1     1     2    1
     2     2     3    1
     3     3     4    2
     4     4     5    1
     5     5     6    2
     6     6     7    1
     7     7     8    1
     8     8     9    1
     9     8    10    1
    10    10    11    2
    11    10    12   am
    12    12    13    1
    13    13    14    2
    14    14    15    1
    15    15    16    2
    16    16    17    1
    17    16    18    1
    18    18    19    2
    19     6    20    1
    20    20    21    2
    21    21     3    1
    22    19    13    1
@<TRIPOS>SUBSTRUCTURE
     1 RES1        1 GROUP             0 ****  ****    0  
@<TRIPOS>MOLECULE
ligand_15
    21    22     1     0     0
SMALL
NO_CHARGES
****
Generated from the CSD

@<TRIPOS>ATOM
     1 C1      40.2174 167.2814 -11.3986   C.3       1 RES1   0.0000
     2 O2      40.2474 166.5257 -10.2084   O.3       1 RES1   0.0000
     3 C3      41.3283 165.6401  -9.9990   C.2       1 RES1   0.0000
     4 C4      42.2959 165.5757 -10.9901   C.2       1 RES1   0.0000
     5 C5      43.3797 164.7234 -10.8654   C.2       1 RES1   0.0000
     6 C6      43.5132 163.9146  -9.7486   C.2       1 RES1   0.0000
     7 O7      44.6495 163.0717  -9.7254   O.3       1 RES1   0.0000
     8 C8      44.8757 162.2200  -8.6351   C.3       1 RES1   0.0000
     9 C9      45.9637 161.2428  -9.0353   C.3       1 RES1   0.0000
    10 C10     45.2672 163.0430  -7.4227   C.2       1 RES1   0.0000
    11 O11     45.8756 164.0923  -7.5378   O.2       1 RES1   0.0000
    12 N12     44.8837 162.5148  -6.1675   N.am      1 RES1   0.0000
    13 C13     45.1285 163.0860  -4.8917   C.2       1 RES1   0.0000
    14 C14     45.8749 162.3208  -4.0119   C.2       1 RES1   0.0000
    15 C15     46.1549 162.7907  -2.7453   C.2       1 RES1   0.0000
    16 C16     45.6794 164.0289  -2.3664   C.2       1 RES1   0.0000
    17 I17     46.1150 164.7088  -0.4150   I         1 RES1   0.0000
    18 C18     44.9291 164.8072  -3.2392   C.2       1 RES1   0.0000
    19 C19     44.6510 164.3323  -4.5119   C.2       1 RES1   0.0000
    20 C20     42.5388 163.9609  -8.7489   C.2       1 RES1   0.0000
    21 C21     41.4449 164.8241  -8.8752   C.2       1 RES1   0.0000
@<TRIPOS>BOND
     1     1     2    1
     2     2     3    1
     3     3     4    2
     4     4     5    1
     5     5     6    2
     6     6     7    1
     7     7     8    1
     8     8     9    1
     9     8    10    1
    10    10    11    2
    11    10    12   am
    12    12    13    1
    13    13    14    2
    14    14    15    1
    15    15    16    2
    16    16    17    1
    17    16    18    1
    18    18    19    2
    19     6    20    1
    20    20    21    2
    21    21     3    1
    22    19    13    1
@<TRIPOS>SUBSTRUCTURE
     1 RES1        1 GROUP             0 ****  ****    0  
@<TRIPOS>MOLECULE
ligand_16
    21    22     1     0     0
SMALL
NO_CHARGES
****
Generated from the CSD

@<TRIPOS>ATOM
     1 C1      39.2477 166.6135  -9.2179   C.3       1 RES1   0.0000
     2 O2      40.2474 166.5257 -10.2084   O.3       1 RES1   0.0000
     3 C3      41.3283 165.6401  -9.9990   C.2       1 RES1   0.0000
     4 C4      42.2959 165.5757 -10.9901   C.2       1 RES1   0.0000
     5 C5      43.3797 164.7234 -10.8654   C.2       1 RES1   0.0000
     6 C6      43.5132 163.9146  -9.7486   C.2       1 RES1   0.0000
     7 O7      44.6495 163.0717  -9.7254   O.3       1 RES1   0.0000
     8 C8      44.8757 162.2200  -8.6351   C.3       1 RES1   0.0000
     9 C9      45.9637 161.2428  -9.0353   C.3       1 RES1   0.0000
    10 C10     45.2672 163.0430  -7.4227   C.2       1 RES1   0.0000
    11 O11     45.8756 164.0923  -7.5378   O.2       1 RES1   0.0000
    12 N12     44.8837 162.5148  -6.1675   N.am      1 RES1   0.0000
    13 C13     45.1285 163.0860  -4.8917   C.2       1 RES1   0.0000
    14 C14     45.8749 162.3208  -4.0119   C.2       1 RES1   0.0000
    15 C15     46.1549 162.7907  -2.7453   C.2       1 RES1   0.0000
    16 C16     45.6794 164.0289  -2.3664   C.2       1 RES1   0.0000
    17 I17     46.1150 164.7088  -0.4150   I         1 RES1   0.0000
    18 C18     44.9291 164.8072  -3.2392   C.2       1 RES1   0.0000
    19 C19     44.6510 164.3323  -4.5118   C.2       1 RES1   0.0000
    20 C20     42.5388 163.9609  -8.7489   C.2       1 RES1   0.0000
    21 C21     41.4449 164.8241  -8.8752   C.2       1 RES1   0.0000
@<TRIPOS>BOND
     1     1     2    1
     2     2     3    1
     3     3     4    2
     4     4     5    1
     5     5     6    2
     6     6     7    1
     7     7     8    1
     8     8     9    1
     9     8    10    1
    10    10    11    2
    11    10    12   am
    12    12    13    1
    13    13    14    2
    14    14    15    1
    15    15    16    2
    16    16    17    1
    17    16    18    1
    18    18    19    2
    19     6    20    1
    20    20    21    2
    21    21     3    1
    22    19    13    1
@<TRIPOS>SUBSTRUCTURE
     1 RES1        1 GROUP             0 ****  ****    0  
@<TRIPOS>MOLECULE
ligand_17
    21    22     1     0     0
SMALL
NO_CHARGES
****
Generated from the CSD

@<TRIPOS>ATOM
     1 C1      50.3989 163.8181 -10.9401   C.3       1 RES1   0.0000
     2 O2      50.2569 163.2228  -9.6697   O.3       1 RES1   0.0000
     3 C3      48.9937 162.7057  -9.3047   C.2       1 RES1   0.0000
     4 C4      47.9696 162.8213 -10.2322   C.2       1 RES1   0.0000
     5 C5      46.6996 162.3506  -9.9453   C.2       1 RES1   0.0000
     6 C6      46.4286 161.7601  -8.7218   C.2       1 RES1   0.0000
     7 O7      45.0968 161.3248  -8.5246   O.3       1 RES1   0.0000
     8 C8      44.0463 162.2527  -8.4985   C.3       1 RES1   0.0000
     9 C9      42.7466 161.4755  -8.5742   C.3       1 RES1   0.0000
    10 C10     44.1386 163.0864  -7.2347   C.2       1 RES1   0.0000
    11 O11     43.6136 164.1832  -7.1584   O.2       1 RES1   0.0000
    12 N12     44.8670 162.5110  -6.1670   N.am      1 RES1   0.0000
    13 C13     45.1000 163.0820  -4.8890   C.2       1 RES1   0.0000
    14 C14     45.8470 162.3210  -4.0060   C.2       1 RES1   0.0000
    15 C15     46.1160 162.7910  -2.7370   C.2       1 RES1   0.0000
    16 C16     45.6290 164.0250  -2.3590   C.2       1 RES1   0.0000
    17 I17     46.0480 164.7050  -0.4040   I         1 RES1   0.0000
    18 C18     44.8780 164.7990  -3.2350   C.2       1 RES1   0.0000
    19 C19     44.6110 164.3240  -4.5100   C.2       1 RES1   0.0000
    20 C20     47.4485 161.6489  -7.7739   C.2       1 RES1   0.0000
    21 C21     48.7320 162.1233  -8.0658   C.2       1 RES1   0.0000
@<TRIPOS>BOND
     1     1     2    1
     2     2     3    1
     3     3     4    2
     4     4     5    1
     5     5     6    2
     6     6     7    1
     7     7     8    1
     8     8     9    1
     9     8    10    1
    10    10    11    2
    11    10    12   am
    12    12    13    1
    13    13    14    2
    14    14    15    1
    15    15    16    2
    16    16    17    1
    17    16    18    1
    18    18    19    2
    19     6    20    1
    20    20    21    2
    21    21     3    1
    22    19    13    1
@<TRIPOS>SUBSTRUCTURE
     1 RES1        1 GROUP             0 ****  ****    0  
@<TRIPOS>MOLECULE
ligand_18
    21    22     1     0     0
SMALL
NO_CHARGES
****
Generated from the CSD

@<TRIPOS>ATOM
     1 C1      51.3184 163.1200  -8.7472   C.3       1 RES1   0.0000
     2 O2      50.2569 163.2228  -9.6697   O.3       1 RES1   0.0000
     3 C3      48.9937 162.7057  -9.3047   C.2       1 RES1   0.0000
     4 C4      47.9696 162.8213 -10.2322   C.2       1 RES1   0.0000
     5 C5      46.6996 162.3506  -9.9453   C.2       1 RES1   0.0000
     6 C6      46.4286 161.7601  -8.7218   C.2       1 RES1   0.0000
     7 O7      45.0968 161.3248  -8.5246   O.3       1 RES1   0.0000
     8 C8      44.0463 162.2527  -8.4985   C.3       1 RES1   0.0000
     9 C9      42.7466 161.4755  -8.5742   C.3       1 RES1   0.0000
    10 C10     44.1386 163.0864  -7.2347   C.2       1 RES1   0.0000
    11 O11     43.6136 164.1832  -7.1584   O.2       1 RES1   0.0000
    12 N12     44.8670 162.5110  -6.1670   N.am      1 RES1   0.0000
    13 C13     45.1000 163.0820  -4.8890   C.2       1 RES1   0.0000
    14 C14     45.8470 162.3210  -4.0060   C.2       1 RES1   0.0000
    15 C15     46.1160 162.7910  -2.7370   C.2       1 RES1   0.0000
    16 C16     45.6290 164.0250  -2.3590   C.2       1 RES1   0.0000
    17 I17     46.0480 164.7050  -0.4040   I         1 RES1   0.0000
    18 C18     44.8780 164.7990  -3.2350   C.2       1 RES1   0.0000
    19 C19     44.6110 164.3240  -4.5100   C.2       1 RES1   0.0000
    20 C20     47.4485 161.6489  -7.7739   C.2       1 RES1   0.0000
    21 C21     48.7320 162.1233  -8.0658   C.2       1 RES1   0.0000
@<TRIPOS>BOND
     1     1     2    1
     2     2     3    1
     3     3     4    2
     4     4     5    1
     5     5     6    2
     6     6     7    1
     7     7     8    1
     8     8     9    1
     9     8    10    1
    10    10    11    2
    11    10    12   am
    12    12    13    1
    13    13    14    2
    14    14    15    1
    15    15    16    2
    16    16    17    1
    17    16    18    1
    18    18    19    2
    19     6    20    1
    20    20    21    2
    21    21     3    1
    22    19    13    1
@<TRIPOS>SUBSTRUCTURE
     1 RES1        1 GROUP             0 ****  ****    0  
@<TRIPOS>MOLECULE
ligand_19
    21    22     1     0     0
SMALL
NO_CHARGES
****
Generated from the CSD

@<TRIPOS>ATOM
     1 C1      50.8812 162.3621 -10.8972   C.3       1 RES1   0.0000
     2 O2      50.3698 162.8705  -9.6854   O.3       1 RES1   0.0000
     3 C3      49.0538 162.5199  -9.3089   C.2       1 RES1   0.0000
     4 C4      48.3489 161.6901 -10.1674   C.2       1 RES1   0.0000
     5 C5      47.0496 161.3111  -9.8758   C.2       1 RES1   0.0000
     6 C6      46.4286 161.7601  -8.7218   C.2       1 RES1   0.0000
     7 O7      45.0968 161.3248  -8.5246   O.3       1 RES1   0.0000
     8 C8      44.0463 162.2527  -8.4985   C.3       1 RES1   0.0000
     9 C9      42.7570 161.4919  -8.7391   C.3       1 RES1   0.0000
    10 C10     44.0413 162.9742  -7.1643   C.2       1 RES1   0.0000
    11 O11     43.5701 164.0919  -7.0492   O.2       1 RES1   0.0000
    12 N12     44.6145 162.2703  -6.0792   N.am      1 RES1   0.0000
    13 C13     44.7318 162.7198  -4.7384   C.2       1 RES1   0.0000
    14 C14     45.3366 161.8460  -3.8510   C.2       1 RES1   0.0000
    15 C15     45.4857 162.1937  -2.5241   C.2       1 RES1   0.0000
    16 C16     45.0220 163.4193  -2.0933   C.2       1 RES1   0.0000
    17 I17     45.2539 163.9108  -0.0526   I         1 RES1   0.0000
    18 C18     44.4131 164.3057  -2.9731   C.2       1 RES1   0.0000
    19 C19     44.2664 163.9535  -4.3061   C.2       1 RES1   0.0000
    20 C20     47.1235 162.6067  -7.8549   C.2       1 RES1   0.0000
    21 C21     48.4371 162.9875  -8.1498   C.2       1 RES1   0.0000
@<TRIPOS>BOND
     1     1     2    1
     2     2     3    1
     3     3     4    2
     4     4     5    1
     5     5     6    2
     6     6     7    1
     7     7     8    1
     8     8     9    1
     9     8    10    1
    10    10    11    2
    11    10    12   am
    12    12    13    1
    13    13    14    2
    14    14    15    1
    15    15    16    2
    16    16    17    1
    17    16    18    1
    18    18    19    2
    19     6    20    1
    20    20    21    2
    21    21     3    1
    22    19    13    1
@<TRIPOS>SUBSTRUCTURE
     1 RES1        1 GROUP             0 ****  ****    0  
@<TRIPOS>MOLECULE
ligand_20
    21    22     1     0     0
SMALL
NO_CHARGES
****
Generated from the CSD

@<TRIPOS>ATOM
     1 C1      51.1120 163.7130  -8.8323   C.3       1 RES1   0.0000
     2 O2      50.3698 162.8705  -9.6854   O.3       1 RES1   0.0000
     3 C3      49.0538 162.5199  -9.3089   C.2       1 RES1   0.0000
     4 C4      48.3489 161.6901 -10.1674   C.2       1 RES1   0.0000
     5 C5      47.0496 161.3111  -9.8758   C.2       1 RES1   0.0000
     6 C6      46.4286 161.7601  -8.7218   C.2       1 RES1   0.0000
     7 O7      45.0968 161.3248  -8.5246   O.3       1 RES1   0.0000
     8 C8      44.0463 162.2527  -8.4985   C.3       1 RES1   0.0000
     9 C9      42.7570 161.4919  -8.7391   C.3       1 RES1   0.0000
    10 C10     44.0413 162.9742  -7.1643   C.2       1 RES1   0.0000
    11 O11     43.5701 164.0919  -7.0492   O.2       1 RES1   0.0000
    12 N12     44.6145 162.2703  -6.0792   N.am      1 RES1   0.0000
    13 C13     44.7318 162.7198  -4.7384   C.2       1 RES1   0.0000
    14 C14     45.3366 161.8460  -3.8510   C.2       1 RES1   0.0000
    15 C15     45.4857 162.1937  -2.5241   C.2       1 RES1   0.0000
    16 C16     45.0220 163.4193  -2.0933   C.2       1 RES1   0.0000
    17 I17     45.2539 163.9108  -0.0526   I         1 RES1   0.0000
    18 C18     44.4131 164.3057  -2.9731   C.2       1 RES1   0.0000
    19 C19     44.2664 163.9535  -4.3061   C.2       1 RES1   0.0000
    20 C20     47.1235 162.6067  -7.8549   C.2       1 RES1   0.0000
    21 C21     48.4371 162.9875  -8.1498   C.2       1 RES1   0.0000
@<TRIPOS>BOND
     1     1     2    1
     2     2     3    1
     3     3     4    2
     4     4     5    1
     5     5     6    2
     6     6     7    1
     7     7     8    1
     8     8     9    1
     9     8    10    1
    10    10    11    2
    11    10    12   am
    12    12    13    1
    13    13    14    2
    14    14    15    1
    15    15    16    2
    16    16    17    1
    17    16    18    1
    18    18    19    2
    19     6    20    1
    20    20    21    2
    21    21     3    1
    22    19    13    1
@<TRIPOS>SUBSTRUCTURE
     1 RES1        1 GROUP             0 ****  ****    0  
@<TRIPOS>MOLECULE
ligand_21
    21    22     1     0     0
SMALL
NO_CHARGES
****
Generated from the CSD

@<TRIPOS>ATOM
     1 C1      38.0905 158.9954  -6.8594   C.3       1 RES1   0.0000
     2 O2      38.1313 160.4035  -6.9239   O.3       1 RES1   0.0000
     3 C3      39.2734 161.0201  -7.4824   C.2       1 RES1   0.0000
     4 C4      40.2863 160.1876  -7.9335   C.2       1 RES1   0.0000
     5 C5      41.4429 160.7149  -8.4821   C.2       1 RES1   0.0000
     6 C6      41.6105 162.0862  -8.5848   C.2       1 RES1   0.0000
     7 O7      42.8333 162.5211  -9.1483   O.3       1 RES1   0.0000
     8 C8      44.0463 162.2527  -8.4985   C.3       1 RES1   0.0000
     9 C9      45.1662 162.5671  -9.4710   C.3       1 RES1   0.0000
    10 C10     44.1386 163.0864  -7.2347   C.2       1 RES1   0.0000
    11 O11     43.6136 164.1832  -7.1584   O.2       1 RES1   0.0000
    12 N12     44.8670 162.5110  -6.1670   N.am      1 RES1   0.0000
    13 C13     45.1000 163.0820  -4.8890   C.2       1 RES1   0.0000
    14 C14     45.8470 162.3210  -4.0060   C.2       1 RES1   0.0000
    15 C15     46.1160 162.7910  -2.7370   C.2       1 RES1   0.0000
    16 C16     45.6290 164.0250  -2.3590   C.2       1 RES1   0.0000
    17 I17     46.0480 164.7050  -0.4040   I         1 RES1   0.0000
    18 C18     44.8780 164.7990  -3.2350   C.2       1 RES1   0.0000
    19 C19     44.6110 164.3240  -4.5100   C.2       1 RES1   0.0000
    20 C20     40.6029 162.9359  -8.1225   C.2       1 RES1   0.0000
    21 C21     39.4337 162.4018  -7.5699   C.2       1 RES1   0.0000
@<TRIPOS>BOND
     1     1     2    1
     2     2     3    1
     3     3     4    2
     4     4     5    1
     5     5     6    2
     6     6     7    1
     7     7     8    1
     8     8     9    1
     9     8    10    1
    10    10    11    2
    11    10    12   am
    12    12    13    1
    13    13    14    2
    14    14    15    1
    15    15    16    2
    16    16    17    1
    17    16    18    1
    18    18    19    2
    19     6    20    1
    20    20    21    2
    21    21     3    1
    22    19    13    1
@<TRIPOS>SUBSTRUCTURE
     1 RES1        1 GROUP             0 ****  ****    0  
@<TRIPOS>MOLECULE
ligand_22
    21    22     1     0     0
SMALL
NO_CHARGES
****
Generated from the CSD

@<TRIPOS>ATOM
     1 C1      37.0842 161.2241  -6.4563   C.3       1 RES1   0.0000
     2 O2      38.1313 160.4035  -6.9239   O.3       1 RES1   0.0000
     3 C3      39.2734 161.0201  -7.4824   C.2       1 RES1   0.0000
     4 C4      40.2863 160.1876  -7.9335   C.2       1 RES1   0.0000
     5 C5      41.4429 160.7149  -8.4821   C.2       1 RES1   0.0000
     6 C6      41.6105 162.0862  -8.5848   C.2       1 RES1   0.0000
     7 O7      42.8333 162.5211  -9.1483   O.3       1 RES1   0.0000
     8 C8      44.0463 162.2527  -8.4985   C.3       1 RES1   0.0000
     9 C9      45.1662 162.5671  -9.4710   C.3       1 RES1   0.0000
    10 C10     44.1386 163.0864  -7.2347   C.2       1 RES1   0.0000
    11 O11     43.6136 164.1832  -7.1584   O.2       1 RES1   0.0000
    12 N12     44.8670 162.5110  -6.1670   N.am      1 RES1   0.0000
    13 C13     45.1000 163.0820  -4.8890   C.2       1 RES1   0.0000
    14 C14     45.8470 162.3210  -4.0060   C.2       1 RES1   0.0000
    15 C15     46.1160 162.7910  -2.7370   C.2       1 RES1   0.0000
    16 C16     45.6290 164.0250  -2.3590   C.2       1 RES1   0.0000
    17 I17     46.0480 164.7050  -0.4040   I         1 RES1   0.0000
    18 C18     44.8780 164.7990  -3.2350   C.2       1 RES1   0.0000
    19 C19     44.6110 164.3240  -4.5100   C.2       1 RES1   0.0000
    20 C20     40.6029 162.9359  -8.1225   C.2       1 RES1   0.0000
    21 C21     39.4337 162.4018  -7.5699   C.2       1 RES1   0.0000
@<TRIPOS>BOND
     1     1     2    1
     2     2     3    1
     3     3     4    2
     4     4     5    1
     5     5     6    2
     6     6     7    1
     7     7     8    1
     8     8     9    1
     9     8    10    1
    10    10    11    2
    11    10    12   am
    12    12    13    1
    13    13    14    2
    14    14    15    1
    15    15    16    2
    16    16    17    1
    17    16    18    1
    18    18    19    2
    19     6    20    1
    20    20    21    2
    21    21     3    1
    22    19    13    1
@<TRIPOS>SUBSTRUCTURE
     1 RES1        1 GROUP             0 ****  ****    0  
@<TRIPOS>MOLECULE
ligand_23
    21    22     1     0     0
SMALL
NO_CHARGES
****
Generated from the CSD

@<TRIPOS>ATOM
     1 C1      37.7382 161.8170  -5.4458   C.3       1 RES1   0.0000
     2 O2      38.0200 161.1008  -6.6274   O.3       1 RES1   0.0000
     3 C3      39.2187 161.3856  -7.3190   C.2       1 RES1   0.0000
     4 C4      40.0443 162.3609  -6.7809   C.2       1 RES1   0.0000
     5 C5      41.2304 162.7064  -7.4058   C.2       1 RES1   0.0000
     6 C6      41.6105 162.0862  -8.5848   C.2       1 RES1   0.0000
     7 O7      42.8333 162.5211  -9.1483   O.3       1 RES1   0.0000
     8 C8      44.0463 162.2527  -8.4985   C.3       1 RES1   0.0000
     9 C9      45.1478 162.3217  -9.5381   C.3       1 RES1   0.0000
    10 C10     44.2544 163.2565  -7.3807   C.2       1 RES1   0.0000
    11 O11     43.8794 164.4109  -7.4866   O.2       1 RES1   0.0000
    12 N12     44.9059 162.7670  -6.2241   N.am      1 RES1   0.0000
    13 C13     45.2181 163.4974  -5.0482   C.2       1 RES1   0.0000
    14 C14     45.8644 162.7949  -4.0454   C.2       1 RES1   0.0000
    15 C15     46.1991 163.4204  -2.8620   C.2       1 RES1   0.0000
    16 C16     45.8790 164.7511  -2.6900   C.2       1 RES1   0.0000
    17 I17     46.3934 165.6709  -0.8599   I         1 RES1   0.0000
    18 C18     45.2305 165.4678  -3.6880   C.2       1 RES1   0.0000
    19 C19     44.8970 164.8363  -4.8765   C.2       1 RES1   0.0000
    20 C20     40.7814 161.1109  -9.1439   C.2       1 RES1   0.0000
    21 C21     39.5839 160.7613  -8.5104   C.2       1 RES1   0.0000
@<TRIPOS>BOND
     1     1     2    1
     2     2     3    1
     3     3     4    2
     4     4     5    1
     5     5     6    2
     6     6     7    1
     7     7     8    1
     8     8     9    1
     9     8    10    1
    10    10    11    2
    11    10    12   am
    12    12    13    1
    13    13    14    2
    14    14    15    1
    15    15    16    2
    16    16    17    1
    17    16    18    1
    18    18    19    2
    19     6    20    1
    20    20    21    2
    21    21     3    1
    22    19    13    1
@<TRIPOS>SUBSTRUCTURE
     1 RES1        1 GROUP             0 ****  ****    0  
@<TRIPOS>MOLECULE
ligand_24
    21    22     1     0     0
SMALL
NO_CHARGES
****
Generated from the CSD

@<TRIPOS>ATOM
     1 C1      37.1597 160.1132  -7.1500   C.3       1 RES1   0.0000
     2 O2      38.0200 161.1008  -6.6274   O.3       1 RES1   0.0000
     3 C3      39.2187 161.3856  -7.3190   C.2       1 RES1   0.0000
     4 C4      40.0443 162.3609  -6.7809   C.2       1 RES1   0.0000
     5 C5      41.2304 162.7064  -7.4058   C.2       1 RES1   0.0000
     6 C6      41.6105 162.0862  -8.5848   C.2       1 RES1   0.0000
     7 O7      42.8333 162.5211  -9.1483   O.3       1 RES1   0.0000
     8 C8      44.0463 162.2527  -8.4985   C.3       1 RES1   0.0000
     9 C9      45.1478 162.3217  -9.5381   C.3       1 RES1   0.0000
    10 C10     44.2544 163.2565  -7.3807   C.2       1 RES1   0.0000
    11 O11     43.8794 164.4109  -7.4866   O.2       1 RES1   0.0000
    12 N12     44.9059 162.7670  -6.2241   N.am      1 RES1   0.0000
    13 C13     45.2181 163.4974  -5.0482   C.2       1 RES1   0.0000
    14 C14     45.8644 162.7949  -4.0454   C.2       1 RES1   0.0000
    15 C15     46.1991 163.4204  -2.8620   C.2       1 RES1   0.0000
    16 C16     45.8790 164.7511  -2.6900   C.2       1 RES1   0.0000
    17 I17     46.3934 165.6709  -0.8599   I         1 RES1   0.0000
    18 C18     45.2305 165.4678  -3.6880   C.2       1 RES1   0.0000
    19 C19     44.8970 164.8363  -4.8765   C.2       1 RES1   0.0000
    20 C20     40.7814 161.1109  -9.1439   C.2       1 RES1   0.0000
    21 C21     39.5839 160.7613  -8.5104   C.2       1 RES1   0.0000
@<TRIPOS>BOND
     1     1     2    1
     2     2     3    1
     3     3     4    2
     4     4     5    1
     5     5     6    2
     6     6     7    1
     7     7     8    1
     8     8     9    1
     9     8    10    1
    10    10    11    2
    11    10    12   am
    12    12    13    1
    13    13    14    2
    14    14    15    1
    15    15    16    2
    16    16    17    1
    17    16    18    1
    18    18    19    2
    19     6    20    1
    20    20    21    2
    21    21     3    1
    22    19    13    1
@<TRIPOS>SUBSTRUCTURE
     1 RES1        1 GROUP             0 ****  ****    0  
@<TRIPOS>MOLECULE
ligand_25
    21    22     1     0     0
SMALL
NO_CHARGES
****
Generated from the CSD

@<TRIPOS>ATOM
     1 C1      37.8281 159.4868  -6.5606   C.3       1 RES1   0.0000
     2 O2      38.9278 158.6510  -6.8442   O.3       1 RES1   0.0000
     3 C3      40.1545 159.2505  -7.2079   C.2       1 RES1   0.0000
     4 C4      40.1916 160.6355  -7.2610   C.2       1 RES1   0.0000
     5 C5      41.3526 161.2982  -7.6211   C.2       1 RES1   0.0000
     6 C6      42.4977 160.5870  -7.9406   C.2       1 RES1   0.0000
     7 O7      43.6254 161.3590  -8.3073   O.3       1 RES1   0.0000
     8 C8      44.9198 160.8873  -8.0477   C.3       1 RES1   0.0000
     9 C9      45.8474 161.5059  -9.0752   C.3       1 RES1   0.0000
    10 C10     45.3163 161.2518  -6.6298   C.2       1 RES1   0.0000
    11 O11     45.9806 160.4961  -5.9426   O.2       1 RES1   0.0000
    12 N12     44.8670 162.5110  -6.1670   N.am      1 RES1   0.0000
    13 C13     45.1000 163.0820  -4.8890   C.2       1 RES1   0.0000
    14 C14     45.8470 162.3210  -4.0060   C.2       1 RES1   0.0000
    15 C15     46.1160 162.7910  -2.7370   C.2       1 RES1   0.0000
    16 C16     45.6290 164.0250  -2.3590   C.2       1 RES1   0.0000
    17 I17     46.0480 164.7050  -0.4040   I         1 RES1   0.0000
    18 C18     44.8780 164.7990  -3.2350   C.2       1 RES1   0.0000
    19 C19     44.6110 164.3240  -4.5100   C.2       1 RES1   0.0000
    20 C20     42.4698 159.1909  -7.9031   C.2       1 RES1   0.0000
    21 C21     41.2964 158.5225  -7.5372   C.2       1 RES1   0.0000
@<TRIPOS>BOND
     1     1     2    1
     2     2     3    1
     3     3     4    2
     4     4     5    1
     5     5     6    2
     6     6     7    1
     7     7     8    1
     8     8     9    1
     9     8    10    1
    10    10    11    2
    11    10    12   am
    12    12    13    1
    13    13    14    2
    14    14    15    1
    15    15    16    2
    16    16    17    1
    17    16    18    1
    18    18    19    2
    19     6    20    1
    20    20    21    2
    21    21     3    1
    22    19    13    1
@<TRIPOS>SUBSTRUCTURE
     1 RES1        1 GROUP             0 ****  ****    0  
@<TRIPOS>MOLECULE
ligand_26
    21    22     1     0     0
SMALL
NO_CHARGES
****
Generated from the CSD

@<TRIPOS>ATOM
     1 C1      49.9146 159.9774 -12.4152   C.3       1 RES1   0.0000
     2 O2      48.9516 160.9916 -12.5952   O.3       1 RES1   0.0000
     3 C3      47.9516 161.1545 -11.6104   C.2       1 RES1   0.0000
     4 C4      47.9879 160.2958 -10.5224   C.2       1 RES1   0.0000
     5 C5      47.0358 160.3830  -9.5211   C.2       1 RES1   0.0000
     6 C6      46.0253 161.3280  -9.5922   C.2       1 RES1   0.0000
     7 O7      45.0968 161.3248  -8.5246   O.3       1 RES1   0.0000
     8 C8      44.0463 162.2527  -8.4985   C.3       1 RES1   0.0000
     9 C9      42.7471 161.4765  -8.5904   C.3       1 RES1   0.0000
    10 C10     44.1294 163.0757  -7.2271   C.2       1 RES1   0.0000
    11 O11     43.6040 164.1719  -7.1454   O.2       1 RES1   0.0000
    12 N12     44.8497 162.4912  -6.1589   N.am      1 RES1   0.0000
    13 C13     45.0723 163.0508  -4.8740   C.2       1 RES1   0.0000
    14 C14     45.8151 162.2835  -3.9929   C.2       1 RES1   0.0000
    15 C15     46.0741 162.7424  -2.7178   C.2       1 RES1   0.0000
    16 C16     45.5813 163.9716  -2.3318   C.2       1 RES1   0.0000
    17 I17     45.9850 164.6345  -0.3677   I         1 RES1   0.0000
    18 C18     44.8345 164.7519  -3.2058   C.2       1 RES1   0.0000
    19 C19     44.5775 164.2881  -4.4870   C.2       1 RES1   0.0000
    20 C20     45.9703 162.1907 -10.6893   C.2       1 RES1   0.0000
    21 C21     46.9341 162.1028 -11.6997   C.2       1 RES1   0.0000
@<TRIPOS>BOND
     1     1     2    1
     2     2     3    1
     3     3     4    2
     4     4     5    1
     5     5     6    2
     6     6     7    1
     7     7     8    1
     8     8     9    1
     9     8    10    1
    10    10    11    2
    11    10    12   am
    12    12    13    1
    13    13    14    2
    14    14    15    1
    15    15    16    2
    16    16    17    1
    17    16    18    1
    18    18    19    2
    19     6    20    1
    20    20    21    2
    21    21     3    1
    22    19    13    1
@<TRIPOS>SUBSTRUCTURE
     1 RES1        1 GROUP             0 ****  ****    0  
@<TRIPOS>MOLECULE
ligand_27
    21    22     1     0     0
SMALL
NO_CHARGES
****
Generated from the CSD

@<TRIPOS>ATOM
     1 C1      48.9412 161.8506 -13.7135   C.3       1 RES1   0.0000
     2 O2      48.9516 160.9916 -12.5952   O.3       1 RES1   0.0000
     3 C3      47.9516 161.1545 -11.6104   C.2       1 RES1   0.0000
     4 C4      47.9879 160.2958 -10.5224   C.2       1 RES1   0.0000
     5 C5      47.0358 160.3830  -9.5211   C.2       1 RES1   0.0000
     6 C6      46.0253 161.3280  -9.5922   C.2       1 RES1   0.0000
     7 O7      45.0968 161.3248  -8.5246   O.3       1 RES1   0.0000
     8 C8      44.0463 162.2527  -8.4985   C.3       1 RES1   0.0000
     9 C9      42.7471 161.4765  -8.5904   C.3       1 RES1   0.0000
    10 C10     44.1294 163.0757  -7.2271   C.2       1 RES1   0.0000
    11 O11     43.6040 164.1719  -7.1454   O.2       1 RES1   0.0000
    12 N12     44.8497 162.4912  -6.1589   N.am      1 RES1   0.0000
    13 C13     45.0723 163.0509  -4.8740   C.2       1 RES1   0.0000
    14 C14     45.8151 162.2835  -3.9929   C.2       1 RES1   0.0000
    15 C15     46.0741 162.7424  -2.7178   C.2       1 RES1   0.0000
    16 C16     45.5813 163.9716  -2.3318   C.2       1 RES1   0.0000
    17 I17     45.9850 164.6345  -0.3677   I         1 RES1   0.0000
    18 C18     44.8345 164.7519  -3.2058   C.2       1 RES1   0.0000
    19 C19     44.5776 164.2881  -4.4870   C.2       1 RES1   0.0000
    20 C20     45.9703 162.1907 -10.6893   C.2       1 RES1   0.0000
    21 C21     46.9341 162.1028 -11.6997   C.2       1 RES1   0.0000
@<TRIPOS>BOND
     1     1     2    1
     2     2     3    1
     3     3     4    2
     4     4     5    1
     5     5     6    2
     6     6     7    1
     7     7     8    1
     8     8     9    1
     9     8    10    1
    10    10    11    2
    11    10    12   am
    12    12    13    1
    13    13    14    2
    14    14    15    1
    15    15    16    2
    16    16    17    1
    17    16    18    1
    18    18    19    2
    19     6    20    1
    20    20    21    2
    21    21     3    1
    22    19    13    1
@<TRIPOS>SUBSTRUCTURE
     1 RES1        1 GROUP             0 ****  ****    0  
@<TRIPOS>MOLECULE
ligand_28
    21    22     1     0     0
SMALL
NO_CHARGES
****
Generated from the CSD

@<TRIPOS>ATOM
     1 C1      51.2443 161.8291  -6.4428   C.3       1 RES1   0.0000
     2 O2      50.5287 160.6149  -6.4907   O.3       1 RES1   0.0000
     3 C3      49.1927 160.6372  -6.9501   C.2       1 RES1   0.0000
     4 C4      48.6726 161.8661  -7.3267   C.2       1 RES1   0.0000
     5 C5      47.3674 161.9735  -7.7759   C.2       1 RES1   0.0000
     6 C6      46.5556 160.8535  -7.8516   C.2       1 RES1   0.0000
     7 O7      45.2357 161.0740  -8.3113   O.3       1 RES1   0.0000
     8 C8      44.8110 162.3670  -8.6474   C.3       1 RES1   0.0000
     9 C9      43.5194 162.2357  -9.4306   C.3       1 RES1   0.0000
    10 C10     44.6296 163.1848  -7.3829   C.2       1 RES1   0.0000
    11 O11     44.4150 164.3833  -7.4278   O.2       1 RES1   0.0000
    12 N12     44.7268 162.4702  -6.1658   N.am      1 RES1   0.0000
    13 C13     44.8979 163.0172  -4.8676   C.2       1 RES1   0.0000
    14 C14     45.6100 162.2436  -3.9669   C.2       1 RES1   0.0000
    15 C15     45.8182 162.6900  -2.6781   C.2       1 RES1   0.0000
    16 C16     45.3057 163.9131  -2.2984   C.2       1 RES1   0.0000
    17 I17     45.6314 164.5568  -0.3136   I         1 RES1   0.0000
    18 C18     44.5892 164.6995  -3.1921   C.2       1 RES1   0.0000
    19 C19     44.3833 164.2482  -4.4869   C.2       1 RES1   0.0000
    20 C20     47.0638 159.6117  -7.4633   C.2       1 RES1   0.0000
    21 C21     48.3835 159.5042  -7.0112   C.2       1 RES1   0.0000
@<TRIPOS>BOND
     1     1     2    1
     2     2     3    1
     3     3     4    2
     4     4     5    1
     5     5     6    2
     6     6     7    1
     7     7     8    1
     8     8     9    1
     9     8    10    1
    10    10    11    2
    11    10    12   am
    12    12    13    1
    13    13    14    2
    14    14    15    1
    15    15    16    2
    16    16    17    1
    17    16    18    1
    18    18    19    2
    19     6    20    1
    20    20    21    2
    21    21     3    1
    22    19    13    1
@<TRIPOS>SUBSTRUCTURE
     1 RES1        1 GROUP             0 ****  ****    0  
@<TRIPOS>MOLECULE
ligand_29
    21    22     1     0     0
SMALL
NO_CHARGES
****
Generated from the CSD

@<TRIPOS>ATOM
     1 C1      41.3714 158.1528  -3.0030   C.3       1 RES1   0.0000
     2 O2      40.6393 158.9211  -3.9315   O.3       1 RES1   0.0000
     3 C3      41.3310 159.5102  -5.0136   C.2       1 RES1   0.0000
     4 C4      42.6977 159.2887  -5.0879   C.2       1 RES1   0.0000
     5 C5      43.4488 159.8418  -6.1110   C.2       1 RES1   0.0000
     6 C6      42.8473 160.6321  -7.0767   C.2       1 RES1   0.0000
     7 O7      43.7059 161.1589  -8.0703   O.3       1 RES1   0.0000
     8 C8      45.0804 160.8851  -8.0344   C.3       1 RES1   0.0000
     9 C9      45.6583 161.2644  -9.3839   C.3       1 RES1   0.0000
    10 C10     45.7218 161.6628  -6.9012   C.2       1 RES1   0.0000
    11 O11     46.8807 161.4719  -6.5770   O.2       1 RES1   0.0000
    12 N12     44.8931 162.6103  -6.2554   N.am      1 RES1   0.0000
    13 C13     45.1198 163.2225  -4.9955   C.2       1 RES1   0.0000
    14 C14     45.7969 162.4609  -4.0583   C.2       1 RES1   0.0000
    15 C15     46.0542 162.9700  -2.8020   C.2       1 RES1   0.0000
    16 C16     45.6258 164.2439  -2.4913   C.2       1 RES1   0.0000
    17 I17     46.0244 164.9840  -0.5540   I         1 RES1   0.0000
    18 C18     44.9453 165.0190  -3.4222   C.2       1 RES1   0.0000
    19 C19     44.6899 164.5046  -4.6842   C.2       1 RES1   0.0000
    20 C20     41.4732 160.8733  -7.0060   C.2       1 RES1   0.0000
    21 C21     40.7150 160.3123  -5.9726   C.2       1 RES1   0.0000
@<TRIPOS>BOND
     1     1     2    1
     2     2     3    1
     3     3     4    2
     4     4     5    1
     5     5     6    2
     6     6     7    1
     7     7     8    1
     8     8     9    1
     9     8    10    1
    10    10    11    2
    11    10    12   am
    12    12    13    1
    13    13    14    2
    14    14    15    1
    15    15    16    2
    16    16    17    1
    17    16    18    1
    18    18    19    2
    19     6    20    1
    20    20    21    2
    21    21     3    1
    22    19    13    1
@<TRIPOS>SUBSTRUCTURE
     1 RES1        1 GROUP             0 ****  ****    0  
@<TRIPOS>MOLECULE
ligand_30
    21    22     1     0     0
SMALL
NO_CHARGES
****
Generated from the CSD

@<TRIPOS>ATOM
     1 C1      39.2482 159.1283  -3.8292   C.3       1 RES1   0.0000
     2 O2      40.6393 158.9211  -3.9315   O.3       1 RES1   0.0000
     3 C3      41.3310 159.5102  -5.0136   C.2       1 RES1   0.0000
     4 C4      42.6977 159.2887  -5.0879   C.2       1 RES1   0.0000
     5 C5      43.4488 159.8418  -6.1110   C.2       1 RES1   0.0000
     6 C6      42.8473 160.6321  -7.0767   C.2       1 RES1   0.0000
     7 O7      43.7059 161.1589  -8.0703   O.3       1 RES1   0.0000
     8 C8      45.0804 160.8851  -8.0344   C.3       1 RES1   0.0000
     9 C9      45.6583 161.2644  -9.3839   C.3       1 RES1   0.0000
    10 C10     45.7218 161.6628  -6.9012   C.2       1 RES1   0.0000
    11 O11     46.8807 161.4719  -6.5770   O.2       1 RES1   0.0000
    12 N12     44.8931 162.6103  -6.2554   N.am      1 RES1   0.0000
    13 C13     45.1198 163.2225  -4.9955   C.2       1 RES1   0.0000
    14 C14     45.7969 162.4609  -4.0583   C.2       1 RES1   0.0000
    15 C15     46.0542 162.9700  -2.8020   C.2       1 RES1   0.0000
    16 C16     45.6258 164.2439  -2.4913   C.2       1 RES1   0.0000
    17 I17     46.0244 164.9840  -0.5540   I         1 RES1   0.0000
    18 C18     44.9453 165.0190  -3.4222   C.2       1 RES1   0.0000
    19 C19     44.6899 164.5046  -4.6842   C.2       1 RES1   0.0000
    20 C20     41.4732 160.8733  -7.0060   C.2       1 RES1   0.0000
    21 C21     40.7150 160.3123  -5.9726   C.2       1 RES1   0.0000
@<TRIPOS>BOND
     1     1     2    1
     2     2     3    1
     3     3     4    2
     4     4     5    1
     5     5     6    2
     6     6     7    1
     7     7     8    1
     8     8     9    1
     9     8    10    1
    10    10    11    2
    11    10    12   am
    12    12    13    1
    13    13    14    2
    14    14    15    1
    15    15    16    2
    16    16    17    1
    17    16    18    1
    18    18    19    2
    19     6    20    1
    20    20    21    2
    21    21     3    1
    22    19    13    1
@<TRIPOS>SUBSTRUCTURE
     1 RES1        1 GROUP             0 ****  ****    0  
@<TRIPOS>MOLECULE
ligand_31
    21    22     1     0     0
SMALL
NO_CHARGES
****
Generated from the CSD

@<TRIPOS>ATOM
     1 C1      48.2652 166.1249 -12.0788   C.3       1 RES1   0.0000
     2 O2      48.6853 165.1312 -11.1708   O.3       1 RES1   0.0000
     3 C3      47.7063 164.3055 -10.5741   C.2       1 RES1   0.0000
     4 C4      48.1494 163.3380  -9.6852   C.2       1 RES1   0.0000
     5 C5      47.2537 162.4813  -9.0685   C.2       1 RES1   0.0000
     6 C6      45.8971 162.5727  -9.3338   C.2       1 RES1   0.0000
     7 O7      45.0695 161.6426  -8.6616   O.3       1 RES1   0.0000
     8 C8      43.7520 161.9831  -8.3244   C.3       1 RES1   0.0000
     9 C9      42.9504 160.6980  -8.2541   C.3       1 RES1   0.0000
    10 C10     43.7446 162.7318  -7.0053   C.2       1 RES1   0.0000
    11 O11     42.8200 163.4624  -6.6957   O.2       1 RES1   0.0000
    12 N12     44.8698 162.5271  -6.1725   N.am      1 RES1   0.0000
    13 C13     45.1063 163.1109  -4.9009   C.2       1 RES1   0.0000
    14 C14     45.8444 162.3531  -4.0077   C.2       1 RES1   0.0000
    15 C15     46.1160 162.8353  -2.7439   C.2       1 RES1   0.0000
    16 C16     45.6405 164.0784  -2.3812   C.2       1 RES1   0.0000
    17 I17     46.0630 164.7773  -0.4337   I         1 RES1   0.0000
    18 C18     44.8985 164.8493  -3.2676   C.2       1 RES1   0.0000
    19 C19     44.6289 164.3620  -4.5374   C.2       1 RES1   0.0000
    20 C20     45.4391 163.5349 -10.2369   C.2       1 RES1   0.0000
    21 C21     46.3452 164.4012 -10.8581   C.2       1 RES1   0.0000
@<TRIPOS>BOND
     1     1     2    1
     2     2     3    1
     3     3     4    2
     4     4     5    1
     5     5     6    2
     6     6     7    1
     7     7     8    1
     8     8     9    1
     9     8    10    1
    10    10    11    2
    11    10    12   am
    12    12    13    1
    13    13    14    2
    14    14    15    1
    15    15    16    2
    16    16    17    1
    17    16    18    1
    18    18    19    2
    19     6    20    1
    20    20    21    2
    21    21     3    1
    22    19    13    1
@<TRIPOS>SUBSTRUCTURE
     1 RES1        1 GROUP             0 ****  ****    0  
@<TRIPOS>MOLECULE
ligand_32
    21    22     1     0     0
SMALL
NO_CHARGES
****
Generated from the CSD

@<TRIPOS>ATOM
     1 C1      38.8790 165.5423 -10.4470   C.3       1 RES1   0.0000
     2 O2      38.8536 164.3902  -9.6344   O.3       1 RES1   0.0000
     3 C3      40.0771 163.7517  -9.3311   C.2       1 RES1   0.0000
     4 C4      41.2310 164.3094  -9.8601   C.2       1 RES1   0.0000
     5 C5      42.4679 163.7358  -9.6194   C.2       1 RES1   0.0000
     6 C6      42.5731 162.5893  -8.8490   C.2       1 RES1   0.0000
     7 O7      43.8804 162.0769  -8.6746   O.3       1 RES1   0.0000
     8 C8      44.0904 160.9200  -7.9111   C.3       1 RES1   0.0000
     9 C9      45.3517 160.2543  -8.4256   C.3       1 RES1   0.0000
    10 C10     44.2011 161.2942  -6.4454   C.2       1 RES1   0.0000
    11 O11     43.7391 160.5813  -5.5720   O.2       1 RES1   0.0000
    12 N12     44.8670 162.5110  -6.1670   N.am      1 RES1   0.0000
    13 C13     45.1000 163.0820  -4.8890   C.2       1 RES1   0.0000
    14 C14     45.8470 162.3210  -4.0060   C.2       1 RES1   0.0000
    15 C15     46.1160 162.7910  -2.7370   C.2       1 RES1   0.0000
    16 C16     45.6290 164.0250  -2.3590   C.2       1 RES1   0.0000
    17 I17     46.0480 164.7050  -0.4040   I         1 RES1   0.0000
    18 C18     44.8780 164.7990  -3.2350   C.2       1 RES1   0.0000
    19 C19     44.6110 164.3240  -4.5100   C.2       1 RES1   0.0000
    20 C20     41.4168 162.0105  -8.3206   C.2       1 RES1   0.0000
    21 C21     40.1677 162.5922  -8.5631   C.2       1 RES1   0.0000
@<TRIPOS>BOND
     1     1     2    1
     2     2     3    1
     3     3     4    2
     4     4     5    1
     5     5     6    2
     6     6     7    1
     7     7     8    1
     8     8     9    1
     9     8    10    1
    10    10    11    2
    11    10    12   am
    12    12    13    1
    13    13    14    2
    14    14    15    1
    15    15    16    2
    16    16    17    1
    17    16    18    1
    18    18    19    2
    19     6    20    1
    20    20    21    2
    21    21     3    1
    22    19    13    1
@<TRIPOS>SUBSTRUCTURE
     1 RES1        1 GROUP             0 ****  ****    0  
@<TRIPOS>MOLECULE
ligand_33
    21    22     1     0     0
SMALL
NO_CHARGES
****
Generated from the CSD

@<TRIPOS>ATOM
     1 C1      49.5908 158.2771  -5.4158   C.3       1 RES1   0.0000
     2 O2      49.5726 158.8381  -6.7095   O.3       1 RES1   0.0000
     3 C3      48.3705 159.4144  -7.1778   C.2       1 RES1   0.0000
     4 C4      47.2798 159.3884  -6.3221   C.2       1 RES1   0.0000
     5 C5      46.0629 159.9214  -6.7116   C.2       1 RES1   0.0000
     6 C6      45.9125 160.4859  -7.9677   C.2       1 RES1   0.0000
     7 O7      44.6258 160.9901  -8.2712   O.3       1 RES1   0.0000
     8 C8      44.4576 162.3395  -8.6122   C.3       1 RES1   0.0000
     9 C9      43.1118 162.4743  -9.2976   C.3       1 RES1   0.0000
    10 C10     44.5478 163.1926  -7.3614   C.2       1 RES1   0.0000
    11 O11     44.7149 164.3978  -7.4262   O.2       1 RES1   0.0000
    12 N12     44.4275 162.5020  -6.1325   N.am      1 RES1   0.0000
    13 C13     44.5486 163.0523  -4.8302   C.2       1 RES1   0.0000
    14 C14     45.0404 162.2054  -3.8516   C.2       1 RES1   0.0000
    15 C15     45.1836 162.6505  -2.5535   C.2       1 RES1   0.0000
    16 C16     44.8280 163.9467  -2.2433   C.2       1 RES1   0.0000
    17 I17     45.0468 164.5882  -0.2432   I         1 RES1   0.0000
    18 C18     44.3331 164.8072  -3.2155   C.2       1 RES1   0.0000
    19 C19     44.1920 164.3567  -4.5193   C.2       1 RES1   0.0000
    20 C20     47.0002 160.5070  -8.8439   C.2       1 RES1   0.0000
    21 C21     48.2299 159.9697  -8.4483   C.2       1 RES1   0.0000
@<TRIPOS>BOND
     1     1     2    1
     2     2     3    1
     3     3     4    2
     4     4     5    1
     5     5     6    2
     6     6     7    1
     7     7     8    1
     8     8     9    1
     9     8    10    1
    10    10    11    2
    11    10    12   am
    12    12    13    1
    13    13    14    2
    14    14    15    1
    15    15    16    2
    16    16    17    1
    17    16    18    1
    18    18    19    2
    19     6    20    1
    20    20    21    2
    21    21     3    1
    22    19    13    1
@<TRIPOS>SUBSTRUCTURE
     1 RES1        1 GROUP             0 ****  ****    0  
@<TRIPOS>MOLECULE
ligand_34
    21    22     1     0     0
SMALL
NO_CHARGES
****
Generated from the CSD

@<TRIPOS>ATOM
     1 C1      50.6995 158.8499  -7.5570   C.3       1 RES1   0.0000
     2 O2      49.5726 158.8381  -6.7095   O.3       1 RES1   0.0000
     3 C3      48.3705 159.4144  -7.1778   C.2       1 RES1   0.0000
     4 C4      47.2798 159.3884  -6.3221   C.2       1 RES1   0.0000
     5 C5      46.0629 159.9214  -6.7116   C.2       1 RES1   0.0000
     6 C6      45.9125 160.4859  -7.9677   C.2       1 RES1   0.0000
     7 O7      44.6258 160.9901  -8.2712   O.3       1 RES1   0.0000
     8 C8      44.4576 162.3395  -8.6122   C.3       1 RES1   0.0000
     9 C9      43.1118 162.4743  -9.2976   C.3       1 RES1   0.0000
    10 C10     44.5478 163.1926  -7.3614   C.2       1 RES1   0.0000
    11 O11     44.7149 164.3978  -7.4262   O.2       1 RES1   0.0000
    12 N12     44.4275 162.5020  -6.1325   N.am      1 RES1   0.0000
    13 C13     44.5486 163.0523  -4.8302   C.2       1 RES1   0.0000
    14 C14     45.0404 162.2054  -3.8516   C.2       1 RES1   0.0000
    15 C15     45.1836 162.6505  -2.5535   C.2       1 RES1   0.0000
    16 C16     44.8280 163.9467  -2.2433   C.2       1 RES1   0.0000
    17 I17     45.0468 164.5882  -0.2432   I         1 RES1   0.0000
    18 C18     44.3331 164.8072  -3.2155   C.2       1 RES1   0.0000
    19 C19     44.1920 164.3567  -4.5193   C.2       1 RES1   0.0000
    20 C20     47.0002 160.5070  -8.8439   C.2       1 RES1   0.0000
    21 C21     48.2299 159.9697  -8.4483   C.2       1 RES1   0.0000
@<TRIPOS>BOND
     1     1     2    1
     2     2     3    1
     3     3     4    2
     4     4     5    1
     5     5     6    2
     6     6     7    1
     7     7     8    1
     8     8     9    1
     9     8    10    1
    10    10    11    2
    11    10    12   am
    12    12    13    1
    13    13    14    2
    14    14    15    1
    15    15    16    2
    16    16    17    1
    17    16    18    1
    18    18    19    2
    19     6    20    1
    20    20    21    2
    21    21     3    1
    22    19    13    1
@<TRIPOS>SUBSTRUCTURE
     1 RES1        1 GROUP             0 ****  ****    0  
@<TRIPOS>MOLECULE
ligand_35
    21    22     1     0     0
SMALL
NO_CHARGES
****
Generated from the CSD

@<TRIPOS>ATOM
     1 C1      41.2450 154.6811  -7.0212   C.3       1 RES1   0.0000
     2 O2      42.4499 155.3559  -6.7358   O.3       1 RES1   0.0000
     3 C3      42.5576 156.7207  -7.0852   C.2       1 RES1   0.0000
     4 C4      41.4578 157.3083  -7.6916   C.2       1 RES1   0.0000
     5 C5      41.4888 158.6381  -8.0754   C.2       1 RES1   0.0000
     6 C6      42.6236 159.4043  -7.8647   C.2       1 RES1   0.0000
     7 O7      42.5558 160.7472  -8.3051   O.3       1 RES1   0.0000
     8 C8      43.6536 161.6028  -8.1365   C.3       1 RES1   0.0000
     9 C9      43.5830 162.6580  -9.2230   C.3       1 RES1   0.0000
    10 C10     43.6122 162.2114  -6.7479   C.2       1 RES1   0.0000
    11 O11     42.5556 162.4248  -6.1799   O.2       1 RES1   0.0000
    12 N12     44.8670 162.5110  -6.1670   N.am      1 RES1   0.0000
    13 C13     45.1000 163.0820  -4.8890   C.2       1 RES1   0.0000
    14 C14     45.8470 162.3210  -4.0060   C.2       1 RES1   0.0000
    15 C15     46.1160 162.7910  -2.7370   C.2       1 RES1   0.0000
    16 C16     45.6290 164.0250  -2.3590   C.2       1 RES1   0.0000
    17 I17     46.0480 164.7050  -0.4040   I         1 RES1   0.0000
    18 C18     44.8780 164.7990  -3.2350   C.2       1 RES1   0.0000
    19 C19     44.6110 164.3240  -4.5100   C.2       1 RES1   0.0000
    20 C20     43.7427 158.8208  -7.2661   C.2       1 RES1   0.0000
    21 C21     43.7094 157.4773  -6.8770   C.2       1 RES1   0.0000
@<TRIPOS>BOND
     1     1     2    1
     2     2     3    1
     3     3     4    2
     4     4     5    1
     5     5     6    2
     6     6     7    1
     7     7     8    1
     8     8     9    1
     9     8    10    1
    10    10    11    2
    11    10    12   am
    12    12    13    1
    13    13    14    2
    14    14    15    1
    15    15    16    2
    16    16    17    1
    17    16    18    1
    18    18    19    2
    19     6    20    1
    20    20    21    2
    21    21     3    1
    22    19    13    1
@<TRIPOS>SUBSTRUCTURE
     1 RES1        1 GROUP             0 ****  ****    0  
@<TRIPOS>MOLECULE
ligand_36
    21    22     1     0     0
SMALL
NO_CHARGES
****
Generated from the CSD

@<TRIPOS>ATOM
     1 C1      43.5521 154.7304  -6.1175   C.3       1 RES1   0.0000
     2 O2      42.4499 155.3559  -6.7358   O.3       1 RES1   0.0000
     3 C3      42.5576 156.7207  -7.0852   C.2       1 RES1   0.0000
     4 C4      41.4578 157.3083  -7.6916   C.2       1 RES1   0.0000
     5 C5      41.4888 158.6381  -8.0754   C.2       1 RES1   0.0000
     6 C6      42.6236 159.4043  -7.8647   C.2       1 RES1   0.0000
     7 O7      42.5558 160.7472  -8.3051   O.3       1 RES1   0.0000
     8 C8      43.6536 161.6028  -8.1365   C.3       1 RES1   0.0000
     9 C9      43.5830 162.6580  -9.2230   C.3       1 RES1   0.0000
    10 C10     43.6122 162.2114  -6.7479   C.2       1 RES1   0.0000
    11 O11     42.5556 162.4248  -6.1799   O.2       1 RES1   0.0000
    12 N12     44.8670 162.5110  -6.1670   N.am      1 RES1   0.0000
    13 C13     45.1000 163.0820  -4.8890   C.2       1 RES1   0.0000
    14 C14     45.8470 162.3210  -4.0060   C.2       1 RES1   0.0000
    15 C15     46.1160 162.7910  -2.7370   C.2       1 RES1   0.0000
    16 C16     45.6290 164.0250  -2.3590   C.2       1 RES1   0.0000
    17 I17     46.0480 164.7050  -0.4040   I         1 RES1   0.0000
    18 C18     44.8780 164.7990  -3.2350   C.2       1 RES1   0.0000
    19 C19     44.6110 164.3240  -4.5100   C.2       1 RES1   0.0000
    20 C20     43.7427 158.8208  -7.2661   C.2       1 RES1   0.0000
    21 C21     43.7094 157.4773  -6.8770   C.2       1 RES1   0.0000
@<TRIPOS>BOND
     1     1     2    1
     2     2     3    1
     3     3     4    2
     4     4     5    1
     5     5     6    2
     6     6     7    1
     7     7     8    1
     8     8     9    1
     9     8    10    1
    10    10    11    2
    11    10    12   am
    12    12    13    1
    13    13    14    2
    14    14    15    1
    15    15    16    2
    16    16    17    1
    17    16    18    1
    18    18    19    2
    19     6    20    1
    20    20    21    2
    21    21     3    1
    22    19    13    1
@<TRIPOS>SUBSTRUCTURE
     1 RES1        1 GROUP             0 ****  ****    0  
@<TRIPOS>MOLECULE
ligand_37
    21    22     1     0     0
SMALL
NO_CHARGES
****
Generated from the CSD

@<TRIPOS>ATOM
     1 C1      51.4801 160.3270  -6.3482   C.3       1 RES1   0.0000
     2 O2      50.8825 159.1156  -6.7528   O.3       1 RES1   0.0000
     3 C3      49.5177 159.1259  -7.1183   C.2       1 RES1   0.0000
     4 C4      48.8534 160.3412  -7.0530   C.2       1 RES1   0.0000
     5 C5      47.5119 160.4321  -7.3828   C.2       1 RES1   0.0000
     6 C6      46.8076 159.3069  -7.7790   C.2       1 RES1   0.0000
     7 O7      45.4398 159.5058  -8.0814   O.3       1 RES1   0.0000
     8 C8      44.8637 160.7768  -7.9472   C.3       1 RES1   0.0000
     9 C9      43.5222 160.7485  -8.6532   C.3       1 RES1   0.0000
    10 C10     44.7257 161.1171  -6.4755   C.2       1 RES1   0.0000
    11 O11     44.5402 160.2511  -5.6388   O.2       1 RES1   0.0000
    12 N12     44.8245 162.4896  -6.1468   N.am      1 RES1   0.0000
    13 C13     45.0440 163.0440  -4.8591   C.2       1 RES1   0.0000
    14 C14     45.8100 162.2865  -3.9895   C.2       1 RES1   0.0000
    15 C15     46.0680 162.7409  -2.7126   C.2       1 RES1   0.0000
    16 C16     45.5507 163.9557  -2.3132   C.2       1 RES1   0.0000
    17 I17     45.9537 164.6119  -0.3467   I         1 RES1   0.0000
    18 C18     44.7803 164.7260  -3.1756   C.2       1 RES1   0.0000
    19 C19     44.5245 164.2667  -4.4586   C.2       1 RES1   0.0000
    20 C20     47.4621 158.0742  -7.8368   C.2       1 RES1   0.0000
    21 C21     48.8183 157.9841  -7.5050   C.2       1 RES1   0.0000
@<TRIPOS>BOND
     1     1     2    1
     2     2     3    1
     3     3     4    2
     4     4     5    1
     5     5     6    2
     6     6     7    1
     7     7     8    1
     8     8     9    1
     9     8    10    1
    10    10    11    2
    11    10    12   am
    12    12    13    1
    13    13    14    2
    14    14    15    1
    15    15    16    2
    16    16    17    1
    17    16    18    1
    18    18    19    2
    19     6    20    1
    20    20    21    2
    21    21     3    1
    22    19    13    1
@<TRIPOS>SUBSTRUCTURE
     1 RES1        1 GROUP             0 ****  ****    0  
@<TRIPOS>MOLECULE
ligand_38
    21    22     1     0     0
SMALL
NO_CHARGES
****
Generated from the CSD

@<TRIPOS>ATOM
     1 C1      51.5852 157.8943  -6.8093   C.3       1 RES1   0.0000
     2 O2      50.8825 159.1156  -6.7528   O.3       1 RES1   0.0000
     3 C3      49.5177 159.1259  -7.1183   C.2       1 RES1   0.0000
     4 C4      48.8534 160.3412  -7.0530   C.2       1 RES1   0.0000
     5 C5      47.5119 160.4321  -7.3828   C.2       1 RES1   0.0000
     6 C6      46.8076 159.3069  -7.7790   C.2       1 RES1   0.0000
     7 O7      45.4398 159.5058  -8.0814   O.3       1 RES1   0.0000
     8 C8      44.8637 160.7768  -7.9472   C.3       1 RES1   0.0000
     9 C9      43.5222 160.7485  -8.6532   C.3       1 RES1   0.0000
    10 C10     44.7257 161.1171  -6.4755   C.2       1 RES1   0.0000
    11 O11     44.5402 160.2511  -5.6388   O.2       1 RES1   0.0000
    12 N12     44.8245 162.4896  -6.1468   N.am      1 RES1   0.0000
    13 C13     45.0440 163.0440  -4.8591   C.2       1 RES1   0.0000
    14 C14     45.8100 162.2865  -3.9895   C.2       1 RES1   0.0000
    15 C15     46.0680 162.7409  -2.7126   C.2       1 RES1   0.0000
    16 C16     45.5507 163.9557  -2.3132   C.2       1 RES1   0.0000
    17 I17     45.9537 164.6119  -0.3467   I         1 RES1   0.0000
    18 C18     44.7803 164.7260  -3.1756   C.2       1 RES1   0.0000
    19 C19     44.5245 164.2667  -4.4586   C.2       1 RES1   0.0000
    20 C20     47.4621 158.0742  -7.8368   C.2       1 RES1   0.0000
    21 C21     48.8183 157.9841  -7.5050   C.2       1 RES1   0.0000
@<TRIPOS>BOND
     1     1     2    1
     2     2     3    1
     3     3     4    2
     4     4     5    1
     5     5     6    2
     6     6     7    1
     7     7     8    1
     8     8     9    1
     9     8    10    1
    10    10    11    2
    11    10    12   am
    12    12    13    1
    13    13    14    2
    14    14    15    1
    15    15    16    2
    16    16    17    1
    17    16    18    1
    18    18    19    2
    19     6    20    1
    20    20    21    2
    21    21     3    1
    22    19    13    1
@<TRIPOS>SUBSTRUCTURE
     1 RES1        1 GROUP             0 ****  ****    0  
@<TRIPOS>MOLECULE
ligand_39
    21    22     1     0     0
SMALL
NO_CHARGES
****
Generated from the CSD

@<TRIPOS>ATOM
     1 C1      49.4896 156.9569  -8.7617   C.3       1 RES1   0.0000
     2 O2      49.5674 158.3265  -8.4351   O.3       1 RES1   0.0000
     3 C3      48.3687 159.0706  -8.3585   C.2       1 RES1   0.0000
     4 C4      47.1855 158.3940  -8.6129   C.2       1 RES1   0.0000
     5 C5      45.9699 159.0552  -8.5701   C.2       1 RES1   0.0000
     6 C6      45.9154 160.4081  -8.2770   C.2       1 RES1   0.0000
     7 O7      44.6258 160.9901  -8.2712   O.3       1 RES1   0.0000
     8 C8      44.4576 162.3395  -8.6122   C.3       1 RES1   0.0000
     9 C9      43.0544 162.5010  -9.1637   C.3       1 RES1   0.0000
    10 C10     44.6914 163.2038  -7.3880   C.2       1 RES1   0.0000
    11 O11     44.7246 164.4192  -7.4664   O.2       1 RES1   0.0000
    12 N12     44.8670 162.5110  -6.1670   N.am      1 RES1   0.0000
    13 C13     45.1000 163.0820  -4.8890   C.2       1 RES1   0.0000
    14 C14     45.8470 162.3210  -4.0060   C.2       1 RES1   0.0000
    15 C15     46.1160 162.7910  -2.7370   C.2       1 RES1   0.0000
    16 C16     45.6290 164.0250  -2.3590   C.2       1 RES1   0.0000
    17 I17     46.0480 164.7050  -0.4040   I         1 RES1   0.0000
    18 C18     44.8780 164.7990  -3.2350   C.2       1 RES1   0.0000
    19 C19     44.6110 164.3240  -4.5100   C.2       1 RES1   0.0000
    20 C20     47.1014 161.1039  -8.0311   C.2       1 RES1   0.0000
    21 C21     48.3291 160.4342  -8.0730   C.2       1 RES1   0.0000
@<TRIPOS>BOND
     1     1     2    1
     2     2     3    1
     3     3     4    2
     4     4     5    1
     5     5     6    2
     6     6     7    1
     7     7     8    1
     8     8     9    1
     9     8    10    1
    10    10    11    2
    11    10    12   am
    12    12    13    1
    13    13    14    2
    14    14    15    1
    15    15    16    2
    16    16    17    1
    17    16    18    1
    18    18    19    2
    19     6    20    1
    20    20    21    2
    21    21     3    1
    22    19    13    1
@<TRIPOS>SUBSTRUCTURE
     1 RES1        1 GROUP             0 ****  ****    0  
@<TRIPOS>MOLECULE
ligand_40
    21    22     1     0     0
SMALL
NO_CHARGES
****
Generated from the CSD

@<TRIPOS>ATOM
     1 C1      50.7871 158.9872  -8.1813   C.3       1 RES1   0.0000
     2 O2      49.5674 158.3265  -8.4351   O.3       1 RES1   0.0000
     3 C3      48.3687 159.0706  -8.3585   C.2       1 RES1   0.0000
     4 C4      47.1855 158.3940  -8.6129   C.2       1 RES1   0.0000
     5 C5      45.9699 159.0552  -8.5701   C.2       1 RES1   0.0000
     6 C6      45.9154 160.4081  -8.2770   C.2       1 RES1   0.0000
     7 O7      44.6258 160.9901  -8.2712   O.3       1 RES1   0.0000
     8 C8      44.4576 162.3395  -8.6122   C.3       1 RES1   0.0000
     9 C9      43.0544 162.5010  -9.1637   C.3       1 RES1   0.0000
    10 C10     44.6914 163.2038  -7.3880   C.2       1 RES1   0.0000
    11 O11     44.7246 164.4192  -7.4664   O.2       1 RES1   0.0000
    12 N12     44.8670 162.5110  -6.1670   N.am      1 RES1   0.0000
    13 C13     45.1000 163.0820  -4.8890   C.2       1 RES1   0.0000
    14 C14     45.8470 162.3210  -4.0060   C.2       1 RES1   0.0000
    15 C15     46.1160 162.7910  -2.7370   C.2       1 RES1   0.0000
    16 C16     45.6290 164.0250  -2.3590   C.2       1 RES1   0.0000
    17 I17     46.0480 164.7050  -0.4040   I         1 RES1   0.0000
    18 C18     44.8780 164.7990  -3.2350   C.2       1 RES1   0.0000
    19 C19     44.6110 164.3240  -4.5100   C.2       1 RES1   0.0000
    20 C20     47.1014 161.1039  -8.0311   C.2       1 RES1   0.0000
    21 C21     48.3291 160.4342  -8.0730   C.2       1 RES1   0.0000
@<TRIPOS>BOND
     1     1     2    1
     2     2     3    1
     3     3     4    2
     4     4     5    1
     5     5     6    2
     6     6     7    1
     7     7     8    1
     8     8     9    1
     9     8    10    1
    10    10    11    2
    11    10    12   am
    12    12    13    1
    13    13    14    2
    14    14    15    1
    15    15    16    2
    16    16    17    1
    17    16    18    1
    18    18    19    2
    19     6    20    1
    20    20    21    2
    21    21     3    1
    22    19    13    1
@<TRIPOS>SUBSTRUCTURE
     1 RES1        1 GROUP             0 ****  ****    0  
@<TRIPOS>MOLECULE
ligand_41
    21    22     1     0     0
SMALL
NO_CHARGES
****
Generated from the CSD

@<TRIPOS>ATOM
     1 C1      50.2928 162.9414 -11.5824   C.3       1 RES1   0.0000
     2 O2      49.4480 163.8129 -10.8646   O.3       1 RES1   0.0000
     3 C3      48.3091 163.2737 -10.2255   C.2       1 RES1   0.0000
     4 C4      48.0994 161.9087 -10.3499   C.2       1 RES1   0.0000
     5 C5      46.9995 161.3062  -9.7635   C.2       1 RES1   0.0000
     6 C6      46.0848 162.0594  -9.0457   C.2       1 RES1   0.0000
     7 O7      44.9903 161.3492  -8.4981   O.3       1 RES1   0.0000
     8 C8      43.7520 161.9831  -8.3244   C.3       1 RES1   0.0000
     9 C9      42.6775 160.9154  -8.3910   C.3       1 RES1   0.0000
    10 C10     43.7419 162.7192  -6.9983   C.2       1 RES1   0.0000
    11 O11     42.8197 163.4518  -6.6863   O.2       1 RES1   0.0000
    12 N12     44.8617 162.5004  -6.1617   N.am      1 RES1   0.0000
    13 C13     45.0955 163.0716  -4.8839   C.2       1 RES1   0.0000
    14 C14     45.8256 162.3021  -3.9942   C.2       1 RES1   0.0000
    15 C15     46.0940 162.7718  -2.7250   C.2       1 RES1   0.0000
    16 C16     45.6233 164.0142  -2.3535   C.2       1 RES1   0.0000
    17 I17     46.0407 164.6937  -0.3980   I         1 RES1   0.0000
    18 C18     44.8894 164.7968  -3.2364   C.2       1 RES1   0.0000
    19 C19     44.6230 164.3220  -4.5116   C.2       1 RES1   0.0000
    20 C20     46.2779 163.4374  -8.9235   C.2       1 RES1   0.0000
    21 C21     47.3908 164.0448  -9.5151   C.2       1 RES1   0.0000
@<TRIPOS>BOND
     1     1     2    1
     2     2     3    1
     3     3     4    2
     4     4     5    1
     5     5     6    2
     6     6     7    1
     7     7     8    1
     8     8     9    1
     9     8    10    1
    10    10    11    2
    11    10    12   am
    12    12    13    1
    13    13    14    2
    14    14    15    1
    15    15    16    2
    16    16    17    1
    17    16    18    1
    18    18    19    2
    19     6    20    1
    20    20    21    2
    21    21     3    1
    22    19    13    1
@<TRIPOS>SUBSTRUCTURE
     1 RES1        1 GROUP             0 ****  ****    0  
@<TRIPOS>MOLECULE
ligand_42
    21    22     1     0     0
SMALL
NO_CHARGES
****
Generated from the CSD

@<TRIPOS>ATOM
     1 C1      49.6882 165.1981 -10.7556   C.3       1 RES1   0.0000
     2 O2      49.4480 163.8129 -10.8646   O.3       1 RES1   0.0000
     3 C3      48.3091 163.2737 -10.2255   C.2       1 RES1   0.0000
     4 C4      48.0994 161.9087 -10.3499   C.2       1 RES1   0.0000
     5 C5      46.9995 161.3062  -9.7635   C.2       1 RES1   0.0000
     6 C6      46.0848 162.0594  -9.0457   C.2       1 RES1   0.0000
     7 O7      44.9903 161.3492  -8.4981   O.3       1 RES1   0.0000
     8 C8      43.7520 161.9831  -8.3244   C.3       1 RES1   0.0000
     9 C9      42.6775 160.9154  -8.3910   C.3       1 RES1   0.0000
    10 C10     43.7419 162.7192  -6.9983   C.2       1 RES1   0.0000
    11 O11     42.8197 163.4518  -6.6863   O.2       1 RES1   0.0000
    12 N12     44.8617 162.5004  -6.1617   N.am      1 RES1   0.0000
    13 C13     45.0955 163.0716  -4.8839   C.2       1 RES1   0.0000
    14 C14     45.8256 162.3021  -3.9942   C.2       1 RES1   0.0000
    15 C15     46.0940 162.7719  -2.7250   C.2       1 RES1   0.0000
    16 C16     45.6233 164.0142  -2.3535   C.2       1 RES1   0.0000
    17 I17     46.0407 164.6937  -0.3980   I         1 RES1   0.0000
    18 C18     44.8894 164.7968  -3.2364   C.2       1 RES1   0.0000
    19 C19     44.6230 164.3220  -4.5116   C.2       1 RES1   0.0000
    20 C20     46.2779 163.4374  -8.9235   C.2       1 RES1   0.0000
    21 C21     47.3908 164.0448  -9.5151   C.2       1 RES1   0.0000
@<TRIPOS>BOND
     1     1     2    1
     2     2     3    1
     3     3     4    2
     4     4     5    1
     5     5     6    2
     6     6     7    1
     7     7     8    1
     8     8     9    1
     9     8    10    1
    10    10    11    2
    11    10    12   am
    12    12    13    1
    13    13    14    2
    14    14    15    1
    15    15    16    2
    16    16    17    1
    17    16    18    1
    18    18    19    2
    19     6    20    1
    20    20    21    2
    21    21     3    1
    22    19    13    1
@<TRIPOS>SUBSTRUCTURE
     1 RES1        1 GROUP             0 ****  ****    0  
@<TRIPOS>MOLECULE
ligand_43
    21    22     1     0     0
SMALL
NO_CHARGES
****
Generated from the CSD

@<TRIPOS>ATOM
     1 C1      37.7872 159.1571 -10.9878   C.3       1 RES1   0.0000
     2 O2      38.9283 158.6601 -10.3248   O.3       1 RES1   0.0000
     3 C3      39.9553 159.5667  -9.9787   C.2       1 RES1   0.0000
     4 C4      39.7669 160.8976 -10.3185   C.2       1 RES1   0.0000
     5 C5      40.7322 161.8456 -10.0251   C.2       1 RES1   0.0000
     6 C6      41.9078 161.4787  -9.3906   C.2       1 RES1   0.0000
     7 O7      42.8333 162.5211  -9.1483   O.3       1 RES1   0.0000
     8 C8      44.0463 162.2527  -8.4985   C.3       1 RES1   0.0000
     9 C9      45.1657 162.5518  -9.4764   C.3       1 RES1   0.0000
    10 C10     44.1457 163.0981  -7.2431   C.2       1 RES1   0.0000
    11 O11     43.6265 164.1983  -7.1763   O.2       1 RES1   0.0000
    12 N12     44.8734 162.5294  -6.1714   N.am      1 RES1   0.0000
    13 C13     45.1112 163.1111  -4.8991   C.2       1 RES1   0.0000
    14 C14     45.8587 162.3560  -4.0114   C.2       1 RES1   0.0000
    15 C15     46.1322 162.8366  -2.7473   C.2       1 RES1   0.0000
    16 C16     45.6493 164.0751  -2.3790   C.2       1 RES1   0.0000
    17 I17     46.0751 164.7713  -0.4312   I         1 RES1   0.0000
    18 C18     44.8979 164.8432  -3.2598   C.2       1 RES1   0.0000
    19 C19     44.6263 164.3576  -4.5298   C.2       1 RES1   0.0000
    20 C20     42.1153 160.1390  -9.0542   C.2       1 RES1   0.0000
    21 C21     41.1381 159.1822  -9.3497   C.2       1 RES1   0.0000
@<TRIPOS>BOND
     1     1     2    1
     2     2     3    1
     3     3     4    2
     4     4     5    1
     5     5     6    2
     6     6     7    1
     7     7     8    1
     8     8     9    1
     9     8    10    1
    10    10    11    2
    11    10    12   am
    12    12    13    1
    13    13    14    2
    14    14    15    1
    15    15    16    2
    16    16    17    1
    17    16    18    1
    18    18    19    2
    19     6    20    1
    20    20    21    2
    21    21     3    1
    22    19    13    1
@<TRIPOS>SUBSTRUCTURE
     1 RES1        1 GROUP             0 ****  ****    0  
@<TRIPOS>MOLECULE
ligand_44
    21    22     1     0     0
SMALL
NO_CHARGES
****
Generated from the CSD

@<TRIPOS>ATOM
     1 C1      39.0909 157.2996  -9.9917   C.3       1 RES1   0.0000
     2 O2      38.9283 158.6601 -10.3248   O.3       1 RES1   0.0000
     3 C3      39.9553 159.5667  -9.9787   C.2       1 RES1   0.0000
     4 C4      39.7669 160.8976 -10.3185   C.2       1 RES1   0.0000
     5 C5      40.7322 161.8456 -10.0251   C.2       1 RES1   0.0000
     6 C6      41.9078 161.4787  -9.3906   C.2       1 RES1   0.0000
     7 O7      42.8333 162.5211  -9.1483   O.3       1 RES1   0.0000
     8 C8      44.0463 162.2527  -8.4985   C.3       1 RES1   0.0000
     9 C9      45.1657 162.5518  -9.4764   C.3       1 RES1   0.0000
    10 C10     44.1457 163.0981  -7.2431   C.2       1 RES1   0.0000
    11 O11     43.6265 164.1983  -7.1763   O.2       1 RES1   0.0000
    12 N12     44.8734 162.5294  -6.1714   N.am      1 RES1   0.0000
    13 C13     45.1112 163.1111  -4.8991   C.2       1 RES1   0.0000
    14 C14     45.8586 162.3560  -4.0114   C.2       1 RES1   0.0000
    15 C15     46.1322 162.8366  -2.7473   C.2       1 RES1   0.0000
    16 C16     45.6493 164.0751  -2.3789   C.2       1 RES1   0.0000
    17 I17     46.0751 164.7713  -0.4312   I         1 RES1   0.0000
    18 C18     44.8979 164.8432  -3.2598   C.2       1 RES1   0.0000
    19 C19     44.6263 164.3576  -4.5298   C.2       1 RES1   0.0000
    20 C20     42.1153 160.1390  -9.0542   C.2       1 RES1   0.0000
    21 C21     41.1381 159.1822  -9.3497   C.2       1 RES1   0.0000
@<TRIPOS>BOND
     1     1     2    1
     2     2     3    1
     3     3     4    2
     4     4     5    1
     5     5     6    2
     6     6     7    1
     7     7     8    1
     8     8     9    1
     9     8    10    1
    10    10    11    2
    11    10    12   am
    12    12    13    1
    13    13    14    2
    14    14    15    1
    15    15    16    2
    16    16    17    1
    17    16    18    1
    18    18    19    2
    19     6    20    1
    20    20    21    2
    21    21     3    1
    22    19    13    1
@<TRIPOS>SUBSTRUCTURE
     1 RES1        1 GROUP             0 ****  ****    0  
@<TRIPOS>MOLECULE
ligand_45
    21    22     1     0     0
SMALL
NO_CHARGES
****
Generated from the CSD

@<TRIPOS>ATOM
     1 C1      44.5050 155.2609 -11.1624   C.3       1 RES1   0.0000
     2 O2      44.7591 156.5092 -11.7669   O.3       1 RES1   0.0000
     3 C3      44.7684 157.6636 -10.9522   C.2       1 RES1   0.0000
     4 C4      44.5242 157.4861  -9.5990   C.2       1 RES1   0.0000
     5 C5      44.5040 158.5688  -8.7364   C.2       1 RES1   0.0000
     6 C6      44.7224 159.8513  -9.2127   C.2       1 RES1   0.0000
     7 O7      44.6678 160.8878  -8.2511   O.3       1 RES1   0.0000
     8 C8      44.8757 162.2200  -8.6351   C.3       1 RES1   0.0000
     9 C9      43.5972 162.7147  -9.2829   C.3       1 RES1   0.0000
    10 C10     45.2539 163.0440  -7.4191   C.2       1 RES1   0.0000
    11 O11     45.8550 164.0981  -7.5290   O.2       1 RES1   0.0000
    12 N12     44.8670 162.5110  -6.1670   N.am      1 RES1   0.0000
    13 C13     45.1000 163.0820  -4.8890   C.2       1 RES1   0.0000
    14 C14     45.8470 162.3210  -4.0060   C.2       1 RES1   0.0000
    15 C15     46.1160 162.7910  -2.7370   C.2       1 RES1   0.0000
    16 C16     45.6290 164.0250  -2.3590   C.2       1 RES1   0.0000
    17 I17     46.0480 164.7050  -0.4040   I         1 RES1   0.0000
    18 C18     44.8780 164.7990  -3.2350   C.2       1 RES1   0.0000
    19 C19     44.6110 164.3240  -4.5100   C.2       1 RES1   0.0000
    20 C20     44.9571 160.0449 -10.5760   C.2       1 RES1   0.0000
    21 C21     44.9791 158.9497 -11.4463   C.2       1 RES1   0.0000
@<TRIPOS>BOND
     1     1     2    1
     2     2     3    1
     3     3     4    2
     4     4     5    1
     5     5     6    2
     6     6     7    1
     7     7     8    1
     8     8     9    1
     9     8    10    1
    10    10    11    2
    11    10    12   am
    12    12    13    1
    13    13    14    2
    14    14    15    1
    15    15    16    2
    16    16    17    1
    17    16    18    1
    18    18    19    2
    19     6    20    1
    20    20    21    2
    21    21     3    1
    22    19    13    1
@<TRIPOS>SUBSTRUCTURE
     1 RES1        1 GROUP             0 ****  ****    0  
@<TRIPOS>MOLECULE
ligand_46
    21    22     1     0     0
SMALL
NO_CHARGES
****
Generated from the CSD

@<TRIPOS>ATOM
     1 C1      45.0042 156.6579 -13.1476   C.3       1 RES1   0.0000
     2 O2      44.7591 156.5092 -11.7669   O.3       1 RES1   0.0000
     3 C3      44.7684 157.6636 -10.9522   C.2       1 RES1   0.0000
     4 C4      44.5242 157.4861  -9.5990   C.2       1 RES1   0.0000
     5 C5      44.5040 158.5688  -8.7364   C.2       1 RES1   0.0000
     6 C6      44.7224 159.8513  -9.2127   C.2       1 RES1   0.0000
     7 O7      44.6678 160.8878  -8.2511   O.3       1 RES1   0.0000
     8 C8      44.8757 162.2200  -8.6351   C.3       1 RES1   0.0000
     9 C9      43.5972 162.7147  -9.2829   C.3       1 RES1   0.0000
    10 C10     45.2539 163.0440  -7.4191   C.2       1 RES1   0.0000
    11 O11     45.8550 164.0981  -7.5290   O.2       1 RES1   0.0000
    12 N12     44.8670 162.5110  -6.1670   N.am      1 RES1   0.0000
    13 C13     45.1000 163.0820  -4.8890   C.2       1 RES1   0.0000
    14 C14     45.8470 162.3210  -4.0060   C.2       1 RES1   0.0000
    15 C15     46.1160 162.7910  -2.7370   C.2       1 RES1   0.0000
    16 C16     45.6290 164.0250  -2.3590   C.2       1 RES1   0.0000
    17 I17     46.0480 164.7050  -0.4040   I         1 RES1   0.0000
    18 C18     44.8780 164.7990  -3.2350   C.2       1 RES1   0.0000
    19 C19     44.6110 164.3240  -4.5100   C.2       1 RES1   0.0000
    20 C20     44.9571 160.0449 -10.5760   C.2       1 RES1   0.0000
    21 C21     44.9791 158.9497 -11.4463   C.2       1 RES1   0.0000
@<TRIPOS>BOND
     1     1     2    1
     2     2     3    1
     3     3     4    2
     4     4     5    1
     5     5     6    2
     6     6     7    1
     7     7     8    1
     8     8     9    1
     9     8    10    1
    10    10    11    2
    11    10    12   am
    12    12    13    1
    13    13    14    2
    14    14    15    1
    15    15    16    2
    16    16    17    1
    17    16    18    1
    18    18    19    2
    19     6    20    1
    20    20    21    2
    21    21     3    1
    22    19    13    1
@<TRIPOS>SUBSTRUCTURE
     1 RES1        1 GROUP             0 ****  ****    0  
@<TRIPOS>MOLECULE
ligand_47
    21    22     1     0     0
SMALL
NO_CHARGES
****
Generated from the CSD

@<TRIPOS>ATOM
     1 C1      47.1208 162.0518 -14.6734   C.3       1 RES1   0.0000
     2 O2      45.8093 161.7115 -14.2827   O.3       1 RES1   0.0000
     3 C3      45.4836 161.7499 -12.9083   C.2       1 RES1   0.0000
     4 C4      46.4885 162.1241 -12.0293   C.2       1 RES1   0.0000
     5 C5      46.2525 162.1741 -10.6660   C.2       1 RES1   0.0000
     6 C6      45.0074 161.8452 -10.1555   C.2       1 RES1   0.0000
     7 O7      44.8751 161.9167  -8.7486   O.3       1 RES1   0.0000
     8 C8      43.6536 161.6028  -8.1365   C.3       1 RES1   0.0000
     9 C9      43.5348 160.0917  -8.0996   C.3       1 RES1   0.0000
    10 C10     43.6122 162.2114  -6.7479   C.2       1 RES1   0.0000
    11 O11     42.5556 162.4248  -6.1799   O.2       1 RES1   0.0000
    12 N12     44.8670 162.5110  -6.1670   N.am      1 RES1   0.0000
    13 C13     45.1000 163.0820  -4.8890   C.2       1 RES1   0.0000
    14 C14     45.8470 162.3210  -4.0060   C.2       1 RES1   0.0000
    15 C15     46.1160 162.7910  -2.7370   C.2       1 RES1   0.0000
    16 C16     45.6290 164.0250  -2.3590   C.2       1 RES1   0.0000
    17 I17     46.0480 164.7050  -0.4040   I         1 RES1   0.0000
    18 C18     44.8780 164.7990  -3.2350   C.2       1 RES1   0.0000
    19 C19     44.6110 164.3240  -4.5100   C.2       1 RES1   0.0000
    20 C20     43.9902 161.4545 -11.0295   C.2       1 RES1   0.0000
    21 C21     44.2294 161.4061 -12.4072   C.2       1 RES1   0.0000
@<TRIPOS>BOND
     1     1     2    1
     2     2     3    1
     3     3     4    2
     4     4     5    1
     5     5     6    2
     6     6     7    1
     7     7     8    1
     8     8     9    1
     9     8    10    1
    10    10    11    2
    11    10    12   am
    12    12    13    1
    13    13    14    2
    14    14    15    1
    15    15    16    2
    16    16    17    1
    17    16    18    1
    18    18    19    2
    19     6    20    1
    20    20    21    2
    21    21     3    1
    22    19    13    1
@<TRIPOS>SUBSTRUCTURE
     1 RES1        1 GROUP             0 ****  ****    0  
@<TRIPOS>MOLECULE
ligand_48
    21    22     1     0     0
SMALL
NO_CHARGES
****
Generated from the CSD

@<TRIPOS>ATOM
     1 C1      44.8080 161.3346 -15.2013   C.3       1 RES1   0.0000
     2 O2      45.8093 161.7115 -14.2827   O.3       1 RES1   0.0000
     3 C3      45.4836 161.7499 -12.9083   C.2       1 RES1   0.0000
     4 C4      46.4885 162.1241 -12.0293   C.2       1 RES1   0.0000
     5 C5      46.2525 162.1741 -10.6660   C.2       1 RES1   0.0000
     6 C6      45.0074 161.8452 -10.1555   C.2       1 RES1   0.0000
     7 O7      44.8751 161.9167  -8.7486   O.3       1 RES1   0.0000
     8 C8      43.6536 161.6028  -8.1365   C.3       1 RES1   0.0000
     9 C9      43.5348 160.0917  -8.0996   C.3       1 RES1   0.0000
    10 C10     43.6122 162.2114  -6.7479   C.2       1 RES1   0.0000
    11 O11     42.5556 162.4248  -6.1799   O.2       1 RES1   0.0000
    12 N12     44.8670 162.5110  -6.1670   N.am      1 RES1   0.0000
    13 C13     45.1000 163.0820  -4.8890   C.2       1 RES1   0.0000
    14 C14     45.8470 162.3210  -4.0060   C.2       1 RES1   0.0000
    15 C15     46.1160 162.7910  -2.7370   C.2       1 RES1   0.0000
    16 C16     45.6290 164.0250  -2.3590   C.2       1 RES1   0.0000
    17 I17     46.0480 164.7050  -0.4040   I         1 RES1   0.0000
    18 C18     44.8780 164.7990  -3.2350   C.2       1 RES1   0.0000
    19 C19     44.6110 164.3240  -4.5100   C.2       1 RES1   0.0000
    20 C20     43.9902 161.4545 -11.0295   C.2       1 RES1   0.0000
    21 C21     44.2294 161.4061 -12.4072   C.2       1 RES1   0.0000
@<TRIPOS>BOND
     1     1     2    1
     2     2     3    1
     3     3     4    2
     4     4     5    1
     5     5     6    2
     6     6     7    1
     7     7     8    1
     8     8     9    1
     9     8    10    1
    10    10    11    2
    11    10    12   am
    12    12    13    1
    13    13    14    2
    14    14    15    1
    15    15    16    2
    16    16    17    1
    17    16    18    1
    18    18    19    2
    19     6    20    1
    20    20    21    2
    21    21     3    1
    22    19    13    1
@<TRIPOS>SUBSTRUCTURE
     1 RES1        1 GROUP             0 ****  ****    0  
@<TRIPOS>MOLECULE
ligand_49
    21    22     1     0     0
SMALL
NO_CHARGES
****
Generated from the CSD

@<TRIPOS>ATOM
     1 C1      49.6966 166.2284  -9.3750   C.3       1 RES1   0.0000
     2 O2      48.3143 166.4680  -9.5175   O.3       1 RES1   0.0000
     3 C3      47.4213 165.3865  -9.3471   C.2       1 RES1   0.0000
     4 C4      47.9731 164.1501  -9.0480   C.2       1 RES1   0.0000
     5 C5      47.1660 163.0382  -8.8783   C.2       1 RES1   0.0000
     6 C6      45.7908 163.1410  -9.0103   C.2       1 RES1   0.0000
     7 O7      45.0590 161.9436  -8.8299   O.3       1 RES1   0.0000
     8 C8      43.7520 161.9831  -8.3244   C.3       1 RES1   0.0000
     9 C9      43.2734 160.5517  -8.1796   C.3       1 RES1   0.0000
    10 C10     43.7436 162.7231  -7.0004   C.2       1 RES1   0.0000
    11 O11     42.8197 163.4531  -6.6875   O.2       1 RES1   0.0000
    12 N12     44.8670 162.5110  -6.1670   N.am      1 RES1   0.0000
    13 C13     45.1000 163.0820  -4.8890   C.2       1 RES1   0.0000
    14 C14     45.8470 162.3210  -4.0060   C.2       1 RES1   0.0000
    15 C15     46.1160 162.7910  -2.7370   C.2       1 RES1   0.0000
    16 C16     45.6290 164.0250  -2.3590   C.2       1 RES1   0.0000
    17 I17     46.0480 164.7050  -0.4040   I         1 RES1   0.0000
    18 C18     44.8780 164.7990  -3.2350   C.2       1 RES1   0.0000
    19 C19     44.6110 164.3240  -4.5100   C.2       1 RES1   0.0000
    20 C20     45.2234 164.3783  -9.3239   C.2       1 RES1   0.0000
    21 C21     46.0400 165.5017  -9.4933   C.2       1 RES1   0.0000
@<TRIPOS>BOND
     1     1     2    1
     2     2     3    1
     3     3     4    2
     4     4     5    1
     5     5     6    2
     6     6     7    1
     7     7     8    1
     8     8     9    1
     9     8    10    1
    10    10    11    2
    11    10    12   am
    12    12    13    1
    13    13    14    2
    14    14    15    1
    15    15    16    2
    16    16    17    1
    17    16    18    1
    18    18    19    2
    19     6    20    1
    20    20    21    2
    21    21     3    1
    22    19    13    1
@<TRIPOS>SUBSTRUCTURE
     1 RES1        1 GROUP             0 ****  ****    0  
@<TRIPOS>MOLECULE
ligand_50
    21    22     1     0     0
SMALL
NO_CHARGES
****
Generated from the CSD

@<TRIPOS>ATOM
     1 C1      47.7828 167.7381  -9.8225   C.3       1 RES1   0.0000
     2 O2      48.3143 166.4680  -9.5175   O.3       1 RES1   0.0000
     3 C3      47.4213 165.3865  -9.3471   C.2       1 RES1   0.0000
     4 C4      47.9731 164.1501  -9.0480   C.2       1 RES1   0.0000
     5 C5      47.1660 163.0382  -8.8783   C.2       1 RES1   0.0000
     6 C6      45.7908 163.1410  -9.0103   C.2       1 RES1   0.0000
     7 O7      45.0590 161.9436  -8.8299   O.3       1 RES1   0.0000
     8 C8      43.7520 161.9831  -8.3244   C.3       1 RES1   0.0000
     9 C9      43.2734 160.5517  -8.1796   C.3       1 RES1   0.0000
    10 C10     43.7436 162.7231  -7.0004   C.2       1 RES1   0.0000
    11 O11     42.8197 163.4531  -6.6875   O.2       1 RES1   0.0000
    12 N12     44.8670 162.5110  -6.1670   N.am      1 RES1   0.0000
    13 C13     45.1000 163.0820  -4.8890   C.2       1 RES1   0.0000
    14 C14     45.8470 162.3210  -4.0060   C.2       1 RES1   0.0000
    15 C15     46.1160 162.7910  -2.7370   C.2       1 RES1   0.0000
    16 C16     45.6290 164.0250  -2.3590   C.2       1 RES1   0.0000
    17 I17     46.0480 164.7050  -0.4040   I         1 RES1   0.0000
    18 C18     44.8780 164.7990  -3.2350   C.2       1 RES1   0.0000
    19 C19     44.6110 164.3240  -4.5100   C.2       1 RES1   0.0000
    20 C20     45.2234 164.3783  -9.3239   C.2       1 RES1   0.0000
    21 C21     46.0400 165.5017  -9.4933   C.2       1 RES1   0.0000
@<TRIPOS>BOND
     1     1     2    1
     2     2     3    1
     3     3     4    2
     4     4     5    1
     5     5     6    2
     6     6     7    1
     7     7     8    1
     8     8     9    1
     9     8    10    1
    10    10    11    2
    11    10    12   am
    12    12    13    1
    13    13    14    2
    14    14    15    1
    15    15    16    2
    16    16    17    1
    17    16    18    1
    18    18    19    2
    19     6    20    1
    20    20    21    2
    21    21     3    1
    22    19    13    1
@<TRIPOS>SUBSTRUCTURE
     1 RES1        1 GROUP             0 ****  ****    0  
@<TRIPOS>MOLECULE
ligand_51
    21    22     1     0     0
SMALL
NO_CHARGES
****
Generated from the CSD

@<TRIPOS>ATOM
     1 C1      41.6602 162.6711 -15.2993   C.3       1 RES1   0.0000
     2 O2      41.7445 161.6601 -14.3199   O.3       1 RES1   0.0000
     3 C3      42.4465 161.9355 -13.1250   C.2       1 RES1   0.0000
     4 C4      43.0101 163.1959 -12.9974   C.2       1 RES1   0.0000
     5 C5      43.7243 163.5391 -11.8621   C.2       1 RES1   0.0000
     6 C6      43.8929 162.6253 -10.8346   C.2       1 RES1   0.0000
     7 O7      44.6495 163.0717  -9.7254   O.3       1 RES1   0.0000
     8 C8      44.8757 162.2200  -8.6351   C.3       1 RES1   0.0000
     9 C9      45.9734 161.2516  -9.0304   C.3       1 RES1   0.0000
    10 C10     45.2539 163.0440  -7.4191   C.2       1 RES1   0.0000
    11 O11     45.8550 164.0981  -7.5290   O.2       1 RES1   0.0000
    12 N12     44.8670 162.5110  -6.1670   N.am      1 RES1   0.0000
    13 C13     45.1000 163.0820  -4.8890   C.2       1 RES1   0.0000
    14 C14     45.8470 162.3210  -4.0060   C.2       1 RES1   0.0000
    15 C15     46.1160 162.7910  -2.7370   C.2       1 RES1   0.0000
    16 C16     45.6290 164.0250  -2.3590   C.2       1 RES1   0.0000
    17 I17     46.0480 164.7050  -0.4040   I         1 RES1   0.0000
    18 C18     44.8780 164.7990  -3.2350   C.2       1 RES1   0.0000
    19 C19     44.6110 164.3240  -4.5100   C.2       1 RES1   0.0000
    20 C20     43.3407 161.3481 -10.9564   C.2       1 RES1   0.0000
    21 C21     42.6176 161.0031 -12.1034   C.2       1 RES1   0.0000
@<TRIPOS>BOND
     1     1     2    1
     2     2     3    1
     3     3     4    2
     4     4     5    1
     5     5     6    2
     6     6     7    1
     7     7     8    1
     8     8     9    1
     9     8    10    1
    10    10    11    2
    11    10    12   am
    12    12    13    1
    13    13    14    2
    14    14    15    1
    15    15    16    2
    16    16    17    1
    17    16    18    1
    18    18    19    2
    19     6    20    1
    20    20    21    2
    21    21     3    1
    22    19    13    1
@<TRIPOS>SUBSTRUCTURE
     1 RES1        1 GROUP             0 ****  ****    0  
@<TRIPOS>MOLECULE
ligand_52
    21    22     1     0     0
SMALL
NO_CHARGES
****
Generated from the CSD

@<TRIPOS>ATOM
     1 C1      41.1601 160.3866 -14.4789   C.3       1 RES1   0.0000
     2 O2      41.7445 161.6601 -14.3199   O.3       1 RES1   0.0000
     3 C3      42.4465 161.9355 -13.1250   C.2       1 RES1   0.0000
     4 C4      43.0101 163.1959 -12.9974   C.2       1 RES1   0.0000
     5 C5      43.7243 163.5391 -11.8621   C.2       1 RES1   0.0000
     6 C6      43.8929 162.6253 -10.8346   C.2       1 RES1   0.0000
     7 O7      44.6495 163.0717  -9.7254   O.3       1 RES1   0.0000
     8 C8      44.8757 162.2200  -8.6351   C.3       1 RES1   0.0000
     9 C9      45.9734 161.2516  -9.0304   C.3       1 RES1   0.0000
    10 C10     45.2539 163.0440  -7.4191   C.2       1 RES1   0.0000
    11 O11     45.8550 164.0981  -7.5290   O.2       1 RES1   0.0000
    12 N12     44.8670 162.5110  -6.1670   N.am      1 RES1   0.0000
    13 C13     45.1000 163.0820  -4.8890   C.2       1 RES1   0.0000
    14 C14     45.8470 162.3210  -4.0060   C.2       1 RES1   0.0000
    15 C15     46.1160 162.7910  -2.7370   C.2       1 RES1   0.0000
    16 C16     45.6290 164.0250  -2.3590   C.2       1 RES1   0.0000
    17 I17     46.0480 164.7050  -0.4040   I         1 RES1   0.0000
    18 C18     44.8780 164.7990  -3.2350   C.2       1 RES1   0.0000
    19 C19     44.6110 164.3240  -4.5100   C.2       1 RES1   0.0000
    20 C20     43.3407 161.3481 -10.9564   C.2       1 RES1   0.0000
    21 C21     42.6176 161.0031 -12.1034   C.2       1 RES1   0.0000
@<TRIPOS>BOND
     1     1     2    1
     2     2     3    1
     3     3     4    2
     4     4     5    1
     5     5     6    2
     6     6     7    1
     7     7     8    1
     8     8     9    1
     9     8    10    1
    10    10    11    2
    11    10    12   am
    12    12    13    1
    13    13    14    2
    14    14    15    1
    15    15    16    2
    16    16    17    1
    17    16    18    1
    18    18    19    2
    19     6    20    1
    20    20    21    2
    21    21     3    1
    22    19    13    1
@<TRIPOS>SUBSTRUCTURE
     1 RES1        1 GROUP             0 ****  ****    0  
@<TRIPOS>MOLECULE
ligand_53
    21    22     1     0     0
SMALL
NO_CHARGES
****
Generated from the CSD

@<TRIPOS>ATOM
     1 C1      41.0236 155.9851 -12.1960   C.3       1 RES1   0.0000
     2 O2      42.2317 156.7123 -12.1981   O.3       1 RES1   0.0000
     3 C3      42.4031 157.7382 -11.2417   C.2       1 RES1   0.0000
     4 C4      41.3587 157.9609 -10.3573   C.2       1 RES1   0.0000
     5 C5      41.4442 158.9561  -9.3987   C.2       1 RES1   0.0000
     6 C6      42.5749 159.7517  -9.3104   C.2       1 RES1   0.0000
     7 O7      42.5558 160.7472  -8.3051   O.3       1 RES1   0.0000
     8 C8      43.6536 161.6028  -8.1365   C.3       1 RES1   0.0000
     9 C9      43.5830 162.6580  -9.2230   C.3       1 RES1   0.0000
    10 C10     43.6122 162.2114  -6.7479   C.2       1 RES1   0.0000
    11 O11     42.5556 162.4248  -6.1799   O.2       1 RES1   0.0000
    12 N12     44.8670 162.5110  -6.1670   N.am      1 RES1   0.0000
    13 C13     45.1000 163.0820  -4.8890   C.2       1 RES1   0.0000
    14 C14     45.8470 162.3210  -4.0060   C.2       1 RES1   0.0000
    15 C15     46.1160 162.7910  -2.7370   C.2       1 RES1   0.0000
    16 C16     45.6290 164.0250  -2.3590   C.2       1 RES1   0.0000
    17 I17     46.0480 164.7050  -0.4040   I         1 RES1   0.0000
    18 C18     44.8780 164.7990  -3.2350   C.2       1 RES1   0.0000
    19 C19     44.6110 164.3240  -4.5100   C.2       1 RES1   0.0000
    20 C20     43.6288 159.5458 -10.2037   C.2       1 RES1   0.0000
    21 C21     43.5419 158.5385 -11.1707   C.2       1 RES1   0.0000
@<TRIPOS>BOND
     1     1     2    1
     2     2     3    1
     3     3     4    2
     4     4     5    1
     5     5     6    2
     6     6     7    1
     7     7     8    1
     8     8     9    1
     9     8    10    1
    10    10    11    2
    11    10    12   am
    12    12    13    1
    13    13    14    2
    14    14    15    1
    15    15    16    2
    16    16    17    1
    17    16    18    1
    18    18    19    2
    19     6    20    1
    20    20    21    2
    21    21     3    1
    22    19    13    1
@<TRIPOS>SUBSTRUCTURE
     1 RES1        1 GROUP             0 ****  ****    0  
@<TRIPOS>MOLECULE
ligand_54
    21    22     1     0     0
SMALL
NO_CHARGES
****
Generated from the CSD

@<TRIPOS>ATOM
     1 C1      43.2767 156.4622 -13.1113   C.3       1 RES1   0.0000
     2 O2      42.2317 156.7123 -12.1981   O.3       1 RES1   0.0000
     3 C3      42.4031 157.7382 -11.2417   C.2       1 RES1   0.0000
     4 C4      41.3587 157.9609 -10.3573   C.2       1 RES1   0.0000
     5 C5      41.4442 158.9561  -9.3987   C.2       1 RES1   0.0000
     6 C6      42.5749 159.7517  -9.3104   C.2       1 RES1   0.0000
     7 O7      42.5558 160.7472  -8.3051   O.3       1 RES1   0.0000
     8 C8      43.6536 161.6028  -8.1365   C.3       1 RES1   0.0000
     9 C9      43.5830 162.6580  -9.2230   C.3       1 RES1   0.0000
    10 C10     43.6122 162.2114  -6.7479   C.2       1 RES1   0.0000
    11 O11     42.5556 162.4248  -6.1799   O.2       1 RES1   0.0000
    12 N12     44.8670 162.5110  -6.1670   N.am      1 RES1   0.0000
    13 C13     45.1000 163.0820  -4.8890   C.2       1 RES1   0.0000
    14 C14     45.8470 162.3210  -4.0060   C.2       1 RES1   0.0000
    15 C15     46.1160 162.7910  -2.7370   C.2       1 RES1   0.0000
    16 C16     45.6290 164.0250  -2.3590   C.2       1 RES1   0.0000
    17 I17     46.0480 164.7050  -0.4040   I         1 RES1   0.0000
    18 C18     44.8780 164.7990  -3.2350   C.2       1 RES1   0.0000
    19 C19     44.6110 164.3240  -4.5100   C.2       1 RES1   0.0000
    20 C20     43.6288 159.5458 -10.2037   C.2       1 RES1   0.0000
    21 C21     43.5419 158.5385 -11.1707   C.2       1 RES1   0.0000
@<TRIPOS>BOND
     1     1     2    1
     2     2     3    1
     3     3     4    2
     4     4     5    1
     5     5     6    2
     6     6     7    1
     7     7     8    1
     8     8     9    1
     9     8    10    1
    10    10    11    2
    11    10    12   am
    12    12    13    1
    13    13    14    2
    14    14    15    1
    15    15    16    2
    16    16    17    1
    17    16    18    1
    18    18    19    2
    19     6    20    1
    20    20    21    2
    21    21     3    1
    22    19    13    1
@<TRIPOS>SUBSTRUCTURE
     1 RES1        1 GROUP             0 ****  ****    0  
@<TRIPOS>MOLECULE
ligand_55
    21    22     1     0     0
SMALL
NO_CHARGES
****
Generated from the CSD

@<TRIPOS>ATOM
     1 C1      39.7489 166.4922 -10.6731   C.3       1 RES1   0.0000
     2 O2      41.1293 166.3808 -10.9387   O.3       1 RES1   0.0000
     3 C3      41.8451 165.3136 -10.3513   C.2       1 RES1   0.0000
     4 C4      43.2007 165.2301 -10.6306   C.2       1 RES1   0.0000
     5 C5      43.9692 164.2063 -10.1034   C.2       1 RES1   0.0000
     6 C6      43.3946 163.2428  -9.2907   C.2       1 RES1   0.0000
     7 O7      44.2646 162.2336  -8.8146   O.3       1 RES1   0.0000
     8 C8      43.7774 161.2137  -7.9852   C.3       1 RES1   0.0000
     9 C9      44.6620 159.9986  -8.1856   C.3       1 RES1   0.0000
    10 C10     43.7797 161.6884  -6.5447   C.2       1 RES1   0.0000
    11 O11     42.8922 161.3736  -5.7716   O.2       1 RES1   0.0000
    12 N12     44.8670 162.5110  -6.1670   N.am      1 RES1   0.0000
    13 C13     45.1000 163.0820  -4.8890   C.2       1 RES1   0.0000
    14 C14     45.8470 162.3210  -4.0060   C.2       1 RES1   0.0000
    15 C15     46.1160 162.7910  -2.7370   C.2       1 RES1   0.0000
    16 C16     45.6290 164.0250  -2.3590   C.2       1 RES1   0.0000
    17 I17     46.0480 164.7050  -0.4040   I         1 RES1   0.0000
    18 C18     44.8780 164.7990  -3.2350   C.2       1 RES1   0.0000
    19 C19     44.6110 164.3240  -4.5100   C.2       1 RES1   0.0000
    20 C20     42.0274 163.3085  -9.0119   C.2       1 RES1   0.0000
    21 C21     41.2522 164.3446  -9.5438   C.2       1 RES1   0.0000
@<TRIPOS>BOND
     1     1     2    1
     2     2     3    1
     3     3     4    2
     4     4     5    1
     5     5     6    2
     6     6     7    1
     7     7     8    1
     8     8     9    1
     9     8    10    1
    10    10    11    2
    11    10    12   am
    12    12    13    1
    13    13    14    2
    14    14    15    1
    15    15    16    2
    16    16    17    1
    17    16    18    1
    18    18    19    2
    19     6    20    1
    20    20    21    2
    21    21     3    1
    22    19    13    1
@<TRIPOS>SUBSTRUCTURE
     1 RES1        1 GROUP             0 ****  ****    0  
@<TRIPOS>MOLECULE
ligand_56
    21    22     1     0     0
SMALL
NO_CHARGES
****
Generated from the CSD

@<TRIPOS>ATOM
     1 C1      47.3415 160.3087 -14.3635   C.3       1 RES1   0.0000
     2 O2      46.8210 159.3356 -13.4855   O.3       1 RES1   0.0000
     3 C3      46.3514 159.7518 -12.2196   C.2       1 RES1   0.0000
     4 C4      46.4360 161.1041 -11.9255   C.2       1 RES1   0.0000
     5 C5      46.0085 161.5894 -10.7014   C.2       1 RES1   0.0000
     6 C6      45.4928 160.7294  -9.7455   C.2       1 RES1   0.0000
     7 O7      45.0968 161.3248  -8.5246   O.3       1 RES1   0.0000
     8 C8      44.0463 162.2527  -8.4985   C.3       1 RES1   0.0000
     9 C9      42.7466 161.4755  -8.5742   C.3       1 RES1   0.0000
    10 C10     44.1386 163.0864  -7.2347   C.2       1 RES1   0.0000
    11 O11     43.6136 164.1832  -7.1584   O.2       1 RES1   0.0000
    12 N12     44.8670 162.5110  -6.1670   N.am      1 RES1   0.0000
    13 C13     45.1000 163.0820  -4.8890   C.2       1 RES1   0.0000
    14 C14     45.8470 162.3210  -4.0060   C.2       1 RES1   0.0000
    15 C15     46.1160 162.7910  -2.7370   C.2       1 RES1   0.0000
    16 C16     45.6290 164.0250  -2.3590   C.2       1 RES1   0.0000
    17 I17     46.0480 164.7050  -0.4040   I         1 RES1   0.0000
    18 C18     44.8780 164.7990  -3.2350   C.2       1 RES1   0.0000
    19 C19     44.6110 164.3240  -4.5100   C.2       1 RES1   0.0000
    20 C20     45.4138 159.3631 -10.0247   C.2       1 RES1   0.0000
    21 C21     45.8445 158.8742 -11.2628   C.2       1 RES1   0.0000
@<TRIPOS>BOND
     1     1     2    1
     2     2     3    1
     3     3     4    2
     4     4     5    1
     5     5     6    2
     6     6     7    1
     7     7     8    1
     8     8     9    1
     9     8    10    1
    10    10    11    2
    11    10    12   am
    12    12    13    1
    13    13    14    2
    14    14    15    1
    15    15    16    2
    16    16    17    1
    17    16    18    1
    18    18    19    2
    19     6    20    1
    20    20    21    2
    21    21     3    1
    22    19    13    1
@<TRIPOS>SUBSTRUCTURE
     1 RES1        1 GROUP             0 ****  ****    0  
@<TRIPOS>MOLECULE
ligand_57
    21    22     1     0     0
SMALL
NO_CHARGES
****
Generated from the CSD

@<TRIPOS>ATOM
     1 C1      46.7480 157.9662 -13.8136   C.3       1 RES1   0.0000
     2 O2      46.8210 159.3356 -13.4855   O.3       1 RES1   0.0000
     3 C3      46.3514 159.7518 -12.2196   C.2       1 RES1   0.0000
     4 C4      46.4360 161.1041 -11.9255   C.2       1 RES1   0.0000
     5 C5      46.0085 161.5894 -10.7014   C.2       1 RES1   0.0000
     6 C6      45.4928 160.7294  -9.7455   C.2       1 RES1   0.0000
     7 O7      45.0968 161.3248  -8.5246   O.3       1 RES1   0.0000
     8 C8      44.0463 162.2527  -8.4985   C.3       1 RES1   0.0000
     9 C9      42.7466 161.4755  -8.5742   C.3       1 RES1   0.0000
    10 C10     44.1386 163.0864  -7.2347   C.2       1 RES1   0.0000
    11 O11     43.6136 164.1832  -7.1584   O.2       1 RES1   0.0000
    12 N12     44.8670 162.5110  -6.1670   N.am      1 RES1   0.0000
    13 C13     45.1000 163.0820  -4.8890   C.2       1 RES1   0.0000
    14 C14     45.8470 162.3210  -4.0060   C.2       1 RES1   0.0000
    15 C15     46.1160 162.7910  -2.7370   C.2       1 RES1   0.0000
    16 C16     45.6290 164.0250  -2.3590   C.2       1 RES1   0.0000
    17 I17     46.0480 164.7050  -0.4040   I         1 RES1   0.0000
    18 C18     44.8780 164.7990  -3.2350   C.2       1 RES1   0.0000
    19 C19     44.6110 164.3240  -4.5100   C.2       1 RES1   0.0000
    20 C20     45.4138 159.3631 -10.0247   C.2       1 RES1   0.0000
    21 C21     45.8445 158.8742 -11.2628   C.2       1 RES1   0.0000
@<TRIPOS>BOND
     1     1     2    1
     2     2     3    1
     3     3     4    2
     4     4     5    1
     5     5     6    2
     6     6     7    1
     7     7     8    1
     8     8     9    1
     9     8    10    1
    10    10    11    2
    11    10    12   am
    12    12    13    1
    13    13    14    2
    14    14    15    1
    15    15    16    2
    16    16    17    1
    17    16    18    1
    18    18    19    2
    19     6    20    1
    20    20    21    2
    21    21     3    1
    22    19    13    1
@<TRIPOS>SUBSTRUCTURE
     1 RES1        1 GROUP             0 ****  ****    0  
@<TRIPOS>MOLECULE
ligand_58
    21    22     1     0     0
SMALL
NO_CHARGES
****
Generated from the CSD

@<TRIPOS>ATOM
     1 C1      45.2666 157.9520 -13.8874   C.3       1 RES1   0.0000
     2 O2      46.2836 158.7969 -13.3972   O.3       1 RES1   0.0000
     3 C3      46.0734 159.4628 -12.1688   C.2       1 RES1   0.0000
     4 C4      44.8675 159.2358 -11.5232   C.2       1 RES1   0.0000
     5 C5      44.5805 159.8606 -10.3216   C.2       1 RES1   0.0000
     6 C6      45.4928 160.7294  -9.7455   C.2       1 RES1   0.0000
     7 O7      45.0968 161.3248  -8.5246   O.3       1 RES1   0.0000
     8 C8      44.0463 162.2527  -8.4985   C.3       1 RES1   0.0000
     9 C9      42.7467 161.4725  -8.4630   C.3       1 RES1   0.0000
    10 C10     44.2003 163.1578  -7.2912   C.2       1 RES1   0.0000
    11 O11     43.6767 164.2572  -7.2514   O.2       1 RES1   0.0000
    12 N12     44.9837 162.6449  -6.2305   N.am      1 RES1   0.0000
    13 C13     45.2781 163.2878  -5.0002   C.2       1 RES1   0.0000
    14 C14     46.0749 162.5808  -4.1159   C.2       1 RES1   0.0000
    15 C15     46.4055 163.1224  -2.8908   C.2       1 RES1   0.0000
    16 C16     45.9298 164.3736  -2.5577   C.2       1 RES1   0.0000
    17 I17     46.4440 165.1642  -0.6680   I         1 RES1   0.0000
    18 C18     45.1292 165.0940  -3.4355   C.2       1 RES1   0.0000
    19 C19     44.8004 164.5470  -4.6664   C.2       1 RES1   0.0000
    20 C20     46.7060 160.9764 -10.3922   C.2       1 RES1   0.0000
    21 C21     46.9957 160.3429 -11.6056   C.2       1 RES1   0.0000
@<TRIPOS>BOND
     1     1     2    1
     2     2     3    1
     3     3     4    2
     4     4     5    1
     5     5     6    2
     6     6     7    1
     7     7     8    1
     8     8     9    1
     9     8    10    1
    10    10    11    2
    11    10    12   am
    12    12    13    1
    13    13    14    2
    14    14    15    1
    15    15    16    2
    16    16    17    1
    17    16    18    1
    18    18    19    2
    19     6    20    1
    20    20    21    2
    21    21     3    1
    22    19    13    1
@<TRIPOS>SUBSTRUCTURE
     1 RES1        1 GROUP             0 ****  ****    0  
@<TRIPOS>MOLECULE
ligand_59
    21    22     1     0     0
SMALL
NO_CHARGES
****
Generated from the CSD

@<TRIPOS>ATOM
     1 C1      47.5009 159.0075 -14.0772   C.3       1 RES1   0.0000
     2 O2      46.2836 158.7969 -13.3972   O.3       1 RES1   0.0000
     3 C3      46.0734 159.4628 -12.1688   C.2       1 RES1   0.0000
     4 C4      44.8675 159.2358 -11.5232   C.2       1 RES1   0.0000
     5 C5      44.5805 159.8606 -10.3216   C.2       1 RES1   0.0000
     6 C6      45.4928 160.7294  -9.7455   C.2       1 RES1   0.0000
     7 O7      45.0968 161.3248  -8.5246   O.3       1 RES1   0.0000
     8 C8      44.0463 162.2527  -8.4985   C.3       1 RES1   0.0000
     9 C9      42.7467 161.4725  -8.4630   C.3       1 RES1   0.0000
    10 C10     44.2003 163.1578  -7.2912   C.2       1 RES1   0.0000
    11 O11     43.6767 164.2572  -7.2514   O.2       1 RES1   0.0000
    12 N12     44.9837 162.6449  -6.2305   N.am      1 RES1   0.0000
    13 C13     45.2781 163.2878  -5.0002   C.2       1 RES1   0.0000
    14 C14     46.0749 162.5808  -4.1159   C.2       1 RES1   0.0000
    15 C15     46.4055 163.1224  -2.8908   C.2       1 RES1   0.0000
    16 C16     45.9298 164.3736  -2.5577   C.2       1 RES1   0.0000
    17 I17     46.4440 165.1642  -0.6680   I         1 RES1   0.0000
    18 C18     45.1292 165.0940  -3.4355   C.2       1 RES1   0.0000
    19 C19     44.8004 164.5470  -4.6664   C.2       1 RES1   0.0000
    20 C20     46.7060 160.9764 -10.3922   C.2       1 RES1   0.0000
    21 C21     46.9957 160.3429 -11.6056   C.2       1 RES1   0.0000
@<TRIPOS>BOND
     1     1     2    1
     2     2     3    1
     3     3     4    2
     4     4     5    1
     5     5     6    2
     6     6     7    1
     7     7     8    1
     8     8     9    1
     9     8    10    1
    10    10    11    2
    11    10    12   am
    12    12    13    1
    13    13    14    2
    14    14    15    1
    15    15    16    2
    16    16    17    1
    17    16    18    1
    18    18    19    2
    19     6    20    1
    20    20    21    2
    21    21     3    1
    22    19    13    1
@<TRIPOS>SUBSTRUCTURE
     1 RES1        1 GROUP             0 ****  ****    0  
@<TRIPOS>MOLECULE
ligand_60
    21    22     1     0     0
SMALL
NO_CHARGES
****
Generated from the CSD

@<TRIPOS>ATOM
     1 C1      37.2055 161.5090  -9.6292   C.3       1 RES1   0.0000
     2 O2      38.0130 161.5065  -8.4731   O.3       1 RES1   0.0000
     3 C3      39.3776 161.8494  -8.6029   C.2       1 RES1   0.0000
     4 C4      39.8328 162.1683  -9.8732   C.2       1 RES1   0.0000
     5 C5      41.1593 162.5029 -10.0853   C.2       1 RES1   0.0000
     6 C6      42.0575 162.5194  -9.0308   C.2       1 RES1   0.0000
     7 O7      43.3909 162.8621  -9.3570   O.3       1 RES1   0.0000
     8 C8      44.4576 162.3395  -8.6122   C.3       1 RES1   0.0000
     9 C9      45.6718 162.2965  -9.5192   C.3       1 RES1   0.0000
    10 C10     44.6914 163.2038  -7.3880   C.2       1 RES1   0.0000
    11 O11     44.7246 164.4192  -7.4664   O.2       1 RES1   0.0000
    12 N12     44.8670 162.5110  -6.1670   N.am      1 RES1   0.0000
    13 C13     45.1000 163.0820  -4.8890   C.2       1 RES1   0.0000
    14 C14     45.8470 162.3210  -4.0060   C.2       1 RES1   0.0000
    15 C15     46.1160 162.7910  -2.7370   C.2       1 RES1   0.0000
    16 C16     45.6290 164.0250  -2.3590   C.2       1 RES1   0.0000
    17 I17     46.0480 164.7050  -0.4040   I         1 RES1   0.0000
    18 C18     44.8780 164.7990  -3.2350   C.2       1 RES1   0.0000
    19 C19     44.6110 164.3240  -4.5100   C.2       1 RES1   0.0000
    20 C20     41.6142 162.1879  -7.7483   C.2       1 RES1   0.0000
    21 C21     40.2730 161.8517  -7.5349   C.2       1 RES1   0.0000
@<TRIPOS>BOND
     1     1     2    1
     2     2     3    1
     3     3     4    2
     4     4     5    1
     5     5     6    2
     6     6     7    1
     7     7     8    1
     8     8     9    1
     9     8    10    1
    10    10    11    2
    11    10    12   am
    12    12    13    1
    13    13    14    2
    14    14    15    1
    15    15    16    2
    16    16    17    1
    17    16    18    1
    18    18    19    2
    19     6    20    1
    20    20    21    2
    21    21     3    1
    22    19    13    1
@<TRIPOS>SUBSTRUCTURE
     1 RES1        1 GROUP             0 ****  ****    0  
@<TRIPOS>MOLECULE
ligand_61
    21    22     1     0     0
SMALL
NO_CHARGES
****
Generated from the CSD

@<TRIPOS>ATOM
     1 C1      37.5205 161.1773  -7.1935   C.3       1 RES1   0.0000
     2 O2      38.0130 161.5065  -8.4731   O.3       1 RES1   0.0000
     3 C3      39.3776 161.8494  -8.6029   C.2       1 RES1   0.0000
     4 C4      39.8328 162.1683  -9.8732   C.2       1 RES1   0.0000
     5 C5      41.1593 162.5029 -10.0853   C.2       1 RES1   0.0000
     6 C6      42.0575 162.5194  -9.0308   C.2       1 RES1   0.0000
     7 O7      43.3909 162.8621  -9.3570   O.3       1 RES1   0.0000
     8 C8      44.4576 162.3395  -8.6122   C.3       1 RES1   0.0000
     9 C9      45.6718 162.2965  -9.5192   C.3       1 RES1   0.0000
    10 C10     44.6914 163.2038  -7.3880   C.2       1 RES1   0.0000
    11 O11     44.7246 164.4192  -7.4664   O.2       1 RES1   0.0000
    12 N12     44.8670 162.5110  -6.1670   N.am      1 RES1   0.0000
    13 C13     45.1000 163.0820  -4.8890   C.2       1 RES1   0.0000
    14 C14     45.8470 162.3210  -4.0060   C.2       1 RES1   0.0000
    15 C15     46.1160 162.7910  -2.7370   C.2       1 RES1   0.0000
    16 C16     45.6290 164.0250  -2.3590   C.2       1 RES1   0.0000
    17 I17     46.0480 164.7050  -0.4040   I         1 RES1   0.0000
    18 C18     44.8780 164.7990  -3.2350   C.2       1 RES1   0.0000
    19 C19     44.6110 164.3240  -4.5100   C.2       1 RES1   0.0000
    20 C20     41.6142 162.1879  -7.7483   C.2       1 RES1   0.0000
    21 C21     40.2730 161.8517  -7.5349   C.2       1 RES1   0.0000
@<TRIPOS>BOND
     1     1     2    1
     2     2     3    1
     3     3     4    2
     4     4     5    1
     5     5     6    2
     6     6     7    1
     7     7     8    1
     8     8     9    1
     9     8    10    1
    10    10    11    2
    11    10    12   am
    12    12    13    1
    13    13    14    2
    14    14    15    1
    15    15    16    2
    16    16    17    1
    17    16    18    1
    18    18    19    2
    19     6    20    1
    20    20    21    2
    21    21     3    1
    22    19    13    1
@<TRIPOS>SUBSTRUCTURE
     1 RES1        1 GROUP             0 ****  ****    0  
@<TRIPOS>MOLECULE
ligand_62
    21    22     1     0     0
SMALL
NO_CHARGES
****
Generated from the CSD

@<TRIPOS>ATOM
     1 C1      37.1005 162.9095  -8.5874   C.3       1 RES1   0.0000
     2 O2      37.9779 161.8599  -8.2454   O.3       1 RES1   0.0000
     3 C3      39.3605 162.0335  -8.4791   C.2       1 RES1   0.0000
     4 C4      39.7629 163.2386  -9.0344   C.2       1 RES1   0.0000
     5 C5      41.0988 163.4810  -9.3054   C.2       1 RES1   0.0000
     6 C6      42.0575 162.5194  -9.0308   C.2       1 RES1   0.0000
     7 O7      43.3909 162.8621  -9.3570   O.3       1 RES1   0.0000
     8 C8      44.4576 162.3395  -8.6122   C.3       1 RES1   0.0000
     9 C9      45.6741 162.3049  -9.5166   C.3       1 RES1   0.0000
    10 C10     44.6856 163.1987  -7.3833   C.2       1 RES1   0.0000
    11 O11     44.7149 164.4146  -7.4558   O.2       1 RES1   0.0000
    12 N12     44.8607 162.5006  -6.1652   N.am      1 RES1   0.0000
    13 C13     45.0854 163.0664  -4.8834   C.2       1 RES1   0.0000
    14 C14     45.8405 162.3089  -4.0043   C.2       1 RES1   0.0000
    15 C15     46.1024 162.7741  -2.7321   C.2       1 RES1   0.0000
    16 C16     45.6001 163.9998  -2.3469   C.2       1 RES1   0.0000
    17 I17     46.0087 164.6725  -0.3872   I         1 RES1   0.0000
    18 C18     44.8408 164.7701  -3.2190   C.2       1 RES1   0.0000
    19 C19     44.5810 164.3000  -4.4972   C.2       1 RES1   0.0000
    20 C20     41.6636 161.2964  -8.4828   C.2       1 RES1   0.0000
    21 C21     40.3135 161.0534  -8.2078   C.2       1 RES1   0.0000
@<TRIPOS>BOND
     1     1     2    1
     2     2     3    1
     3     3     4    2
     4     4     5    1
     5     5     6    2
     6     6     7    1
     7     7     8    1
     8     8     9    1
     9     8    10    1
    10    10    11    2
    11    10    12   am
    12    12    13    1
    13    13    14    2
    14    14    15    1
    15    15    16    2
    16    16    17    1
    17    16    18    1
    18    18    19    2
    19     6    20    1
    20    20    21    2
    21    21     3    1
    22    19    13    1
@<TRIPOS>SUBSTRUCTURE
     1 RES1        1 GROUP             0 ****  ****    0  
@<TRIPOS>MOLECULE
ligand_63
    21    22     1     0     0
SMALL
NO_CHARGES
****
Generated from the CSD

@<TRIPOS>ATOM
     1 C1      37.5381 160.6448  -7.6809   C.3       1 RES1   0.0000
     2 O2      37.9779 161.8599  -8.2454   O.3       1 RES1   0.0000
     3 C3      39.3605 162.0335  -8.4791   C.2       1 RES1   0.0000
     4 C4      39.7629 163.2386  -9.0344   C.2       1 RES1   0.0000
     5 C5      41.0988 163.4810  -9.3054   C.2       1 RES1   0.0000
     6 C6      42.0575 162.5194  -9.0308   C.2       1 RES1   0.0000
     7 O7      43.3909 162.8621  -9.3570   O.3       1 RES1   0.0000
     8 C8      44.4576 162.3395  -8.6122   C.3       1 RES1   0.0000
     9 C9      45.6741 162.3049  -9.5166   C.3       1 RES1   0.0000
    10 C10     44.6856 163.1987  -7.3833   C.2       1 RES1   0.0000
    11 O11     44.7149 164.4146  -7.4558   O.2       1 RES1   0.0000
    12 N12     44.8607 162.5006  -6.1652   N.am      1 RES1   0.0000
    13 C13     45.0854 163.0664  -4.8834   C.2       1 RES1   0.0000
    14 C14     45.8405 162.3089  -4.0043   C.2       1 RES1   0.0000
    15 C15     46.1024 162.7741  -2.7321   C.2       1 RES1   0.0000
    16 C16     45.6002 163.9998  -2.3469   C.2       1 RES1   0.0000
    17 I17     46.0088 164.6725  -0.3872   I         1 RES1   0.0000
    18 C18     44.8408 164.7701  -3.2190   C.2       1 RES1   0.0000
    19 C19     44.5810 164.3000  -4.4972   C.2       1 RES1   0.0000
    20 C20     41.6636 161.2964  -8.4828   C.2       1 RES1   0.0000
    21 C21     40.3135 161.0534  -8.2078   C.2       1 RES1   0.0000
@<TRIPOS>BOND
     1     1     2    1
     2     2     3    1
     3     3     4    2
     4     4     5    1
     5     5     6    2
     6     6     7    1
     7     7     8    1
     8     8     9    1
     9     8    10    1
    10    10    11    2
    11    10    12   am
    12    12    13    1
    13    13    14    2
    14    14    15    1
    15    15    16    2
    16    16    17    1
    17    16    18    1
    18    18    19    2
    19     6    20    1
    20    20    21    2
    21    21     3    1
    22    19    13    1
@<TRIPOS>SUBSTRUCTURE
     1 RES1        1 GROUP             0 ****  ****    0  
@<TRIPOS>MOLECULE
ligand_64
    21    22     1     0     0
SMALL
NO_CHARGES
****
Generated from the CSD

@<TRIPOS>ATOM
     1 C1      46.6349 168.0092 -10.0777   C.3       1 RES1   0.0000
     2 O2      45.6234 167.1699 -10.5885   O.3       1 RES1   0.0000
     3 C3      45.5151 165.8567 -10.0783   C.2       1 RES1   0.0000
     4 C4      44.5111 165.0551 -10.5997   C.2       1 RES1   0.0000
     5 C5      44.3318 163.7604 -10.1434   C.2       1 RES1   0.0000
     6 C6      45.1505 163.2446  -9.1521   C.2       1 RES1   0.0000
     7 O7      44.8751 161.9167  -8.7486   O.3       1 RES1   0.0000
     8 C8      43.6536 161.6028  -8.1365   C.3       1 RES1   0.0000
     9 C9      43.5348 160.0917  -8.0996   C.3       1 RES1   0.0000
    10 C10     43.6122 162.2114  -6.7479   C.2       1 RES1   0.0000
    11 O11     42.5556 162.4248  -6.1799   O.2       1 RES1   0.0000
    12 N12     44.8670 162.5110  -6.1670   N.am      1 RES1   0.0000
    13 C13     45.1000 163.0820  -4.8890   C.2       1 RES1   0.0000
    14 C14     45.8470 162.3210  -4.0060   C.2       1 RES1   0.0000
    15 C15     46.1160 162.7910  -2.7370   C.2       1 RES1   0.0000
    16 C16     45.6290 164.0250  -2.3590   C.2       1 RES1   0.0000
    17 I17     46.0480 164.7050  -0.4040   I         1 RES1   0.0000
    18 C18     44.8780 164.7990  -3.2350   C.2       1 RES1   0.0000
    19 C19     44.6110 164.3240  -4.5100   C.2       1 RES1   0.0000
    20 C20     46.1577 164.0463  -8.6096   C.2       1 RES1   0.0000
    21 C21     46.3390 165.3539  -9.0729   C.2       1 RES1   0.0000
@<TRIPOS>BOND
     1     1     2    1
     2     2     3    1
     3     3     4    2
     4     4     5    1
     5     5     6    2
     6     6     7    1
     7     7     8    1
     8     8     9    1
     9     8    10    1
    10    10    11    2
    11    10    12   am
    12    12    13    1
    13    13    14    2
    14    14    15    1
    15    15    16    2
    16    16    17    1
    17    16    18    1
    18    18    19    2
    19     6    20    1
    20    20    21    2
    21    21     3    1
    22    19    13    1
@<TRIPOS>SUBSTRUCTURE
     1 RES1        1 GROUP             0 ****  ****    0  
@<TRIPOS>MOLECULE
ligand_65
    21    22     1     0     0
SMALL
NO_CHARGES
****
Generated from the CSD

@<TRIPOS>ATOM
     1 C1      45.6087 167.9179 -11.0786   C.3       1 RES1   0.0000
     2 O2      46.3132 167.1718 -10.1115   O.3       1 RES1   0.0000
     3 C3      45.8741 165.8609  -9.8196   C.2       1 RES1   0.0000
     4 C4      46.5863 165.1520  -8.8642   C.2       1 RES1   0.0000
     5 C5      46.2268 163.8572  -8.5311   C.2       1 RES1   0.0000
     6 C6      45.1505 163.2446  -9.1521   C.2       1 RES1   0.0000
     7 O7      44.8751 161.9167  -8.7486   O.3       1 RES1   0.0000
     8 C8      43.6536 161.6028  -8.1365   C.3       1 RES1   0.0000
     9 C9      43.5151 160.0929  -8.1382   C.3       1 RES1   0.0000
    10 C10     43.6293 162.1754  -6.7322   C.2       1 RES1   0.0000
    11 O11     42.5794 162.4301  -6.1689   O.2       1 RES1   0.0000
    12 N12     44.8918 162.3911  -6.1311   N.am      1 RES1   0.0000
    13 C13     45.1413 162.9342  -4.8441   C.2       1 RES1   0.0000
    14 C14     45.8273 162.1200  -3.9591   C.2       1 RES1   0.0000
    15 C15     46.1066 162.5601  -2.6816   C.2       1 RES1   0.0000
    16 C16     45.6912 163.8181  -2.2973   C.2       1 RES1   0.0000
    17 I17     46.1234 164.4519  -0.3297   I         1 RES1   0.0000
    18 C18     45.0020 164.6455  -3.1752   C.2       1 RES1   0.0000
    19 C19     44.7244 164.2003  -4.4587   C.2       1 RES1   0.0000
    20 C20     44.4326 163.9435 -10.1253   C.2       1 RES1   0.0000
    21 C21     44.7958 165.2527 -10.4597   C.2       1 RES1   0.0000
@<TRIPOS>BOND
     1     1     2    1
     2     2     3    1
     3     3     4    2
     4     4     5    1
     5     5     6    2
     6     6     7    1
     7     7     8    1
     8     8     9    1
     9     8    10    1
    10    10    11    2
    11    10    12   am
    12    12    13    1
    13    13    14    2
    14    14    15    1
    15    15    16    2
    16    16    17    1
    17    16    18    1
    18    18    19    2
    19     6    20    1
    20    20    21    2
    21    21     3    1
    22    19    13    1
@<TRIPOS>SUBSTRUCTURE
     1 RES1        1 GROUP             0 ****  ****    0  
@<TRIPOS>MOLECULE
ligand_66
    21    22     1     0     0
SMALL
NO_CHARGES
****
Generated from the CSD

@<TRIPOS>ATOM
     1 C1      49.1243 156.3948  -7.9086   C.3       1 RES1   0.0000
     2 O2      48.9487 157.4698  -7.0130   O.3       1 RES1   0.0000
     3 C3      47.8856 158.3718  -7.2424   C.2       1 RES1   0.0000
     4 C4      47.0792 158.1337  -8.3449   C.2       1 RES1   0.0000
     5 C5      46.0245 158.9788  -8.6449   C.2       1 RES1   0.0000
     6 C6      45.7597 160.0821  -7.8502   C.2       1 RES1   0.0000
     7 O7      44.6678 160.8878  -8.2511   O.3       1 RES1   0.0000
     8 C8      44.8757 162.2200  -8.6351   C.3       1 RES1   0.0000
     9 C9      43.6610 162.6633  -9.4270   C.3       1 RES1   0.0000
    10 C10     45.0938 163.0742  -7.4009   C.2       1 RES1   0.0000
    11 O11     45.7281 164.1132  -7.4524   O.2       1 RES1   0.0000
    12 N12     44.5190 162.5875  -6.2032   N.am      1 RES1   0.0000
    13 C13     44.5780 163.1940  -4.9217   C.2       1 RES1   0.0000
    14 C14     45.1727 162.4477  -3.9186   C.2       1 RES1   0.0000
    15 C15     45.2663 162.9524  -2.6379   C.2       1 RES1   0.0000
    16 C16     44.7576 164.2062  -2.3696   C.2       1 RES1   0.0000
    17 I17     44.9053 164.9395  -0.3946   I         1 RES1   0.0000
    18 C18     44.1582 164.9657  -3.3667   C.2       1 RES1   0.0000
    19 C19     44.0673 164.4559  -4.6530   C.2       1 RES1   0.0000
    20 C20     46.5724 160.3402  -6.7438   C.2       1 RES1   0.0000
    21 C21     47.6369 159.4844  -6.4406   C.2       1 RES1   0.0000
@<TRIPOS>BOND
     1     1     2    1
     2     2     3    1
     3     3     4    2
     4     4     5    1
     5     5     6    2
     6     6     7    1
     7     7     8    1
     8     8     9    1
     9     8    10    1
    10    10    11    2
    11    10    12   am
    12    12    13    1
    13    13    14    2
    14    14    15    1
    15    15    16    2
    16    16    17    1
    17    16    18    1
    18    18    19    2
    19     6    20    1
    20    20    21    2
    21    21     3    1
    22    19    13    1
@<TRIPOS>SUBSTRUCTURE
     1 RES1        1 GROUP             0 ****  ****    0  
@<TRIPOS>MOLECULE
ligand_67
    21    22     1     0     0
SMALL
NO_CHARGES
****
Generated from the CSD

@<TRIPOS>ATOM
     1 C1      49.7859 157.6856  -5.8991   C.3       1 RES1   0.0000
     2 O2      48.9487 157.4698  -7.0130   O.3       1 RES1   0.0000
     3 C3      47.8856 158.3718  -7.2424   C.2       1 RES1   0.0000
     4 C4      47.0792 158.1337  -8.3449   C.2       1 RES1   0.0000
     5 C5      46.0245 158.9788  -8.6449   C.2       1 RES1   0.0000
     6 C6      45.7597 160.0821  -7.8502   C.2       1 RES1   0.0000
     7 O7      44.6678 160.8878  -8.2511   O.3       1 RES1   0.0000
     8 C8      44.8757 162.2200  -8.6351   C.3       1 RES1   0.0000
     9 C9      43.6610 162.6633  -9.4270   C.3       1 RES1   0.0000
    10 C10     45.0938 163.0742  -7.4009   C.2       1 RES1   0.0000
    11 O11     45.7281 164.1132  -7.4524   O.2       1 RES1   0.0000
    12 N12     44.5190 162.5875  -6.2032   N.am      1 RES1   0.0000
    13 C13     44.5780 163.1940  -4.9217   C.2       1 RES1   0.0000
    14 C14     45.1727 162.4477  -3.9186   C.2       1 RES1   0.0000
    15 C15     45.2663 162.9524  -2.6379   C.2       1 RES1   0.0000
    16 C16     44.7576 164.2062  -2.3696   C.2       1 RES1   0.0000
    17 I17     44.9053 164.9395  -0.3946   I         1 RES1   0.0000
    18 C18     44.1582 164.9657  -3.3667   C.2       1 RES1   0.0000
    19 C19     44.0673 164.4559  -4.6530   C.2       1 RES1   0.0000
    20 C20     46.5724 160.3402  -6.7438   C.2       1 RES1   0.0000
    21 C21     47.6369 159.4844  -6.4406   C.2       1 RES1   0.0000
@<TRIPOS>BOND
     1     1     2    1
     2     2     3    1
     3     3     4    2
     4     4     5    1
     5     5     6    2
     6     6     7    1
     7     7     8    1
     8     8     9    1
     9     8    10    1
    10    10    11    2
    11    10    12   am
    12    12    13    1
    13    13    14    2
    14    14    15    1
    15    15    16    2
    16    16    17    1
    17    16    18    1
    18    18    19    2
    19     6    20    1
    20    20    21    2
    21    21     3    1
    22    19    13    1
@<TRIPOS>SUBSTRUCTURE
     1 RES1        1 GROUP             0 ****  ****    0  
@<TRIPOS>MOLECULE
ligand_68
    21    22     1     0     0
SMALL
NO_CHARGES
****
Generated from the CSD

@<TRIPOS>ATOM
     1 C1      46.0683 167.1295 -12.1497   C.3       1 RES1   0.0000
     2 O2      45.9378 167.0564 -10.7476   O.3       1 RES1   0.0000
     3 C3      45.6830 165.7975 -10.1587   C.2       1 RES1   0.0000
     4 C4      45.5782 164.7088 -11.0110   C.2       1 RES1   0.0000
     5 C5      45.3173 163.4438 -10.5128   C.2       1 RES1   0.0000
     6 C6      45.1505 163.2446  -9.1521   C.2       1 RES1   0.0000
     7 O7      44.8751 161.9167  -8.7486   O.3       1 RES1   0.0000
     8 C8      43.6536 161.6028  -8.1365   C.3       1 RES1   0.0000
     9 C9      43.4582 160.1032  -8.2465   C.3       1 RES1   0.0000
    10 C10     43.6757 162.0699  -6.6937   C.2       1 RES1   0.0000
    11 O11     42.6476 162.3407  -6.0986   O.2       1 RES1   0.0000
    12 N12     44.9542 162.1693  -6.0960   N.am      1 RES1   0.0000
    13 C13     45.2452 162.5792  -4.7690   C.2       1 RES1   0.0000
    14 C14     45.9010 161.6553  -3.9733   C.2       1 RES1   0.0000
    15 C15     46.2165 161.9624  -2.6657   C.2       1 RES1   0.0000
    16 C16     45.8677 163.1980  -2.1614   C.2       1 RES1   0.0000
    17 I17     46.3536 163.6270  -0.1515   I         1 RES1   0.0000
    18 C18     45.2094 164.1345  -2.9489   C.2       1 RES1   0.0000
    19 C19     44.8953 163.8229  -4.2630   C.2       1 RES1   0.0000
    20 C20     45.2412 164.3353  -8.2841   C.2       1 RES1   0.0000
    21 C21     45.5067 165.6130  -8.7886   C.2       1 RES1   0.0000
@<TRIPOS>BOND
     1     1     2    1
     2     2     3    1
     3     3     4    2
     4     4     5    1
     5     5     6    2
     6     6     7    1
     7     7     8    1
     8     8     9    1
     9     8    10    1
    10    10    11    2
    11    10    12   am
    12    12    13    1
    13    13    14    2
    14    14    15    1
    15    15    16    2
    16    16    17    1
    17    16    18    1
    18    18    19    2
    19     6    20    1
    20    20    21    2
    21    21     3    1
    22    19    13    1
@<TRIPOS>SUBSTRUCTURE
     1 RES1        1 GROUP             0 ****  ****    0  
@<TRIPOS>MOLECULE
ligand_69
    21    22     1     0     0
SMALL
NO_CHARGES
****
Generated from the CSD

@<TRIPOS>ATOM
     1 C1      46.0500 168.1825  -9.9064   C.3       1 RES1   0.0000
     2 O2      45.9378 167.0564 -10.7476   O.3       1 RES1   0.0000
     3 C3      45.6830 165.7975 -10.1587   C.2       1 RES1   0.0000
     4 C4      45.5782 164.7088 -11.0110   C.2       1 RES1   0.0000
     5 C5      45.3173 163.4438 -10.5128   C.2       1 RES1   0.0000
     6 C6      45.1505 163.2446  -9.1521   C.2       1 RES1   0.0000
     7 O7      44.8751 161.9167  -8.7486   O.3       1 RES1   0.0000
     8 C8      43.6536 161.6028  -8.1365   C.3       1 RES1   0.0000
     9 C9      43.4582 160.1032  -8.2465   C.3       1 RES1   0.0000
    10 C10     43.6757 162.0699  -6.6937   C.2       1 RES1   0.0000
    11 O11     42.6476 162.3407  -6.0986   O.2       1 RES1   0.0000
    12 N12     44.9542 162.1693  -6.0960   N.am      1 RES1   0.0000
    13 C13     45.2452 162.5792  -4.7690   C.2       1 RES1   0.0000
    14 C14     45.9010 161.6553  -3.9733   C.2       1 RES1   0.0000
    15 C15     46.2165 161.9624  -2.6657   C.2       1 RES1   0.0000
    16 C16     45.8677 163.1980  -2.1614   C.2       1 RES1   0.0000
    17 I17     46.3536 163.6270  -0.1515   I         1 RES1   0.0000
    18 C18     45.2094 164.1345  -2.9489   C.2       1 RES1   0.0000
    19 C19     44.8953 163.8229  -4.2630   C.2       1 RES1   0.0000
    20 C20     45.2412 164.3353  -8.2841   C.2       1 RES1   0.0000
    21 C21     45.5067 165.6130  -8.7886   C.2       1 RES1   0.0000
@<TRIPOS>BOND
     1     1     2    1
     2     2     3    1
     3     3     4    2
     4     4     5    1
     5     5     6    2
     6     6     7    1
     7     7     8    1
     8     8     9    1
     9     8    10    1
    10    10    11    2
    11    10    12   am
    12    12    13    1
    13    13    14    2
    14    14    15    1
    15    15    16    2
    16    16    17    1
    17    16    18    1
    18    18    19    2
    19     6    20    1
    20    20    21    2
    21    21     3    1
    22    19    13    1
@<TRIPOS>SUBSTRUCTURE
     1 RES1        1 GROUP             0 ****  ****    0  
@<TRIPOS>MOLECULE
ligand_70
    21    22     1     0     0
SMALL
NO_CHARGES
****
Generated from the CSD

@<TRIPOS>ATOM
     1 C1      37.6732 159.6622  -8.8000   C.3       1 RES1   0.0000
     2 O2      38.1179 160.8300  -8.1466   O.3       1 RES1   0.0000
     3 C3      39.4941 161.1469  -8.1942   C.2       1 RES1   0.0000
     4 C4      40.3209 160.2772  -8.8888   C.2       1 RES1   0.0000
     5 C5      41.6830 160.5110  -8.9711   C.2       1 RES1   0.0000
     6 C6      42.2449 161.6172  -8.3548   C.2       1 RES1   0.0000
     7 O7      43.6465 161.7568  -8.4889   O.3       1 RES1   0.0000
     8 C8      44.5085 160.8006  -7.9340   C.3       1 RES1   0.0000
     9 C9      45.7856 160.8060  -8.7512   C.3       1 RES1   0.0000
    10 C10     44.7635 161.1344  -6.4765   C.2       1 RES1   0.0000
    11 O11     44.8696 160.2601  -5.6346   O.2       1 RES1   0.0000
    12 N12     44.8670 162.5110  -6.1670   N.am      1 RES1   0.0000
    13 C13     45.1439 163.0805  -4.8971   C.2       1 RES1   0.0000
    14 C14     46.0170 162.3744  -4.0873   C.2       1 RES1   0.0000
    15 C15     46.3376 162.8466  -2.8311   C.2       1 RES1   0.0000
    16 C16     45.7755 164.0273  -2.3922   C.2       1 RES1   0.0000
    17 I17     46.2779 164.7113  -0.4583   I         1 RES1   0.0000
    18 C18     44.8978 164.7459  -3.1945   C.2       1 RES1   0.0000
    19 C19     44.5791 164.2690  -4.4568   C.2       1 RES1   0.0000
    20 C20     41.4245 162.4942  -7.6414   C.2       1 RES1   0.0000
    21 C21     40.0479 162.2578  -7.5605   C.2       1 RES1   0.0000
@<TRIPOS>BOND
     1     1     2    1
     2     2     3    1
     3     3     4    2
     4     4     5    1
     5     5     6    2
     6     6     7    1
     7     7     8    1
     8     8     9    1
     9     8    10    1
    10    10    11    2
    11    10    12   am
    12    12    13    1
    13    13    14    2
    14    14    15    1
    15    15    16    2
    16    16    17    1
    17    16    18    1
    18    18    19    2
    19     6    20    1
    20    20    21    2
    21    21     3    1
    22    19    13    1
@<TRIPOS>SUBSTRUCTURE
     1 RES1        1 GROUP             0 ****  ****    0  
@<TRIPOS>MOLECULE
ligand_71
    21    22     1     0     0
SMALL
NO_CHARGES
****
Generated from the CSD

@<TRIPOS>ATOM
     1 C1      40.3459 157.4011 -11.9343   C.3       1 RES1   0.0000
     2 O2      40.6776 158.6186 -12.5636   O.3       1 RES1   0.0000
     3 C3      41.2388 159.6518 -11.7800   C.2       1 RES1   0.0000
     4 C4      41.4264 159.3931 -10.4308   C.2       1 RES1   0.0000
     5 C5      41.9593 160.3583  -9.5934   C.2       1 RES1   0.0000
     6 C6      42.3097 161.6035 -10.0894   C.2       1 RES1   0.0000
     7 O7      42.8333 162.5211  -9.1483   O.3       1 RES1   0.0000
     8 C8      44.0463 162.2527  -8.4985   C.3       1 RES1   0.0000
     9 C9      45.1662 162.5671  -9.4710   C.3       1 RES1   0.0000
    10 C10     44.1386 163.0864  -7.2347   C.2       1 RES1   0.0000
    11 O11     43.6136 164.1832  -7.1584   O.2       1 RES1   0.0000
    12 N12     44.8670 162.5110  -6.1670   N.am      1 RES1   0.0000
    13 C13     45.1000 163.0820  -4.8890   C.2       1 RES1   0.0000
    14 C14     45.8470 162.3210  -4.0060   C.2       1 RES1   0.0000
    15 C15     46.1160 162.7910  -2.7370   C.2       1 RES1   0.0000
    16 C16     45.6290 164.0250  -2.3590   C.2       1 RES1   0.0000
    17 I17     46.0480 164.7050  -0.4040   I         1 RES1   0.0000
    18 C18     44.8780 164.7990  -3.2350   C.2       1 RES1   0.0000
    19 C19     44.6110 164.3240  -4.5100   C.2       1 RES1   0.0000
    20 C20     42.1141 161.8809 -11.4444   C.2       1 RES1   0.0000
    21 C21     41.5771 160.9040 -12.2898   C.2       1 RES1   0.0000
@<TRIPOS>BOND
     1     1     2    1
     2     2     3    1
     3     3     4    2
     4     4     5    1
     5     5     6    2
     6     6     7    1
     7     7     8    1
     8     8     9    1
     9     8    10    1
    10    10    11    2
    11    10    12   am
    12    12    13    1
    13    13    14    2
    14    14    15    1
    15    15    16    2
    16    16    17    1
    17    16    18    1
    18    18    19    2
    19     6    20    1
    20    20    21    2
    21    21     3    1
    22    19    13    1
@<TRIPOS>SUBSTRUCTURE
     1 RES1        1 GROUP             0 ****  ****    0  
@<TRIPOS>MOLECULE
ligand_72
    21    22     1     0     0
SMALL
NO_CHARGES
****
Generated from the CSD

@<TRIPOS>ATOM
     1 C1      40.4747 158.8519 -13.9394   C.3       1 RES1   0.0000
     2 O2      40.6776 158.6186 -12.5636   O.3       1 RES1   0.0000
     3 C3      41.2388 159.6518 -11.7800   C.2       1 RES1   0.0000
     4 C4      41.4264 159.3931 -10.4308   C.2       1 RES1   0.0000
     5 C5      41.9593 160.3583  -9.5934   C.2       1 RES1   0.0000
     6 C6      42.3097 161.6035 -10.0894   C.2       1 RES1   0.0000
     7 O7      42.8333 162.5211  -9.1483   O.3       1 RES1   0.0000
     8 C8      44.0463 162.2527  -8.4985   C.3       1 RES1   0.0000
     9 C9      45.1662 162.5671  -9.4710   C.3       1 RES1   0.0000
    10 C10     44.1386 163.0864  -7.2347   C.2       1 RES1   0.0000
    11 O11     43.6136 164.1832  -7.1584   O.2       1 RES1   0.0000
    12 N12     44.8670 162.5110  -6.1670   N.am      1 RES1   0.0000
    13 C13     45.1000 163.0820  -4.8890   C.2       1 RES1   0.0000
    14 C14     45.8470 162.3210  -4.0060   C.2       1 RES1   0.0000
    15 C15     46.1160 162.7910  -2.7370   C.2       1 RES1   0.0000
    16 C16     45.6290 164.0250  -2.3590   C.2       1 RES1   0.0000
    17 I17     46.0480 164.7050  -0.4040   I         1 RES1   0.0000
    18 C18     44.8780 164.7990  -3.2350   C.2       1 RES1   0.0000
    19 C19     44.6110 164.3240  -4.5100   C.2       1 RES1   0.0000
    20 C20     42.1141 161.8809 -11.4444   C.2       1 RES1   0.0000
    21 C21     41.5771 160.9040 -12.2898   C.2       1 RES1   0.0000
@<TRIPOS>BOND
     1     1     2    1
     2     2     3    1
     3     3     4    2
     4     4     5    1
     5     5     6    2
     6     6     7    1
     7     7     8    1
     8     8     9    1
     9     8    10    1
    10    10    11    2
    11    10    12   am
    12    12    13    1
    13    13    14    2
    14    14    15    1
    15    15    16    2
    16    16    17    1
    17    16    18    1
    18    18    19    2
    19     6    20    1
    20    20    21    2
    21    21     3    1
    22    19    13    1
@<TRIPOS>SUBSTRUCTURE
     1 RES1        1 GROUP             0 ****  ****    0  
@<TRIPOS>MOLECULE
ligand_73
    21    22     1     0     0
SMALL
NO_CHARGES
****
Generated from the CSD

@<TRIPOS>ATOM
     1 C1      41.9231 158.8841 -14.2579   C.3       1 RES1   0.0000
     2 O2      41.0997 158.9429 -13.1146   O.3       1 RES1   0.0000
     3 C3      41.4552 159.8281 -12.0723   C.2       1 RES1   0.0000
     4 C4      42.6022 160.5868 -12.2489   C.2       1 RES1   0.0000
     5 C5      43.0245 161.4683 -11.2684   C.2       1 RES1   0.0000
     6 C6      42.3097 161.6035 -10.0894   C.2       1 RES1   0.0000
     7 O7      42.8333 162.5211  -9.1483   O.3       1 RES1   0.0000
     8 C8      44.0463 162.2527  -8.4985   C.3       1 RES1   0.0000
     9 C9      45.1672 162.6705  -9.4301   C.3       1 RES1   0.0000
    10 C10     44.0913 163.0029  -7.1810   C.2       1 RES1   0.0000
    11 O11     43.5261 164.0730  -7.0405   O.2       1 RES1   0.0000
    12 N12     44.8255 162.3835  -6.1423   N.am      1 RES1   0.0000
    13 C13     45.0188 162.8748  -4.8251   C.2       1 RES1   0.0000
    14 C14     45.7846 162.0854  -3.9841   C.2       1 RES1   0.0000
    15 C15     46.0180 162.4781  -2.6822   C.2       1 RES1   0.0000
    16 C16     45.4767 163.6632  -2.2292   C.2       1 RES1   0.0000
    17 I17     45.8427 164.2244  -0.2264   I         1 RES1   0.0000
    18 C18     44.7063 164.4649  -3.0625   C.2       1 RES1   0.0000
    19 C19     44.4751 164.0677  -4.3707   C.2       1 RES1   0.0000
    20 C20     41.1594 160.8356  -9.8940   C.2       1 RES1   0.0000
    21 C21     40.7327 159.9464 -10.8864   C.2       1 RES1   0.0000
@<TRIPOS>BOND
     1     1     2    1
     2     2     3    1
     3     3     4    2
     4     4     5    1
     5     5     6    2
     6     6     7    1
     7     7     8    1
     8     8     9    1
     9     8    10    1
    10    10    11    2
    11    10    12   am
    12    12    13    1
    13    13    14    2
    14    14    15    1
    15    15    16    2
    16    16    17    1
    17    16    18    1
    18    18    19    2
    19     6    20    1
    20    20    21    2
    21    21     3    1
    22    19    13    1
@<TRIPOS>SUBSTRUCTURE
     1 RES1        1 GROUP             0 ****  ****    0  
@<TRIPOS>MOLECULE
ligand_74
    21    22     1     0     0
SMALL
NO_CHARGES
****
Generated from the CSD

@<TRIPOS>ATOM
     1 C1      39.9378 158.1582 -12.9642   C.3       1 RES1   0.0000
     2 O2      41.0997 158.9429 -13.1146   O.3       1 RES1   0.0000
     3 C3      41.4552 159.8281 -12.0723   C.2       1 RES1   0.0000
     4 C4      42.6022 160.5868 -12.2489   C.2       1 RES1   0.0000
     5 C5      43.0245 161.4683 -11.2684   C.2       1 RES1   0.0000
     6 C6      42.3097 161.6035 -10.0894   C.2       1 RES1   0.0000
     7 O7      42.8333 162.5211  -9.1483   O.3       1 RES1   0.0000
     8 C8      44.0463 162.2527  -8.4985   C.3       1 RES1   0.0000
     9 C9      45.1672 162.6705  -9.4301   C.3       1 RES1   0.0000
    10 C10     44.0913 163.0029  -7.1810   C.2       1 RES1   0.0000
    11 O11     43.5261 164.0730  -7.0405   O.2       1 RES1   0.0000
    12 N12     44.8255 162.3835  -6.1423   N.am      1 RES1   0.0000
    13 C13     45.0188 162.8748  -4.8251   C.2       1 RES1   0.0000
    14 C14     45.7846 162.0854  -3.9841   C.2       1 RES1   0.0000
    15 C15     46.0180 162.4781  -2.6822   C.2       1 RES1   0.0000
    16 C16     45.4767 163.6632  -2.2292   C.2       1 RES1   0.0000
    17 I17     45.8427 164.2244  -0.2264   I         1 RES1   0.0000
    18 C18     44.7063 164.4649  -3.0625   C.2       1 RES1   0.0000
    19 C19     44.4751 164.0677  -4.3707   C.2       1 RES1   0.0000
    20 C20     41.1594 160.8356  -9.8940   C.2       1 RES1   0.0000
    21 C21     40.7327 159.9464 -10.8864   C.2       1 RES1   0.0000
@<TRIPOS>BOND
     1     1     2    1
     2     2     3    1
     3     3     4    2
     4     4     5    1
     5     5     6    2
     6     6     7    1
     7     7     8    1
     8     8     9    1
     9     8    10    1
    10    10    11    2
    11    10    12   am
    12    12    13    1
    13    13    14    2
    14    14    15    1
    15    15    16    2
    16    16    17    1
    17    16    18    1
    18    18    19    2
    19     6    20    1
    20    20    21    2
    21    21     3    1
    22    19    13    1
@<TRIPOS>SUBSTRUCTURE
     1 RES1        1 GROUP             0 ****  ****    0  
@<TRIPOS>MOLECULE
ligand_75
    21    22     1     0     0
SMALL
NO_CHARGES
****
Generated from the CSD

@<TRIPOS>ATOM
     1 C1      51.2344 159.8821  -5.9052   C.3       1 RES1   0.0000
     2 O2      50.7039 161.1668  -6.1430   O.3       1 RES1   0.0000
     3 C3      49.4051 161.2693  -6.6900   C.2       1 RES1   0.0000
     4 C4      48.7349 160.0854  -6.9574   C.2       1 RES1   0.0000
     5 C5      47.4636 160.1011  -7.5054   C.2       1 RES1   0.0000
     6 C6      46.8406 161.3024  -7.8017   C.2       1 RES1   0.0000
     7 O7      45.5484 161.2074  -8.3703   O.3       1 RES1   0.0000
     8 C8      44.8110 162.3670  -8.6474   C.3       1 RES1   0.0000
     9 C9      43.5173 161.9391  -9.3124   C.3       1 RES1   0.0000
    10 C10     44.5643 163.1297  -7.3598   C.2       1 RES1   0.0000
    11 O11     44.3354 164.3264  -7.3651   O.2       1 RES1   0.0000
    12 N12     44.6190 162.3667  -6.1696   N.am      1 RES1   0.0000
    13 C13     44.7181 162.8620  -4.8435   C.2       1 RES1   0.0000
    14 C14     45.4025 162.0644  -3.9423   C.2       1 RES1   0.0000
    15 C15     45.5412 162.4602  -2.6278   C.2       1 RES1   0.0000
    16 C16     44.9871 163.6569  -2.2233   C.2       1 RES1   0.0000
    17 I17     45.2065 164.2229  -0.2005   I         1 RES1   0.0000
    18 C18     44.2977 164.4670  -3.1172   C.2       1 RES1   0.0000
    19 C19     44.1617 164.0666  -4.4377   C.2       1 RES1   0.0000
    20 C20     47.5101 162.5019  -7.5487   C.2       1 RES1   0.0000
    21 C21     48.7941 162.4847  -6.9932   C.2       1 RES1   0.0000
@<TRIPOS>BOND
     1     1     2    1
     2     2     3    1
     3     3     4    2
     4     4     5    1
     5     5     6    2
     6     6     7    1
     7     7     8    1
     8     8     9    1
     9     8    10    1
    10    10    11    2
    11    10    12   am
    12    12    13    1
    13    13    14    2
    14    14    15    1
    15    15    16    2
    16    16    17    1
    17    16    18    1
    18    18    19    2
    19     6    20    1
    20    20    21    2
    21    21     3    1
    22    19    13    1
@<TRIPOS>SUBSTRUCTURE
     1 RES1        1 GROUP             0 ****  ****    0  
@<TRIPOS>MOLECULE
ligand_76
    21    22     1     0     0
SMALL
NO_CHARGES
****
Generated from the CSD

@<TRIPOS>ATOM
     1 C1      38.7193 165.3062  -9.7937   C.3       1 RES1   0.0000
     2 O2      39.9028 166.0729  -9.7799   O.3       1 RES1   0.0000
     3 C3      41.1438 165.3975  -9.7792   C.2       1 RES1   0.0000
     4 C4      41.1109 164.0114  -9.7923   C.2       1 RES1   0.0000
     5 C5      42.2841 163.2764  -9.7800   C.2       1 RES1   0.0000
     6 C6      43.5132 163.9146  -9.7486   C.2       1 RES1   0.0000
     7 O7      44.6495 163.0717  -9.7254   O.3       1 RES1   0.0000
     8 C8      44.8757 162.2200  -8.6351   C.3       1 RES1   0.0000
     9 C9      45.9734 161.2516  -9.0304   C.3       1 RES1   0.0000
    10 C10     45.2539 163.0440  -7.4191   C.2       1 RES1   0.0000
    11 O11     45.8550 164.0981  -7.5290   O.2       1 RES1   0.0000
    12 N12     44.8670 162.5110  -6.1670   N.am      1 RES1   0.0000
    13 C13     45.1000 163.0820  -4.8890   C.2       1 RES1   0.0000
    14 C14     45.8470 162.3210  -4.0060   C.2       1 RES1   0.0000
    15 C15     46.1160 162.7910  -2.7370   C.2       1 RES1   0.0000
    16 C16     45.6290 164.0250  -2.3590   C.2       1 RES1   0.0000
    17 I17     46.0480 164.7050  -0.4040   I         1 RES1   0.0000
    18 C18     44.8780 164.7990  -3.2350   C.2       1 RES1   0.0000
    19 C19     44.6110 164.3240  -4.5100   C.2       1 RES1   0.0000
    20 C20     43.5598 165.3104  -9.7225   C.2       1 RES1   0.0000
    21 C21     42.3735 166.0521  -9.7368   C.2       1 RES1   0.0000
@<TRIPOS>BOND
     1     1     2    1
     2     2     3    1
     3     3     4    2
     4     4     5    1
     5     5     6    2
     6     6     7    1
     7     7     8    1
     8     8     9    1
     9     8    10    1
    10    10    11    2
    11    10    12   am
    12    12    13    1
    13    13    14    2
    14    14    15    1
    15    15    16    2
    16    16    17    1
    17    16    18    1
    18    18    19    2
    19     6    20    1
    20    20    21    2
    21    21     3    1
    22    19    13    1
@<TRIPOS>SUBSTRUCTURE
     1 RES1        1 GROUP             0 ****  ****    0  
@<TRIPOS>MOLECULE
ligand_77
    21    22     1     0     0
SMALL
NO_CHARGES
****
Generated from the CSD

@<TRIPOS>ATOM
     1 C1      39.9039 167.4829  -9.7668   C.3       1 RES1   0.0000
     2 O2      39.9028 166.0729  -9.7799   O.3       1 RES1   0.0000
     3 C3      41.1438 165.3975  -9.7792   C.2       1 RES1   0.0000
     4 C4      41.1109 164.0114  -9.7923   C.2       1 RES1   0.0000
     5 C5      42.2841 163.2764  -9.7800   C.2       1 RES1   0.0000
     6 C6      43.5132 163.9146  -9.7486   C.2       1 RES1   0.0000
     7 O7      44.6495 163.0717  -9.7254   O.3       1 RES1   0.0000
     8 C8      44.8757 162.2200  -8.6351   C.3       1 RES1   0.0000
     9 C9      45.9734 161.2516  -9.0304   C.3       1 RES1   0.0000
    10 C10     45.2539 163.0440  -7.4191   C.2       1 RES1   0.0000
    11 O11     45.8550 164.0981  -7.5290   O.2       1 RES1   0.0000
    12 N12     44.8670 162.5110  -6.1670   N.am      1 RES1   0.0000
    13 C13     45.1000 163.0820  -4.8890   C.2       1 RES1   0.0000
    14 C14     45.8470 162.3210  -4.0060   C.2       1 RES1   0.0000
    15 C15     46.1160 162.7910  -2.7370   C.2       1 RES1   0.0000
    16 C16     45.6290 164.0250  -2.3590   C.2       1 RES1   0.0000
    17 I17     46.0480 164.7050  -0.4040   I         1 RES1   0.0000
    18 C18     44.8780 164.7990  -3.2350   C.2       1 RES1   0.0000
    19 C19     44.6110 164.3240  -4.5100   C.2       1 RES1   0.0000
    20 C20     43.5598 165.3104  -9.7225   C.2       1 RES1   0.0000
    21 C21     42.3735 166.0521  -9.7368   C.2       1 RES1   0.0000
@<TRIPOS>BOND
     1     1     2    1
     2     2     3    1
     3     3     4    2
     4     4     5    1
     5     5     6    2
     6     6     7    1
     7     7     8    1
     8     8     9    1
     9     8    10    1
    10    10    11    2
    11    10    12   am
    12    12    13    1
    13    13    14    2
    14    14    15    1
    15    15    16    2
    16    16    17    1
    17    16    18    1
    18    18    19    2
    19     6    20    1
    20    20    21    2
    21    21     3    1
    22    19    13    1
@<TRIPOS>SUBSTRUCTURE
     1 RES1        1 GROUP             0 ****  ****    0  
@<TRIPOS>MOLECULE
ligand_78
    21    22     1     0     0
SMALL
NO_CHARGES
****
Generated from the CSD

@<TRIPOS>ATOM
     1 C1      43.7208 154.9323  -6.0706   C.3       1 RES1   0.0000
     2 O2      42.6628 155.7810  -5.6848   O.3       1 RES1   0.0000
     3 C3      42.5527 157.0459  -6.3047   C.2       1 RES1   0.0000
     4 C4      43.5041 157.3682  -7.2605   C.2       1 RES1   0.0000
     5 C5      43.4724 158.5934  -7.9043   C.2       1 RES1   0.0000
     6 C6      42.4909 159.5224  -7.5998   C.2       1 RES1   0.0000
     7 O7      42.5558 160.7472  -8.3051   O.3       1 RES1   0.0000
     8 C8      43.6536 161.6028  -8.1365   C.3       1 RES1   0.0000
     9 C9      43.5830 162.6580  -9.2230   C.3       1 RES1   0.0000
    10 C10     43.6122 162.2114  -6.7479   C.2       1 RES1   0.0000
    11 O11     42.5556 162.4248  -6.1799   O.2       1 RES1   0.0000
    12 N12     44.8670 162.5110  -6.1670   N.am      1 RES1   0.0000
    13 C13     45.1000 163.0820  -4.8890   C.2       1 RES1   0.0000
    14 C14     45.8470 162.3210  -4.0060   C.2       1 RES1   0.0000
    15 C15     46.1160 162.7910  -2.7370   C.2       1 RES1   0.0000
    16 C16     45.6290 164.0250  -2.3590   C.2       1 RES1   0.0000
    17 I17     46.0480 164.7050  -0.4040   I         1 RES1   0.0000
    18 C18     44.8780 164.7990  -3.2350   C.2       1 RES1   0.0000
    19 C19     44.6110 164.3240  -4.5100   C.2       1 RES1   0.0000
    20 C20     41.5340 159.2149  -6.6297   C.2       1 RES1   0.0000
    21 C21     41.5661 157.9756  -5.9811   C.2       1 RES1   0.0000
@<TRIPOS>BOND
     1     1     2    1
     2     2     3    1
     3     3     4    2
     4     4     5    1
     5     5     6    2
     6     6     7    1
     7     7     8    1
     8     8     9    1
     9     8    10    1
    10    10    11    2
    11    10    12   am
    12    12    13    1
    13    13    14    2
    14    14    15    1
    15    15    16    2
    16    16    17    1
    17    16    18    1
    18    18    19    2
    19     6    20    1
    20    20    21    2
    21    21     3    1
    22    19    13    1
@<TRIPOS>SUBSTRUCTURE
     1 RES1        1 GROUP             0 ****  ****    0  
@<TRIPOS>MOLECULE
ligand_79
    21    22     1     0     0
SMALL
NO_CHARGES
****
Generated from the CSD

@<TRIPOS>ATOM
     1 C1      41.7097 155.4247  -4.7085   C.3       1 RES1   0.0000
     2 O2      42.6628 155.7810  -5.6848   O.3       1 RES1   0.0000
     3 C3      42.5527 157.0459  -6.3047   C.2       1 RES1   0.0000
     4 C4      43.5041 157.3682  -7.2605   C.2       1 RES1   0.0000
     5 C5      43.4724 158.5934  -7.9043   C.2       1 RES1   0.0000
     6 C6      42.4909 159.5224  -7.5998   C.2       1 RES1   0.0000
     7 O7      42.5558 160.7472  -8.3051   O.3       1 RES1   0.0000
     8 C8      43.6536 161.6028  -8.1365   C.3       1 RES1   0.0000
     9 C9      43.5830 162.6580  -9.2230   C.3       1 RES1   0.0000
    10 C10     43.6122 162.2114  -6.7479   C.2       1 RES1   0.0000
    11 O11     42.5556 162.4248  -6.1799   O.2       1 RES1   0.0000
    12 N12     44.8670 162.5110  -6.1670   N.am      1 RES1   0.0000
    13 C13     45.1000 163.0820  -4.8890   C.2       1 RES1   0.0000
    14 C14     45.8470 162.3210  -4.0060   C.2       1 RES1   0.0000
    15 C15     46.1160 162.7910  -2.7370   C.2       1 RES1   0.0000
    16 C16     45.6290 164.0250  -2.3590   C.2       1 RES1   0.0000
    17 I17     46.0480 164.7050  -0.4040   I         1 RES1   0.0000
    18 C18     44.8780 164.7990  -3.2350   C.2       1 RES1   0.0000
    19 C19     44.6110 164.3240  -4.5100   C.2       1 RES1   0.0000
    20 C20     41.5340 159.2149  -6.6297   C.2       1 RES1   0.0000
    21 C21     41.5661 157.9756  -5.9811   C.2       1 RES1   0.0000
@<TRIPOS>BOND
     1     1     2    1
     2     2     3    1
     3     3     4    2
     4     4     5    1
     5     5     6    2
     6     6     7    1
     7     7     8    1
     8     8     9    1
     9     8    10    1
    10    10    11    2
    11    10    12   am
    12    12    13    1
    13    13    14    2
    14    14    15    1
    15    15    16    2
    16    16    17    1
    17    16    18    1
    18    18    19    2
    19     6    20    1
    20    20    21    2
    21    21     3    1
    22    19    13    1
@<TRIPOS>SUBSTRUCTURE
     1 RES1        1 GROUP             0 ****  ****    0  
@<TRIPOS>MOLECULE
ligand_80
    21    22     1     0     0
SMALL
NO_CHARGES
****
Generated from the CSD

@<TRIPOS>ATOM
     1 C1      40.4443 167.6657  -8.5524   C.3       1 RES1   0.0000
     2 O2      40.3311 166.6571  -9.5312   O.3       1 RES1   0.0000
     3 C3      41.3680 165.7035  -9.6401   C.2       1 RES1   0.0000
     4 C4      42.4372 165.8274  -8.7660   C.2       1 RES1   0.0000
     5 C5      43.4986 164.9401  -8.8174   C.2       1 RES1   0.0000
     6 C6      43.5132 163.9146  -9.7486   C.2       1 RES1   0.0000
     7 O7      44.6495 163.0717  -9.7254   O.3       1 RES1   0.0000
     8 C8      44.8757 162.2200  -8.6351   C.3       1 RES1   0.0000
     9 C9      45.7828 161.1011  -9.1085   C.3       1 RES1   0.0000
    10 C10     45.4918 163.0092  -7.4957   C.2       1 RES1   0.0000
    11 O11     46.2668 163.9257  -7.7050   O.2       1 RES1   0.0000
    12 N12     45.1107 162.6122  -6.1923   N.am      1 RES1   0.0000
    13 C13     45.5427 163.1831  -4.9671   C.2       1 RES1   0.0000
    14 C14     46.2022 162.3335  -4.0953   C.2       1 RES1   0.0000
    15 C15     46.6501 162.7981  -2.8758   C.2       1 RES1   0.0000
    16 C16     46.4296 164.1166  -2.5356   C.2       1 RES1   0.0000
    17 I17     47.1160 164.7882  -0.6548   I         1 RES1   0.0000
    18 C18     45.7691 164.9800  -3.4009   C.2       1 RES1   0.0000
    19 C19     45.3218 164.5099  -4.6263   C.2       1 RES1   0.0000
    20 C20     42.4481 163.7865 -10.6432   C.2       1 RES1   0.0000
    21 C21     41.3751 164.6828 -10.5890   C.2       1 RES1   0.0000
@<TRIPOS>BOND
     1     1     2    1
     2     2     3    1
     3     3     4    2
     4     4     5    1
     5     5     6    2
     6     6     7    1
     7     7     8    1
     8     8     9    1
     9     8    10    1
    10    10    11    2
    11    10    12   am
    12    12    13    1
    13    13    14    2
    14    14    15    1
    15    15    16    2
    16    16    17    1
    17    16    18    1
    18    18    19    2
    19     6    20    1
    20    20    21    2
    21    21     3    1
    22    19    13    1
@<TRIPOS>SUBSTRUCTURE
     1 RES1        1 GROUP             0 ****  ****    0  
@<TRIPOS>MOLECULE
ligand_81
    21    22     1     0     0
SMALL
NO_CHARGES
****
Generated from the CSD

@<TRIPOS>ATOM
     1 C1      39.2299 166.5569 -10.4064   C.3       1 RES1   0.0000
     2 O2      40.3311 166.6571  -9.5312   O.3       1 RES1   0.0000
     3 C3      41.3680 165.7035  -9.6401   C.2       1 RES1   0.0000
     4 C4      42.4372 165.8274  -8.7660   C.2       1 RES1   0.0000
     5 C5      43.4986 164.9401  -8.8174   C.2       1 RES1   0.0000
     6 C6      43.5132 163.9146  -9.7486   C.2       1 RES1   0.0000
     7 O7      44.6495 163.0717  -9.7254   O.3       1 RES1   0.0000
     8 C8      44.8757 162.2200  -8.6351   C.3       1 RES1   0.0000
     9 C9      45.7828 161.1011  -9.1085   C.3       1 RES1   0.0000
    10 C10     45.4918 163.0092  -7.4957   C.2       1 RES1   0.0000
    11 O11     46.2668 163.9257  -7.7050   O.2       1 RES1   0.0000
    12 N12     45.1107 162.6122  -6.1923   N.am      1 RES1   0.0000
    13 C13     45.5427 163.1831  -4.9671   C.2       1 RES1   0.0000
    14 C14     46.2022 162.3335  -4.0953   C.2       1 RES1   0.0000
    15 C15     46.6501 162.7981  -2.8758   C.2       1 RES1   0.0000
    16 C16     46.4296 164.1166  -2.5356   C.2       1 RES1   0.0000
    17 I17     47.1160 164.7882  -0.6548   I         1 RES1   0.0000
    18 C18     45.7691 164.9800  -3.4009   C.2       1 RES1   0.0000
    19 C19     45.3218 164.5099  -4.6263   C.2       1 RES1   0.0000
    20 C20     42.4481 163.7865 -10.6432   C.2       1 RES1   0.0000
    21 C21     41.3751 164.6828 -10.5890   C.2       1 RES1   0.0000
@<TRIPOS>BOND
     1     1     2    1
     2     2     3    1
     3     3     4    2
     4     4     5    1
     5     5     6    2
     6     6     7    1
     7     7     8    1
     8     8     9    1
     9     8    10    1
    10    10    11    2
    11    10    12   am
    12    12    13    1
    13    13    14    2
    14    14    15    1
    15    15    16    2
    16    16    17    1
    17    16    18    1
    18    18    19    2
    19     6    20    1
    20    20    21    2
    21    21     3    1
    22    19    13    1
@<TRIPOS>SUBSTRUCTURE
     1 RES1        1 GROUP             0 ****  ****    0  
@<TRIPOS>MOLECULE
ligand_82
    21    22     1     0     0
SMALL
NO_CHARGES
****
Generated from the CSD

@<TRIPOS>ATOM
     1 C1      42.0295 156.3403  -3.7812   C.3       1 RES1   0.0000
     2 O2      42.2100 156.1071  -5.1602   O.3       1 RES1   0.0000
     3 C3      42.3206 157.2202  -6.0235   C.2       1 RES1   0.0000
     4 C4      42.2435 158.4790  -5.4475   C.2       1 RES1   0.0000
     5 C5      42.3305 159.6197  -6.2272   C.2       1 RES1   0.0000
     6 C6      42.4909 159.5224  -7.5998   C.2       1 RES1   0.0000
     7 O7      42.5558 160.7472  -8.3051   O.3       1 RES1   0.0000
     8 C8      43.6536 161.6028  -8.1365   C.3       1 RES1   0.0000
     9 C9      43.7286 162.4978  -9.3580   C.3       1 RES1   0.0000
    10 C10     43.4829 162.3988  -6.8568   C.2       1 RES1   0.0000
    11 O11     42.3834 162.7604  -6.4764   O.2       1 RES1   0.0000
    12 N12     44.6716 162.6891  -6.1466   N.am      1 RES1   0.0000
    13 C13     44.7832 163.4138  -4.9317   C.2       1 RES1   0.0000
    14 C14     45.3386 162.7327  -3.8620   C.2       1 RES1   0.0000
    15 C15     45.4782 163.3540  -2.6379   C.2       1 RES1   0.0000
    16 C16     45.0547 164.6588  -2.4932   C.2       1 RES1   0.0000
    17 I17     45.2703 165.5720  -0.6012   I         1 RES1   0.0000
    18 C18     44.4955 165.3539  -3.5583   C.2       1 RES1   0.0000
    19 C19     44.3583 164.7268  -4.7873   C.2       1 RES1   0.0000
    20 C20     42.5574 158.2599  -8.1939   C.2       1 RES1   0.0000
    21 C21     42.4712 157.1080  -7.4045   C.2       1 RES1   0.0000
@<TRIPOS>BOND
     1     1     2    1
     2     2     3    1
     3     3     4    2
     4     4     5    1
     5     5     6    2
     6     6     7    1
     7     7     8    1
     8     8     9    1
     9     8    10    1
    10    10    11    2
    11    10    12   am
    12    12    13    1
    13    13    14    2
    14    14    15    1
    15    15    16    2
    16    16    17    1
    17    16    18    1
    18    18    19    2
    19     6    20    1
    20    20    21    2
    21    21     3    1
    22    19    13    1
@<TRIPOS>SUBSTRUCTURE
     1 RES1        1 GROUP             0 ****  ****    0  
@<TRIPOS>MOLECULE
ligand_83
    21    22     1     0     0
SMALL
NO_CHARGES
****
Generated from the CSD

@<TRIPOS>ATOM
     1 C1      42.2852 154.8136  -5.7167   C.3       1 RES1   0.0000
     2 O2      42.2100 156.1071  -5.1602   O.3       1 RES1   0.0000
     3 C3      42.3206 157.2202  -6.0235   C.2       1 RES1   0.0000
     4 C4      42.2435 158.4790  -5.4475   C.2       1 RES1   0.0000
     5 C5      42.3305 159.6197  -6.2272   C.2       1 RES1   0.0000
     6 C6      42.4909 159.5224  -7.5998   C.2       1 RES1   0.0000
     7 O7      42.5558 160.7472  -8.3051   O.3       1 RES1   0.0000
     8 C8      43.6536 161.6028  -8.1365   C.3       1 RES1   0.0000
     9 C9      43.7286 162.4978  -9.3580   C.3       1 RES1   0.0000
    10 C10     43.4829 162.3988  -6.8568   C.2       1 RES1   0.0000
    11 O11     42.3834 162.7604  -6.4764   O.2       1 RES1   0.0000
    12 N12     44.6716 162.6891  -6.1466   N.am      1 RES1   0.0000
    13 C13     44.7832 163.4138  -4.9317   C.2       1 RES1   0.0000
    14 C14     45.3386 162.7327  -3.8620   C.2       1 RES1   0.0000
    15 C15     45.4782 163.3540  -2.6379   C.2       1 RES1   0.0000
    16 C16     45.0547 164.6588  -2.4932   C.2       1 RES1   0.0000
    17 I17     45.2703 165.5720  -0.6012   I         1 RES1   0.0000
    18 C18     44.4955 165.3539  -3.5583   C.2       1 RES1   0.0000
    19 C19     44.3583 164.7268  -4.7873   C.2       1 RES1   0.0000
    20 C20     42.5574 158.2599  -8.1939   C.2       1 RES1   0.0000
    21 C21     42.4712 157.1080  -7.4045   C.2       1 RES1   0.0000
@<TRIPOS>BOND
     1     1     2    1
     2     2     3    1
     3     3     4    2
     4     4     5    1
     5     5     6    2
     6     6     7    1
     7     7     8    1
     8     8     9    1
     9     8    10    1
    10    10    11    2
    11    10    12   am
    12    12    13    1
    13    13    14    2
    14    14    15    1
    15    15    16    2
    16    16    17    1
    17    16    18    1
    18    18    19    2
    19     6    20    1
    20    20    21    2
    21    21     3    1
    22    19    13    1
@<TRIPOS>SUBSTRUCTURE
     1 RES1        1 GROUP             0 ****  ****    0  
@<TRIPOS>MOLECULE
ligand_84
    21    22     1     0     0
SMALL
NO_CHARGES
****
Generated from the CSD

@<TRIPOS>ATOM
     1 C1      44.3939 167.9634 -11.7865   C.3       1 RES1   0.0000
     2 O2      43.4776 166.8976 -11.6725   O.3       1 RES1   0.0000
     3 C3      43.8722 165.7422 -10.9613   C.2       1 RES1   0.0000
     4 C4      42.9503 164.7108 -10.8666   C.2       1 RES1   0.0000
     5 C5      43.2562 163.5506 -10.1758   C.2       1 RES1   0.0000
     6 C6      44.4891 163.4025  -9.5616   C.2       1 RES1   0.0000
     7 O7      44.6960 162.1848  -8.8714   O.3       1 RES1   0.0000
     8 C8      43.6536 161.6028  -8.1365   C.3       1 RES1   0.0000
     9 C9      43.9272 160.1137  -8.0539   C.3       1 RES1   0.0000
    10 C10     43.5814 162.2455  -6.7646   C.2       1 RES1   0.0000
    11 O11     42.5131 162.4540  -6.2170   O.2       1 RES1   0.0000
    12 N12     44.8222 162.5823  -6.1741   N.am      1 RES1   0.0000
    13 C13     45.0266 163.1896  -4.9080   C.2       1 RES1   0.0000
    14 C14     45.7741 162.4648  -3.9955   C.2       1 RES1   0.0000
    15 C15     46.0164 162.9716  -2.7353   C.2       1 RES1   0.0000
    16 C16     45.5022 164.2057  -2.3957   C.2       1 RES1   0.0000
    17 I17     45.8808 164.9424  -0.4531   I         1 RES1   0.0000
    18 C18     44.7503 164.9436  -3.3016   C.2       1 RES1   0.0000
    19 C19     44.5102 164.4317  -4.5677   C.2       1 RES1   0.0000
    20 C20     45.4219 164.4393  -9.6390   C.2       1 RES1   0.0000
    21 C21     45.1122 165.6105 -10.3389   C.2       1 RES1   0.0000
@<TRIPOS>BOND
     1     1     2    1
     2     2     3    1
     3     3     4    2
     4     4     5    1
     5     5     6    2
     6     6     7    1
     7     7     8    1
     8     8     9    1
     9     8    10    1
    10    10    11    2
    11    10    12   am
    12    12    13    1
    13    13    14    2
    14    14    15    1
    15    15    16    2
    16    16    17    1
    17    16    18    1
    18    18    19    2
    19     6    20    1
    20    20    21    2
    21    21     3    1
    22    19    13    1
@<TRIPOS>SUBSTRUCTURE
     1 RES1        1 GROUP             0 ****  ****    0  
@<TRIPOS>MOLECULE
ligand_85
    21    22     1     0     0
SMALL
NO_CHARGES
****
Generated from the CSD

@<TRIPOS>ATOM
     1 C1      48.4941 156.6437 -11.3054   C.3       1 RES1   0.0000
     2 O2      47.4938 156.4985 -10.3221   O.3       1 RES1   0.0000
     3 C3      46.8424 157.6586  -9.8463   C.2       1 RES1   0.0000
     4 C4      45.8640 157.4844  -8.8795   C.2       1 RES1   0.0000
     5 C5      45.1711 158.5700  -8.3715   C.2       1 RES1   0.0000
     6 C6      45.4404 159.8508  -8.8255   C.2       1 RES1   0.0000
     7 O7      44.6678 160.8878  -8.2511   O.3       1 RES1   0.0000
     8 C8      44.8757 162.2200  -8.6351   C.3       1 RES1   0.0000
     9 C9      43.6025 162.7099  -9.2969   C.3       1 RES1   0.0000
    10 C10     45.2388 163.0471  -7.4166   C.2       1 RES1   0.0000
    11 O11     45.8379 164.1027  -7.5220   O.2       1 RES1   0.0000
    12 N12     44.8405 162.5149  -6.1677   N.am      1 RES1   0.0000
    13 C13     45.0586 163.0887  -4.8883   C.2       1 RES1   0.0000
    14 C14     45.7986 162.3313  -3.9963   C.2       1 RES1   0.0000
    15 C15     46.0530 162.8042  -2.7254   C.2       1 RES1   0.0000
    16 C16     45.5585 164.0373  -2.3545   C.2       1 RES1   0.0000
    17 I17     45.9551 164.7217  -0.3964   I         1 RES1   0.0000
    18 C18     44.8143 164.8076  -3.2395   C.2       1 RES1   0.0000
    19 C19     44.5620 164.3298  -4.5164   C.2       1 RES1   0.0000
    20 C20     46.4150 160.0384  -9.8084   C.2       1 RES1   0.0000
    21 C21     47.1157 158.9406 -10.3197   C.2       1 RES1   0.0000
@<TRIPOS>BOND
     1     1     2    1
     2     2     3    1
     3     3     4    2
     4     4     5    1
     5     5     6    2
     6     6     7    1
     7     7     8    1
     8     8     9    1
     9     8    10    1
    10    10    11    2
    11    10    12   am
    12    12    13    1
    13    13    14    2
    14    14    15    1
    15    15    16    2
    16    16    17    1
    17    16    18    1
    18    18    19    2
    19     6    20    1
    20    20    21    2
    21    21     3    1
    22    19    13    1
@<TRIPOS>SUBSTRUCTURE
     1 RES1        1 GROUP             0 ****  ****    0  
@<TRIPOS>MOLECULE
ligand_86
    21    22     1     0     0
SMALL
NO_CHARGES
****
Generated from the CSD

@<TRIPOS>ATOM
     1 C1      46.7118 164.8986 -14.0306   C.3       1 RES1   0.0000
     2 O2      45.3838 164.6982 -13.6010   O.3       1 RES1   0.0000
     3 C3      45.1646 164.0183 -12.3819   C.2       1 RES1   0.0000
     4 C4      46.2843 163.5911 -11.6845   C.2       1 RES1   0.0000
     5 C5      46.1533 162.9068 -10.4881   C.2       1 RES1   0.0000
     6 C6      44.8985 162.6319  -9.9693   C.2       1 RES1   0.0000
     7 O7      44.8751 161.9167  -8.7486   O.3       1 RES1   0.0000
     8 C8      43.6536 161.6028  -8.1365   C.3       1 RES1   0.0000
     9 C9      43.5277 160.0920  -8.1136   C.3       1 RES1   0.0000
    10 C10     43.6185 162.1984  -6.7420   C.2       1 RES1   0.0000
    11 O11     42.5643 162.4113  -6.1695   O.2       1 RES1   0.0000
    12 N12     44.8761 162.4864  -6.1615   N.am      1 RES1   0.0000
    13 C13     45.1149 163.0441  -4.8787   C.2       1 RES1   0.0000
    14 C14     45.8604 162.2712  -4.0048   C.2       1 RES1   0.0000
    15 C15     46.1347 162.7278  -2.7320   C.2       1 RES1   0.0000
    16 C16     45.6545 163.9605  -2.3411   C.2       1 RES1   0.0000
    17 I17     46.0815 164.6198  -0.3808   I         1 RES1   0.0000
    18 C18     44.9051 164.7463  -3.2079   C.2       1 RES1   0.0000
    19 C19     44.6328 164.2848  -4.4867   C.2       1 RES1   0.0000
    20 C20     43.7624 163.0459 -10.6685   C.2       1 RES1   0.0000
    21 C21     43.8962 163.7389 -11.8765   C.2       1 RES1   0.0000
@<TRIPOS>BOND
     1     1     2    1
     2     2     3    1
     3     3     4    2
     4     4     5    1
     5     5     6    2
     6     6     7    1
     7     7     8    1
     8     8     9    1
     9     8    10    1
    10    10    11    2
    11    10    12   am
    12    12    13    1
    13    13    14    2
    14    14    15    1
    15    15    16    2
    16    16    17    1
    17    16    18    1
    18    18    19    2
    19     6    20    1
    20    20    21    2
    21    21     3    1
    22    19    13    1
@<TRIPOS>SUBSTRUCTURE
     1 RES1        1 GROUP             0 ****  ****    0  
@<TRIPOS>MOLECULE
ligand_87
    21    22     1     0     0
SMALL
NO_CHARGES
****
Generated from the CSD

@<TRIPOS>ATOM
     1 C1      48.0134 155.7378 -10.3165   C.3       1 RES1   0.0000
     2 O2      47.8828 157.0548 -10.8032   O.3       1 RES1   0.0000
     3 C3      47.0412 157.9508 -10.1065   C.2       1 RES1   0.0000
     4 C4      46.9316 159.2382 -10.6097   C.2       1 RES1   0.0000
     5 C5      46.1367 160.1789  -9.9773   C.2       1 RES1   0.0000
     6 C6      45.4404 159.8508  -8.8255   C.2       1 RES1   0.0000
     7 O7      44.6678 160.8878  -8.2511   O.3       1 RES1   0.0000
     8 C8      44.8757 162.2200  -8.6351   C.3       1 RES1   0.0000
     9 C9      43.6924 162.6419  -9.4840   C.3       1 RES1   0.0000
    10 C10     45.0269 163.0853  -7.3986   C.2       1 RES1   0.0000
    11 O11     45.5926 164.1635  -7.4441   O.2       1 RES1   0.0000
    12 N12     44.4748 162.5609  -6.2062   N.am      1 RES1   0.0000
    13 C13     44.4839 163.1681  -4.9237   C.2       1 RES1   0.0000
    14 C14     45.1176 162.4606  -3.9164   C.2       1 RES1   0.0000
    15 C15     45.1679 162.9685  -2.6346   C.2       1 RES1   0.0000
    16 C16     44.5767 164.1862  -2.3694   C.2       1 RES1   0.0000
    17 I17     44.6605 164.9248  -0.3926   I         1 RES1   0.0000
    18 C18     43.9374 164.9066  -3.3707   C.2       1 RES1   0.0000
    19 C19     43.8902 164.3938  -4.6581   C.2       1 RES1   0.0000
    20 C20     45.5523 158.5609  -8.3014   C.2       1 RES1   0.0000
    21 C21     46.3545 157.6106  -8.9425   C.2       1 RES1   0.0000
@<TRIPOS>BOND
     1     1     2    1
     2     2     3    1
     3     3     4    2
     4     4     5    1
     5     5     6    2
     6     6     7    1
     7     7     8    1
     8     8     9    1
     9     8    10    1
    10    10    11    2
    11    10    12   am
    12    12    13    1
    13    13    14    2
    14    14    15    1
    15    15    16    2
    16    16    17    1
    17    16    18    1
    18    18    19    2
    19     6    20    1
    20    20    21    2
    21    21     3    1
    22    19    13    1
@<TRIPOS>SUBSTRUCTURE
     1 RES1        1 GROUP             0 ****  ****    0  
@<TRIPOS>MOLECULE
ligand_88
    21    22     1     0     0
SMALL
NO_CHARGES
****
Generated from the CSD

@<TRIPOS>ATOM
     1 C1      44.2645 165.1456 -14.3328   C.3       1 RES1   0.0000
     2 O2      45.3838 164.6982 -13.6010   O.3       1 RES1   0.0000
     3 C3      45.1646 164.0183 -12.3819   C.2       1 RES1   0.0000
     4 C4      46.2843 163.5911 -11.6845   C.2       1 RES1   0.0000
     5 C5      46.1533 162.9068 -10.4881   C.2       1 RES1   0.0000
     6 C6      44.8985 162.6319  -9.9693   C.2       1 RES1   0.0000
     7 O7      44.8751 161.9167  -8.7486   O.3       1 RES1   0.0000
     8 C8      43.6536 161.6028  -8.1365   C.3       1 RES1   0.0000
     9 C9      43.5277 160.0920  -8.1136   C.3       1 RES1   0.0000
    10 C10     43.6185 162.1984  -6.7420   C.2       1 RES1   0.0000
    11 O11     42.5643 162.4113  -6.1695   O.2       1 RES1   0.0000
    12 N12     44.8761 162.4864  -6.1615   N.am      1 RES1   0.0000
    13 C13     45.1149 163.0441  -4.8787   C.2       1 RES1   0.0000
    14 C14     45.8604 162.2712  -4.0048   C.2       1 RES1   0.0000
    15 C15     46.1347 162.7279  -2.7320   C.2       1 RES1   0.0000
    16 C16     45.6545 163.9605  -2.3411   C.2       1 RES1   0.0000
    17 I17     46.0815 164.6199  -0.3808   I         1 RES1   0.0000
    18 C18     44.9051 164.7464  -3.2079   C.2       1 RES1   0.0000
    19 C19     44.6328 164.2848  -4.4867   C.2       1 RES1   0.0000
    20 C20     43.7624 163.0459 -10.6685   C.2       1 RES1   0.0000
    21 C21     43.8962 163.7389 -11.8765   C.2       1 RES1   0.0000
@<TRIPOS>BOND
     1     1     2    1
     2     2     3    1
     3     3     4    2
     4     4     5    1
     5     5     6    2
     6     6     7    1
     7     7     8    1
     8     8     9    1
     9     8    10    1
    10    10    11    2
    11    10    12   am
    12    12    13    1
    13    13    14    2
    14    14    15    1
    15    15    16    2
    16    16    17    1
    17    16    18    1
    18    18    19    2
    19     6    20    1
    20    20    21    2
    21    21     3    1
    22    19    13    1
@<TRIPOS>SUBSTRUCTURE
     1 RES1        1 GROUP             0 ****  ****    0  
@<TRIPOS>MOLECULE
ligand_89
    21    22     1     0     0
SMALL
NO_CHARGES
****
Generated from the CSD

@<TRIPOS>ATOM
     1 C1      43.0245 158.9241 -14.2496   C.3       1 RES1   0.0000
     2 O2      42.6874 160.2471 -13.8966   O.3       1 RES1   0.0000
     3 C3      43.0498 160.7160 -12.6139   C.2       1 RES1   0.0000
     4 C4      43.7200 159.8320 -11.7821   C.2       1 RES1   0.0000
     5 C5      44.0983 160.2113 -10.5056   C.2       1 RES1   0.0000
     6 C6      43.8080 161.4814 -10.0345   C.2       1 RES1   0.0000
     7 O7      44.2268 161.7635  -8.7128   O.3       1 RES1   0.0000
     8 C8      44.8637 160.7768  -7.9472   C.3       1 RES1   0.0000
     9 C9      46.3046 160.6956  -8.4118   C.3       1 RES1   0.0000
    10 C10     44.7587 161.1315  -6.4762   C.2       1 RES1   0.0000
    11 O11     44.5974 160.2733  -5.6266   O.2       1 RES1   0.0000
    12 N12     44.8584 162.5078  -6.1639   N.am      1 RES1   0.0000
    13 C13     45.1087 163.0763  -4.8881   C.2       1 RES1   0.0000
    14 C14     45.9059 162.3341  -4.0335   C.2       1 RES1   0.0000
    15 C15     46.1954 162.8029  -2.7685   C.2       1 RES1   0.0000
    16 C16     45.6783 164.0167  -2.3659   C.2       1 RES1   0.0000
    17 I17     46.1303 164.6951  -0.4177   I         1 RES1   0.0000
    18 C18     44.8768 164.7718  -3.2133   C.2       1 RES1   0.0000
    19 C19     44.5894 164.2980  -4.4844   C.2       1 RES1   0.0000
    20 C20     43.1221 162.3772 -10.8581   C.2       1 RES1   0.0000
    21 C21     42.7420 161.9932 -12.1487   C.2       1 RES1   0.0000
@<TRIPOS>BOND
     1     1     2    1
     2     2     3    1
     3     3     4    2
     4     4     5    1
     5     5     6    2
     6     6     7    1
     7     7     8    1
     8     8     9    1
     9     8    10    1
    10    10    11    2
    11    10    12   am
    12    12    13    1
    13    13    14    2
    14    14    15    1
    15    15    16    2
    16    16    17    1
    17    16    18    1
    18    18    19    2
    19     6    20    1
    20    20    21    2
    21    21     3    1
    22    19    13    1
@<TRIPOS>SUBSTRUCTURE
     1 RES1        1 GROUP             0 ****  ****    0  
@<TRIPOS>MOLECULE
ligand_90
    21    22     1     0     0
SMALL
NO_CHARGES
****
Generated from the CSD

@<TRIPOS>ATOM
     1 C1      42.0051 161.1234 -14.7655   C.3       1 RES1   0.0000
     2 O2      42.6874 160.2471 -13.8966   O.3       1 RES1   0.0000
     3 C3      43.0498 160.7160 -12.6139   C.2       1 RES1   0.0000
     4 C4      43.7200 159.8320 -11.7821   C.2       1 RES1   0.0000
     5 C5      44.0983 160.2113 -10.5056   C.2       1 RES1   0.0000
     6 C6      43.8080 161.4814 -10.0345   C.2       1 RES1   0.0000
     7 O7      44.2268 161.7635  -8.7128   O.3       1 RES1   0.0000
     8 C8      44.8637 160.7768  -7.9472   C.3       1 RES1   0.0000
     9 C9      46.3046 160.6956  -8.4118   C.3       1 RES1   0.0000
    10 C10     44.7587 161.1315  -6.4762   C.2       1 RES1   0.0000
    11 O11     44.5974 160.2733  -5.6266   O.2       1 RES1   0.0000
    12 N12     44.8584 162.5078  -6.1639   N.am      1 RES1   0.0000
    13 C13     45.1087 163.0763  -4.8881   C.2       1 RES1   0.0000
    14 C14     45.9059 162.3341  -4.0335   C.2       1 RES1   0.0000
    15 C15     46.1954 162.8029  -2.7685   C.2       1 RES1   0.0000
    16 C16     45.6783 164.0167  -2.3659   C.2       1 RES1   0.0000
    17 I17     46.1303 164.6951  -0.4177   I         1 RES1   0.0000
    18 C18     44.8768 164.7718  -3.2133   C.2       1 RES1   0.0000
    19 C19     44.5894 164.2980  -4.4844   C.2       1 RES1   0.0000
    20 C20     43.1221 162.3772 -10.8581   C.2       1 RES1   0.0000
    21 C21     42.7420 161.9932 -12.1487   C.2       1 RES1   0.0000
@<TRIPOS>BOND
     1     1     2    1
     2     2     3    1
     3     3     4    2
     4     4     5    1
     5     5     6    2
     6     6     7    1
     7     7     8    1
     8     8     9    1
     9     8    10    1
    10    10    11    2
    11    10    12   am
    12    12    13    1
    13    13    14    2
    14    14    15    1
    15    15    16    2
    16    16    17    1
    17    16    18    1
    18    18    19    2
    19     6    20    1
    20    20    21    2
    21    21     3    1
    22    19    13    1
@<TRIPOS>SUBSTRUCTURE
     1 RES1        1 GROUP             0 ****  ****    0  
@<TRIPOS>MOLECULE
ligand_91
    21    22     1     0     0
SMALL
NO_CHARGES
****
Generated from the CSD

@<TRIPOS>ATOM
     1 C1      38.3745 166.1494  -8.3086   C.3       1 RES1   0.0000
     2 O2      39.4472 166.4550  -9.1714   O.3       1 RES1   0.0000
     3 C3      40.5472 165.5694  -9.2196   C.2       1 RES1   0.0000
     4 C4      41.5868 165.8964 -10.0767   C.2       1 RES1   0.0000
     5 C5      42.6944 165.0736 -10.1905   C.2       1 RES1   0.0000
     6 C6      42.7804 163.9044  -9.4526   C.2       1 RES1   0.0000
     7 O7      43.9473 163.1294  -9.6520   O.3       1 RES1   0.0000
     8 C8      44.4576 162.3395  -8.6122   C.3       1 RES1   0.0000
     9 C9      45.7106 161.6585  -9.1270   C.3       1 RES1   0.0000
    10 C10     44.7392 163.2128  -7.4046   C.2       1 RES1   0.0000
    11 O11     44.8264 164.4240  -7.5040   O.2       1 RES1   0.0000
    12 N12     44.8925 162.5334  -6.1731   N.am      1 RES1   0.0000
    13 C13     45.1575 163.1150  -4.9061   C.2       1 RES1   0.0000
    14 C14     45.8830 162.3403  -4.0172   C.2       1 RES1   0.0000
    15 C15     46.1801 162.8195  -2.7579   C.2       1 RES1   0.0000
    16 C16     45.7427 164.0765  -2.3956   C.2       1 RES1   0.0000
    17 I17     46.2034 164.7705  -0.4549   I         1 RES1   0.0000
    18 C18     45.0137 164.8645  -3.2777   C.2       1 RES1   0.0000
    19 C19     44.7184 164.3801  -4.5429   C.2       1 RES1   0.0000
    20 C20     41.7340 163.5572  -8.5949   C.2       1 RES1   0.0000
    21 C21     40.6160 164.3905  -8.4794   C.2       1 RES1   0.0000
@<TRIPOS>BOND
     1     1     2    1
     2     2     3    1
     3     3     4    2
     4     4     5    1
     5     5     6    2
     6     6     7    1
     7     7     8    1
     8     8     9    1
     9     8    10    1
    10    10    11    2
    11    10    12   am
    12    12    13    1
    13    13    14    2
    14    14    15    1
    15    15    16    2
    16    16    17    1
    17    16    18    1
    18    18    19    2
    19     6    20    1
    20    20    21    2
    21    21     3    1
    22    19    13    1
@<TRIPOS>SUBSTRUCTURE
     1 RES1        1 GROUP             0 ****  ****    0  
@<TRIPOS>MOLECULE
ligand_92
    21    22     1     0     0
SMALL
NO_CHARGES
****
Generated from the CSD

@<TRIPOS>ATOM
     1 C1      36.6784 160.9348  -6.4991   C.3       1 RES1   0.0000
     2 O2      37.8691 160.2788  -6.1242   O.3       1 RES1   0.0000
     3 C3      39.0750 160.6567  -6.7563   C.2       1 RES1   0.0000
     4 C4      39.0025 161.6585  -7.7121   C.2       1 RES1   0.0000
     5 C5      40.1377 162.0766  -8.3853   C.2       1 RES1   0.0000
     6 C6      41.3669 161.4960  -8.1188   C.2       1 RES1   0.0000
     7 O7      42.4607 161.9866  -8.8704   O.3       1 RES1   0.0000
     8 C8      43.7520 161.9831  -8.3244   C.3       1 RES1   0.0000
     9 C9      44.6866 162.5861  -9.3548   C.3       1 RES1   0.0000
    10 C10     43.7544 162.7666  -7.0257   C.2       1 RES1   0.0000
    11 O11     42.8525 163.5373  -6.7480   O.2       1 RES1   0.0000
    12 N12     44.8608 162.5446  -6.1723   N.am      1 RES1   0.0000
    13 C13     45.1011 163.1525  -4.9128   C.2       1 RES1   0.0000
    14 C14     45.8027 162.3939  -3.9913   C.2       1 RES1   0.0000
    15 C15     46.0748 162.8992  -2.7366   C.2       1 RES1   0.0000
    16 C16     45.6365 164.1661  -2.4116   C.2       1 RES1   0.0000
    17 I17     46.0584 164.9003  -0.4769   I         1 RES1   0.0000
    18 C18     44.9314 164.9381  -3.3266   C.2       1 RES1   0.0000
    19 C19     44.6612 164.4276  -4.5871   C.2       1 RES1   0.0000
    20 C20     41.4512 160.4770  -7.1671   C.2       1 RES1   0.0000
    21 C21     40.3035 160.0567  -6.4862   C.2       1 RES1   0.0000
@<TRIPOS>BOND
     1     1     2    1
     2     2     3    1
     3     3     4    2
     4     4     5    1
     5     5     6    2
     6     6     7    1
     7     7     8    1
     8     8     9    1
     9     8    10    1
    10    10    11    2
    11    10    12   am
    12    12    13    1
    13    13    14    2
    14    14    15    1
    15    15    16    2
    16    16    17    1
    17    16    18    1
    18    18    19    2
    19     6    20    1
    20    20    21    2
    21    21     3    1
    22    19    13    1
@<TRIPOS>SUBSTRUCTURE
     1 RES1        1 GROUP             0 ****  ****    0  
@<TRIPOS>MOLECULE
ligand_93
    21    22     1     0     0
SMALL
NO_CHARGES
****
Generated from the CSD

@<TRIPOS>ATOM
     1 C1      37.9109 159.2628  -5.1473   C.3       1 RES1   0.0000
     2 O2      37.8691 160.2788  -6.1242   O.3       1 RES1   0.0000
     3 C3      39.0750 160.6567  -6.7563   C.2       1 RES1   0.0000
     4 C4      39.0025 161.6585  -7.7121   C.2       1 RES1   0.0000
     5 C5      40.1377 162.0766  -8.3853   C.2       1 RES1   0.0000
     6 C6      41.3669 161.4960  -8.1188   C.2       1 RES1   0.0000
     7 O7      42.4607 161.9866  -8.8704   O.3       1 RES1   0.0000
     8 C8      43.7520 161.9831  -8.3244   C.3       1 RES1   0.0000
     9 C9      44.6866 162.5861  -9.3548   C.3       1 RES1   0.0000
    10 C10     43.7544 162.7666  -7.0257   C.2       1 RES1   0.0000
    11 O11     42.8525 163.5373  -6.7480   O.2       1 RES1   0.0000
    12 N12     44.8608 162.5446  -6.1723   N.am      1 RES1   0.0000
    13 C13     45.1011 163.1525  -4.9128   C.2       1 RES1   0.0000
    14 C14     45.8027 162.3939  -3.9913   C.2       1 RES1   0.0000
    15 C15     46.0748 162.8992  -2.7366   C.2       1 RES1   0.0000
    16 C16     45.6365 164.1661  -2.4116   C.2       1 RES1   0.0000
    17 I17     46.0584 164.9003  -0.4769   I         1 RES1   0.0000
    18 C18     44.9314 164.9381  -3.3266   C.2       1 RES1   0.0000
    19 C19     44.6612 164.4276  -4.5871   C.2       1 RES1   0.0000
    20 C20     41.4512 160.4770  -7.1671   C.2       1 RES1   0.0000
    21 C21     40.3035 160.0567  -6.4862   C.2       1 RES1   0.0000
@<TRIPOS>BOND
     1     1     2    1
     2     2     3    1
     3     3     4    2
     4     4     5    1
     5     5     6    2
     6     6     7    1
     7     7     8    1
     8     8     9    1
     9     8    10    1
    10    10    11    2
    11    10    12   am
    12    12    13    1
    13    13    14    2
    14    14    15    1
    15    15    16    2
    16    16    17    1
    17    16    18    1
    18    18    19    2
    19     6    20    1
    20    20    21    2
    21    21     3    1
    22    19    13    1
@<TRIPOS>SUBSTRUCTURE
     1 RES1        1 GROUP             0 ****  ****    0  
@<TRIPOS>MOLECULE
ligand_94
    21    22     1     0     0
SMALL
NO_CHARGES
****
Generated from the CSD

@<TRIPOS>ATOM
     1 C1      39.8286 164.2911 -13.6543   C.3       1 RES1   0.0000
     2 O2      39.8284 163.3648 -12.5911   O.3       1 RES1   0.0000
     3 C3      40.9977 163.2363 -11.8084   C.2       1 RES1   0.0000
     4 C4      42.0764 164.0402 -12.1441   C.2       1 RES1   0.0000
     5 C5      43.2622 163.9648 -11.4336   C.2       1 RES1   0.0000
     6 C6      43.3933 163.0791 -10.3765   C.2       1 RES1   0.0000
     7 O7      44.6495 163.0717  -9.7254   O.3       1 RES1   0.0000
     8 C8      44.8757 162.2200  -8.6351   C.3       1 RES1   0.0000
     9 C9      45.9625 161.2416  -9.0360   C.3       1 RES1   0.0000
    10 C10     45.2689 163.0429  -7.4232   C.2       1 RES1   0.0000
    11 O11     45.8783 164.0916  -7.5389   O.2       1 RES1   0.0000
    12 N12     44.8859 162.5153  -6.1675   N.am      1 RES1   0.0000
    13 C13     45.1322 163.0866  -4.8921   C.2       1 RES1   0.0000
    14 C14     45.8785 162.3208  -4.0127   C.2       1 RES1   0.0000
    15 C15     46.1599 162.7907  -2.7464   C.2       1 RES1   0.0000
    16 C16     45.6859 164.0294  -2.3674   C.2       1 RES1   0.0000
    17 I17     46.1237 164.7092  -0.4164   I         1 RES1   0.0000
    18 C18     44.9357 164.8082  -3.2398   C.2       1 RES1   0.0000
    19 C19     44.6563 164.3333  -4.5121   C.2       1 RES1   0.0000
    20 C20     42.3181 162.2548 -10.0362   C.2       1 RES1   0.0000
    21 C21     41.1197 162.3333 -10.7539   C.2       1 RES1   0.0000
@<TRIPOS>BOND
     1     1     2    1
     2     2     3    1
     3     3     4    2
     4     4     5    1
     5     5     6    2
     6     6     7    1
     7     7     8    1
     8     8     9    1
     9     8    10    1
    10    10    11    2
    11    10    12   am
    12    12    13    1
    13    13    14    2
    14    14    15    1
    15    15    16    2
    16    16    17    1
    17    16    18    1
    18    18    19    2
    19     6    20    1
    20    20    21    2
    21    21     3    1
    22    19    13    1
@<TRIPOS>SUBSTRUCTURE
     1 RES1        1 GROUP             0 ****  ****    0  
@<TRIPOS>MOLECULE
ligand_95
    21    22     1     0     0
SMALL
NO_CHARGES
****
Generated from the CSD

@<TRIPOS>ATOM
     1 C1      38.7142 162.5609 -12.2735   C.3       1 RES1   0.0000
     2 O2      39.8284 163.3648 -12.5911   O.3       1 RES1   0.0000
     3 C3      40.9977 163.2363 -11.8084   C.2       1 RES1   0.0000
     4 C4      42.0764 164.0402 -12.1441   C.2       1 RES1   0.0000
     5 C5      43.2622 163.9648 -11.4336   C.2       1 RES1   0.0000
     6 C6      43.3933 163.0791 -10.3765   C.2       1 RES1   0.0000
     7 O7      44.6495 163.0717  -9.7254   O.3       1 RES1   0.0000
     8 C8      44.8757 162.2200  -8.6351   C.3       1 RES1   0.0000
     9 C9      45.9625 161.2416  -9.0360   C.3       1 RES1   0.0000
    10 C10     45.2689 163.0429  -7.4232   C.2       1 RES1   0.0000
    11 O11     45.8783 164.0916  -7.5389   O.2       1 RES1   0.0000
    12 N12     44.8859 162.5153  -6.1675   N.am      1 RES1   0.0000
    13 C13     45.1322 163.0866  -4.8921   C.2       1 RES1   0.0000
    14 C14     45.8785 162.3208  -4.0127   C.2       1 RES1   0.0000
    15 C15     46.1599 162.7907  -2.7464   C.2       1 RES1   0.0000
    16 C16     45.6859 164.0294  -2.3674   C.2       1 RES1   0.0000
    17 I17     46.1236 164.7092  -0.4164   I         1 RES1   0.0000
    18 C18     44.9357 164.8082  -3.2398   C.2       1 RES1   0.0000
    19 C19     44.6562 164.3333  -4.5121   C.2       1 RES1   0.0000
    20 C20     42.3181 162.2548 -10.0362   C.2       1 RES1   0.0000
    21 C21     41.1197 162.3333 -10.7539   C.2       1 RES1   0.0000
@<TRIPOS>BOND
     1     1     2    1
     2     2     3    1
     3     3     4    2
     4     4     5    1
     5     5     6    2
     6     6     7    1
     7     7     8    1
     8     8     9    1
     9     8    10    1
    10    10    11    2
    11    10    12   am
    12    12    13    1
    13    13    14    2
    14    14    15    1
    15    15    16    2
    16    16    17    1
    17    16    18    1
    18    18    19    2
    19     6    20    1
    20    20    21    2
    21    21     3    1
    22    19    13    1
@<TRIPOS>SUBSTRUCTURE
     1 RES1        1 GROUP             0 ****  ****    0  
@<TRIPOS>MOLECULE
ligand_96
    21    22     1     0     0
SMALL
NO_CHARGES
****
Generated from the CSD

@<TRIPOS>ATOM
     1 C1      41.7004 154.6187  -9.6741   C.3       1 RES1   0.0000
     2 O2      42.9375 155.2835  -9.5473   O.3       1 RES1   0.0000
     3 C3      42.9340 156.6586  -9.2225   C.2       1 RES1   0.0000
     4 C4      41.6995 157.2655  -9.0485   C.2       1 RES1   0.0000
     5 C5      41.6111 158.6125  -8.7412   C.2       1 RES1   0.0000
     6 C6      42.7568 159.3797  -8.6076   C.2       1 RES1   0.0000
     7 O7      42.5558 160.7472  -8.3051   O.3       1 RES1   0.0000
     8 C8      43.6536 161.6028  -8.1365   C.3       1 RES1   0.0000
     9 C9      43.5917 162.6488  -9.2324   C.3       1 RES1   0.0000
    10 C10     43.6038 162.2233  -6.7534   C.2       1 RES1   0.0000
    11 O11     42.5437 162.4429  -6.1943   O.2       1 RES1   0.0000
    12 N12     44.8551 162.5263  -6.1668   N.am      1 RES1   0.0000
    13 C13     45.0803 163.1079  -4.8922   C.2       1 RES1   0.0000
    14 C14     45.8204 162.3535  -3.9978   C.2       1 RES1   0.0000
    15 C15     46.0816 162.8340  -2.7311   C.2       1 RES1   0.0000
    16 C16     45.5937 164.0718  -2.3669   C.2       1 RES1   0.0000
    17 I17     46.0006 164.7679  -0.4150   I         1 RES1   0.0000
    18 C18     44.8496 164.8392  -3.2544   C.2       1 RES1   0.0000
    19 C19     44.5905 164.3537  -4.5271   C.2       1 RES1   0.0000
    20 C20     44.0062 158.7831  -8.7928   C.2       1 RES1   0.0000
    21 C21     44.0942 157.4213  -9.1016   C.2       1 RES1   0.0000
@<TRIPOS>BOND
     1     1     2    1
     2     2     3    1
     3     3     4    2
     4     4     5    1
     5     5     6    2
     6     6     7    1
     7     7     8    1
     8     8     9    1
     9     8    10    1
    10    10    11    2
    11    10    12   am
    12    12    13    1
    13    13    14    2
    14    14    15    1
    15    15    16    2
    16    16    17    1
    17    16    18    1
    18    18    19    2
    19     6    20    1
    20    20    21    2
    21    21     3    1
    22    19    13    1
@<TRIPOS>SUBSTRUCTURE
     1 RES1        1 GROUP             0 ****  ****    0  
@<TRIPOS>MOLECULE
ligand_97
    21    22     1     0     0
SMALL
NO_CHARGES
****
Generated from the CSD

@<TRIPOS>ATOM
     1 C1      44.1780 154.6383  -9.7299   C.3       1 RES1   0.0000
     2 O2      42.9375 155.2835  -9.5473   O.3       1 RES1   0.0000
     3 C3      42.9340 156.6586  -9.2225   C.2       1 RES1   0.0000
     4 C4      41.6995 157.2655  -9.0485   C.2       1 RES1   0.0000
     5 C5      41.6111 158.6125  -8.7412   C.2       1 RES1   0.0000
     6 C6      42.7568 159.3797  -8.6076   C.2       1 RES1   0.0000
     7 O7      42.5558 160.7472  -8.3051   O.3       1 RES1   0.0000
     8 C8      43.6536 161.6028  -8.1365   C.3       1 RES1   0.0000
     9 C9      43.5917 162.6488  -9.2324   C.3       1 RES1   0.0000
    10 C10     43.6038 162.2233  -6.7534   C.2       1 RES1   0.0000
    11 O11     42.5437 162.4429  -6.1943   O.2       1 RES1   0.0000
    12 N12     44.8551 162.5262  -6.1668   N.am      1 RES1   0.0000
    13 C13     45.0803 163.1079  -4.8922   C.2       1 RES1   0.0000
    14 C14     45.8204 162.3535  -3.9978   C.2       1 RES1   0.0000
    15 C15     46.0816 162.8340  -2.7311   C.2       1 RES1   0.0000
    16 C16     45.5938 164.0718  -2.3669   C.2       1 RES1   0.0000
    17 I17     46.0007 164.7679  -0.4150   I         1 RES1   0.0000
    18 C18     44.8496 164.8392  -3.2544   C.2       1 RES1   0.0000
    19 C19     44.5905 164.3537  -4.5271   C.2       1 RES1   0.0000
    20 C20     44.0062 158.7831  -8.7928   C.2       1 RES1   0.0000
    21 C21     44.0942 157.4213  -9.1016   C.2       1 RES1   0.0000
@<TRIPOS>BOND
     1     1     2    1
     2     2     3    1
     3     3     4    2
     4     4     5    1
     5     5     6    2
     6     6     7    1
     7     7     8    1
     8     8     9    1
     9     8    10    1
    10    10    11    2
    11    10    12   am
    12    12    13    1
    13    13    14    2
    14    14    15    1
    15    15    16    2
    16    16    17    1
    17    16    18    1
    18    18    19    2
    19     6    20    1
    20    20    21    2
    21    21     3    1
    22    19    13    1
@<TRIPOS>SUBSTRUCTURE
     1 RES1        1 GROUP             0 ****  ****    0  
@<TRIPOS>MOLECULE
ligand_98
    21    22     1     0     0
SMALL
NO_CHARGES
****
Generated from the CSD

@<TRIPOS>ATOM
     1 C1      38.2686 159.4881  -9.9694   C.3       1 RES1   0.0000
     2 O2      39.0781 159.0930  -8.8844   O.3       1 RES1   0.0000
     3 C3      40.3482 159.6942  -8.7367   C.2       1 RES1   0.0000
     4 C4      40.7140 160.6425  -9.6798   C.2       1 RES1   0.0000
     5 C5      41.9472 161.2680  -9.6117   C.2       1 RES1   0.0000
     6 C6      42.8408 160.9522  -8.6013   C.2       1 RES1   0.0000
     7 O7      44.0776 161.6389  -8.6299   O.3       1 RES1   0.0000
     8 C8      45.2362 161.0297  -8.1281   C.3       1 RES1   0.0000
     9 C9      46.4221 161.6308  -8.8569   C.3       1 RES1   0.0000
    10 C10     45.3163 161.2518  -6.6298   C.2       1 RES1   0.0000
    11 O11     45.7428 160.3892  -5.8825   O.2       1 RES1   0.0000
    12 N12     44.8670 162.5110  -6.1670   N.am      1 RES1   0.0000
    13 C13     45.1978 163.1341  -4.9358   C.2       1 RES1   0.0000
    14 C14     46.1642 162.5031  -4.1711   C.2       1 RES1   0.0000
    15 C15     46.5433 163.0310  -2.9541   C.2       1 RES1   0.0000
    16 C16     45.9456 164.1916  -2.5083   C.2       1 RES1   0.0000
    17 I17     46.5404 164.9621  -0.6341   I         1 RES1   0.0000
    18 C18     44.9745 164.8351  -3.2655   C.2       1 RES1   0.0000
    19 C19     44.5972 164.3023  -4.4888   C.2       1 RES1   0.0000
    20 C20     42.4894 159.9894  -7.6523   C.2       1 RES1   0.0000
    21 C21     41.2420 159.3593  -7.7211   C.2       1 RES1   0.0000
@<TRIPOS>BOND
     1     1     2    1
     2     2     3    1
     3     3     4    2
     4     4     5    1
     5     5     6    2
     6     6     7    1
     7     7     8    1
     8     8     9    1
     9     8    10    1
    10    10    11    2
    11    10    12   am
    12    12    13    1
    13    13    14    2
    14    14    15    1
    15    15    16    2
    16    16    17    1
    17    16    18    1
    18    18    19    2
    19     6    20    1
    20    20    21    2
    21    21     3    1
    22    19    13    1
@<TRIPOS>SUBSTRUCTURE
     1 RES1        1 GROUP             0 ****  ****    0  
@<TRIPOS>MOLECULE
ligand_99
    21    22     1     0     0
SMALL
NO_CHARGES
****
Generated from the CSD

@<TRIPOS>ATOM
     1 C1      43.2711 156.0746  -4.0839   C.3       1 RES1   0.0000
     2 O2      42.0501 156.5660  -4.5900   O.3       1 RES1   0.0000
     3 C3      42.0857 157.6103  -5.5410   C.2       1 RES1   0.0000
     4 C4      43.3339 158.0843  -5.9151   C.2       1 RES1   0.0000
     5 C5      43.4530 159.1145  -6.8323   C.2       1 RES1   0.0000
     6 C6      42.3245 159.6942  -7.3888   C.2       1 RES1   0.0000
     7 O7      42.5558 160.7472  -8.3051   O.3       1 RES1   0.0000
     8 C8      43.6536 161.6028  -8.1365   C.3       1 RES1   0.0000
     9 C9      43.5847 162.6562  -9.2248   C.3       1 RES1   0.0000
    10 C10     43.6106 162.2138  -6.7489   C.2       1 RES1   0.0000
    11 O11     42.5532 162.4312  -6.1840   O.2       1 RES1   0.0000
    12 N12     44.8648 162.5104  -6.1654   N.am      1 RES1   0.0000
    13 C13     45.0963 163.0828  -4.8877   C.2       1 RES1   0.0000
    14 C14     45.8387 162.3209  -4.0016   C.2       1 RES1   0.0000
    15 C15     46.1060 162.7921  -2.7327   C.2       1 RES1   0.0000
    16 C16     45.6218 164.0282  -2.3579   C.2       1 RES1   0.0000
    17 I17     46.0379 164.7100  -0.4029   I         1 RES1   0.0000
    18 C18     44.8754 164.8031  -3.2370   C.2       1 RES1   0.0000
    19 C19     44.6101 164.3268  -4.5119   C.2       1 RES1   0.0000
    20 C20     41.0609 159.2343  -7.0108   C.2       1 RES1   0.0000
    21 C21     40.9420 158.1919  -6.0851   C.2       1 RES1   0.0000
@<TRIPOS>BOND
     1     1     2    1
     2     2     3    1
     3     3     4    2
     4     4     5    1
     5     5     6    2
     6     6     7    1
     7     7     8    1
     8     8     9    1
     9     8    10    1
    10    10    11    2
    11    10    12   am
    12    12    13    1
    13    13    14    2
    14    14    15    1
    15    15    16    2
    16    16    17    1
    17    16    18    1
    18    18    19    2
    19     6    20    1
    20    20    21    2
    21    21     3    1
    22    19    13    1
@<TRIPOS>SUBSTRUCTURE
     1 RES1        1 GROUP             0 ****  ****    0  
