@<TRIPOS>MOLECULE
native
    27    29     1     0     0
SMALL
NO_CHARGES
****
Generated from the CSD

@<TRIPOS>ATOM
     1 C1       3.2140  -0.5250  10.5930   C.3       1 RES1   0.0000
     2 C2       4.2800  -1.0780   9.6770   C.3       1 RES1   0.0000
     3 C3       4.8190  -0.0230   8.7280   C.3       1 RES1   0.0000
     4 N4       5.3380   1.1030   9.4650   N.am      1 RES1   0.0000
     5 C5       5.0150   2.3800   9.0910   C.2       1 RES1   0.0000
     6 O6       4.4300   2.6750   8.0590   O.2       1 RES1   0.0000
     7 C7       5.4270   3.3890  10.0320   C.2       1 RES1   0.0000
     8 C8       5.2040   4.7850   9.9390   C.2       1 RES1   0.0000
     9 N9       5.7130   5.4510  10.9770   N.2       1 RES1   0.0000
    10 N10      6.2610   4.4800  11.7220   N.pl3     1 RES1   0.0000
    11 C11      6.8850   4.8210  12.8940   C.2       1 RES1   0.0000
    12 C12      7.3480   3.5820  13.5340   C.2       1 RES1   0.0000
    13 C13      8.0290   3.7230  14.8420   C.3       1 RES1   0.0000
    14 C14      7.1970   2.3680  12.9920   C.2       1 RES1   0.0000
    15 N15      6.6160   2.1410  11.8540   N.2       1 RES1   0.0000
    16 C16      6.1220   3.2210  11.2100   C.2       1 RES1   0.0000
    17 C17      5.8700  -0.6590   7.8750   C.2       1 RES1   0.0000
    18 C18      5.5100  -1.3270   6.7230   C.2       1 RES1   0.0000
    19 C19      6.4690  -1.9230   5.9350   C.2       1 RES1   0.0000
    20 C20      7.7950  -1.8400   6.3060   C.2       1 RES1   0.0000
    21 O21      8.7590  -2.4460   5.5210   O.3       1 RES1   0.0000
    22 C22      9.3280  -1.4950   4.6250   C.3       1 RES1   0.0000
    23 F23      9.9450  -0.4600   5.2550   F         1 RES1   0.0000
    24 F24      8.4030  -0.9850   3.7770   F         1 RES1   0.0000
    25 F25     10.2550  -2.1640   3.8970   F         1 RES1   0.0000
    26 C26      8.1700  -1.1820   7.4560   C.2       1 RES1   0.0000
    27 C27      7.2000  -0.5920   8.2340   C.2       1 RES1   0.0000
@<TRIPOS>BOND
     1     1     2    1
     2     3     2    1
     3     3     4    1
     4     4     5   am
     5     5     6    2
     6     5     7    1
     7     7     8    1
     8     8     9    2
     9     9    10    1
    10    10    11    1
    11    11    12    2
    12    12    13    1
    13    12    14    1
    14    14    15    2
    15    15    16    1
    16     3    17    1
    17    17    18    2
    18    18    19    1
    19    19    20    2
    20    20    21    1
    21    21    22    1
    22    22    23    1
    23    22    24    1
    24    22    25    1
    25    20    26    1
    26    26    27    2
    27    16     7    2
    28    27    17    1
    29    16    10    1
@<TRIPOS>SUBSTRUCTURE
     1 RES1        1 GROUP             0 ****  ****    0  
@<TRIPOS>MOLECULE
ligand_0
    27    29     1     0     0
SMALL
NO_CHARGES
****
Generated from the CSD

@<TRIPOS>ATOM
     1 C1       4.0779  -2.2340   9.6063   C.3       1 RES1   0.0000
     2 C2       4.6600  -0.8960   9.9962   C.3       1 RES1   0.0000
     3 C3       4.8861  -0.0003   8.7918   C.3       1 RES1   0.0000
     4 N4       5.2861   1.3205   9.2113   N.am      1 RES1   0.0000
     5 C5       5.0023   2.4080   8.4291   C.2       1 RES1   0.0000
     6 O6       4.4140   2.3596   7.3587   O.2       1 RES1   0.0000
     7 C7       5.4612   3.6590   8.9747   C.2       1 RES1   0.0000
     8 C8       6.1464   3.8563  10.1989   C.2       1 RES1   0.0000
     9 N9       6.4342   5.1404  10.4188   N.2       1 RES1   0.0000
    10 N10      5.9281   5.7544   9.3394   N.pl3     1 RES1   0.0000
    11 C11      6.0530   7.1157   9.2363   C.2       1 RES1   0.0000
    12 C12      5.4671   7.5251   7.9525   C.2       1 RES1   0.0000
    13 C13      5.5259   8.9685   7.6243   C.3       1 RES1   0.0000
    14 C14      4.8862   6.6737   7.0992   C.2       1 RES1   0.0000
    15 N15      4.7851   5.3949   7.2953   N.2       1 RES1   0.0000
    16 C16      5.3327   4.9207   8.4356   C.2       1 RES1   0.0000
    17 C17      5.9199  -0.6426   7.9227   C.2       1 RES1   0.0000
    18 C18      5.5597  -1.1703   6.7001   C.2       1 RES1   0.0000
    19 C19      6.5023  -1.7711   5.8961   C.2       1 RES1   0.0000
    20 C20      7.8125  -1.8346   6.3228   C.2       1 RES1   0.0000
    21 O21      8.7590  -2.4460   5.5210   O.3       1 RES1   0.0000
    22 C22      9.3311  -1.4941   4.6279   C.3       1 RES1   0.0000
    23 F23      9.9470  -0.4604   5.2611   F         1 RES1   0.0000
    24 F24      8.4088  -0.9823   3.7781   F         1 RES1   0.0000
    25 F25     10.2597  -2.1626   3.9016   F         1 RES1   0.0000
    26 C26      8.1868  -1.3179   7.5431   C.2       1 RES1   0.0000
    27 C27      7.2333  -0.7212   8.3362   C.2       1 RES1   0.0000
@<TRIPOS>BOND
     1     1     2    1
     2     3     2    1
     3     3     4    1
     4     4     5   am
     5     5     6    2
     6     5     7    1
     7     7     8    1
     8     8     9    2
     9     9    10    1
    10    10    11    1
    11    11    12    2
    12    12    13    1
    13    12    14    1
    14    14    15    2
    15    15    16    1
    16     3    17    1
    17    17    18    2
    18    18    19    1
    19    19    20    2
    20    20    21    1
    21    21    22    1
    22    22    23    1
    23    22    24    1
    24    22    25    1
    25    20    26    1
    26    26    27    2
    27    16     7    2
    28    27    17    1
    29    16    10    1
@<TRIPOS>SUBSTRUCTURE
     1 RES1        1 GROUP             0 ****  ****    0  
@<TRIPOS>MOLECULE
ligand_1
    27    29     1     0     0
SMALL
NO_CHARGES
****
Generated from the CSD

@<TRIPOS>ATOM
     1 C1       5.5940   2.2958   8.0616   C.3       1 RES1   0.0000
     2 C2       4.4604   1.3004   8.1352   C.3       1 RES1   0.0000
     3 C3       4.8861  -0.0003   8.7918   C.3       1 RES1   0.0000
     4 N4       3.7471  -0.8619   8.9935   N.am      1 RES1   0.0000
     5 C5       3.7422  -1.7700  10.0183   C.2       1 RES1   0.0000
     6 O6       4.6570  -1.9245  10.8143   O.2       1 RES1   0.0000
     7 C7       2.5407  -2.5596  10.0970   C.2       1 RES1   0.0000
     8 C8       1.4096  -2.4798   9.2475   C.2       1 RES1   0.0000
     9 N9       0.4578  -3.3513   9.5859   N.2       1 RES1   0.0000
    10 N10      0.9827  -3.9771  10.6494   N.pl3     1 RES1   0.0000
    11 C11      0.2517  -4.9617  11.2621   C.2       1 RES1   0.0000
    12 C12      1.0659  -5.5130  12.3540   C.2       1 RES1   0.0000
    13 C13      0.4698  -6.6225  13.1338   C.3       1 RES1   0.0000
    14 C14      2.2827  -5.0567  12.6727   C.2       1 RES1   0.0000
    15 N15      2.8890  -4.0918  12.0519   N.2       1 RES1   0.0000
    16 C16      2.2303  -3.5485  11.0050   C.2       1 RES1   0.0000
    17 C17      5.9199  -0.6426   7.9227   C.2       1 RES1   0.0000
    18 C18      5.5597  -1.1703   6.7001   C.2       1 RES1   0.0000
    19 C19      6.5023  -1.7711   5.8961   C.2       1 RES1   0.0000
    20 C20      7.8125  -1.8346   6.3228   C.2       1 RES1   0.0000
    21 O21      8.7590  -2.4460   5.5210   O.3       1 RES1   0.0000
    22 C22      9.3311  -1.4941   4.6279   C.3       1 RES1   0.0000
    23 F23      9.9470  -0.4604   5.2611   F         1 RES1   0.0000
    24 F24      8.4088  -0.9823   3.7781   F         1 RES1   0.0000
    25 F25     10.2597  -2.1626   3.9016   F         1 RES1   0.0000
    26 C26      8.1868  -1.3179   7.5431   C.2       1 RES1   0.0000
    27 C27      7.2333  -0.7212   8.3362   C.2       1 RES1   0.0000
@<TRIPOS>BOND
     1     1     2    1
     2     3     2    1
     3     3     4    1
     4     4     5   am
     5     5     6    2
     6     5     7    1
     7     7     8    1
     8     8     9    2
     9     9    10    1
    10    10    11    1
    11    11    12    2
    12    12    13    1
    13    12    14    1
    14    14    15    2
    15    15    16    1
    16     3    17    1
    17    17    18    2
    18    18    19    1
    19    19    20    2
    20    20    21    1
    21    21    22    1
    22    22    23    1
    23    22    24    1
    24    22    25    1
    25    20    26    1
    26    26    27    2
    27    16     7    2
    28    27    17    1
    29    16    10    1
@<TRIPOS>SUBSTRUCTURE
     1 RES1        1 GROUP             0 ****  ****    0  
@<TRIPOS>MOLECULE
ligand_2
    27    29     1     0     0
SMALL
NO_CHARGES
****
Generated from the CSD

@<TRIPOS>ATOM
     1 C1       3.5767  -0.3577  10.9046   C.3       1 RES1   0.0000
     2 C2       4.6572  -0.8952   9.9963   C.3       1 RES1   0.0000
     3 C3       4.8861  -0.0003   8.7918   C.3       1 RES1   0.0000
     4 N4       5.2861   1.3205   9.2113   N.am      1 RES1   0.0000
     5 C5       4.4766   2.3970   8.9650   C.2       1 RES1   0.0000
     6 O6       3.3959   2.3383   8.3967   O.2       1 RES1   0.0000
     7 C7       5.0054   3.6495   9.4393   C.2       1 RES1   0.0000
     8 C8       6.2340   3.8569  10.1136   C.2       1 RES1   0.0000
     9 N9       6.4344   5.1395  10.4213   N.2       1 RES1   0.0000
    10 N10      5.3336   5.7413   9.9478   N.pl3     1 RES1   0.0000
    11 C11      5.2085   7.0983  10.0965   C.2       1 RES1   0.0000
    12 C12      3.9518   7.5071   9.4540   C.2       1 RES1   0.0000
    13 C13      3.6349   8.9541   9.4727   C.3       1 RES1   0.0000
    14 C14      3.0996   6.6486   8.8822   C.2       1 RES1   0.0000
    15 N15      3.2867   5.3662   8.8146   N.2       1 RES1   0.0000
    16 C16      4.4387   4.9022   9.3464   C.2       1 RES1   0.0000
    17 C17      5.9212  -0.6438   7.9251   C.2       1 RES1   0.0000
    18 C18      5.5631  -1.1720   6.7021   C.2       1 RES1   0.0000
    19 C19      6.5067  -1.7738   5.9002   C.2       1 RES1   0.0000
    20 C20      7.8161  -1.8378   6.3296   C.2       1 RES1   0.0000
    21 O21      8.7638  -2.4503   5.5299   O.3       1 RES1   0.0000
    22 C22      9.3383  -1.4992   4.6375   C.3       1 RES1   0.0000
    23 F23      9.9536  -0.4655   5.2715   F         1 RES1   0.0000
    24 F24      8.4181  -0.9873   3.7855   F         1 RES1   0.0000
    25 F25     10.2680  -2.1687   3.9134   F         1 RES1   0.0000
    26 C26      8.1884  -1.3206   7.5502   C.2       1 RES1   0.0000
    27 C27      7.2338  -0.7229   8.3412   C.2       1 RES1   0.0000
@<TRIPOS>BOND
     1     1     2    1
     2     3     2    1
     3     3     4    1
     4     4     5   am
     5     5     6    2
     6     5     7    1
     7     7     8    1
     8     8     9    2
     9     9    10    1
    10    10    11    1
    11    11    12    2
    12    12    13    1
    13    12    14    1
    14    14    15    2
    15    15    16    1
    16     3    17    1
    17    17    18    2
    18    18    19    1
    19    19    20    2
    20    20    21    1
    21    21    22    1
    22    22    23    1
    23    22    24    1
    24    22    25    1
    25    20    26    1
    26    26    27    2
    27    16     7    2
    28    27    17    1
    29    16    10    1
@<TRIPOS>SUBSTRUCTURE
     1 RES1        1 GROUP             0 ****  ****    0  
@<TRIPOS>MOLECULE
ligand_3
    27    29     1     0     0
SMALL
NO_CHARGES
****
Generated from the CSD

@<TRIPOS>ATOM
     1 C1       3.4589   2.0575   8.9793   C.3       1 RES1   0.0000
     2 C2       4.4599   1.3017   8.1379   C.3       1 RES1   0.0000
     3 C3       4.8861  -0.0003   8.7918   C.3       1 RES1   0.0000
     4 N4       3.7471  -0.8619   8.9935   N.am      1 RES1   0.0000
     5 C5       3.3415  -1.1834  10.2612   C.2       1 RES1   0.0000
     6 O6       3.8808  -0.7884  11.2846   O.2       1 RES1   0.0000
     7 C7       2.1933  -2.0510  10.3076   C.2       1 RES1   0.0000
     8 C8       1.4740  -2.5748   9.2051   C.2       1 RES1   0.0000
     9 N9       0.4562  -3.3496   9.5845   N.2       1 RES1   0.0000
    10 N10      0.5280  -3.3121  10.9230   N.pl3     1 RES1   0.0000
    11 C11     -0.3917  -4.0198  11.6526   C.2       1 RES1   0.0000
    12 C12     -0.0626  -3.8523  13.0749   C.2       1 RES1   0.0000
    13 C13     -0.9229  -4.5679  14.0456   C.3       1 RES1   0.0000
    14 C14      0.9443  -3.0899  13.5166   C.2       1 RES1   0.0000
    15 N15      1.7518  -2.4255  12.7480   N.2       1 RES1   0.0000
    16 C16      1.5491  -2.5514  11.4183   C.2       1 RES1   0.0000
    17 C17      5.9186  -0.6415   7.9204   C.2       1 RES1   0.0000
    18 C18      5.5568  -1.1670   6.6973   C.2       1 RES1   0.0000
    19 C19      6.4981  -1.7668   5.8911   C.2       1 RES1   0.0000
    20 C20      7.8088  -1.8313   6.3161   C.2       1 RES1   0.0000
    21 O21      8.7542  -2.4417   5.5121   O.3       1 RES1   0.0000
    22 C22      9.3255  -1.4884   4.6200   C.3       1 RES1   0.0000
    23 F23      9.9425  -0.4560   5.2543   F         1 RES1   0.0000
    24 F24      8.4024  -0.9749   3.7721   F         1 RES1   0.0000
    25 F25     10.2531  -2.1560   3.8914   F         1 RES1   0.0000
    26 C26      8.1849  -1.3168   7.5367   C.2       1 RES1   0.0000
    27 C27      7.2325  -0.7211   8.3321   C.2       1 RES1   0.0000
@<TRIPOS>BOND
     1     1     2    1
     2     3     2    1
     3     3     4    1
     4     4     5   am
     5     5     6    2
     6     5     7    1
     7     7     8    1
     8     8     9    2
     9     9    10    1
    10    10    11    1
    11    11    12    2
    12    12    13    1
    13    12    14    1
    14    14    15    2
    15    15    16    1
    16     3    17    1
    17    17    18    2
    18    18    19    1
    19    19    20    2
    20    20    21    1
    21    21    22    1
    22    22    23    1
    23    22    24    1
    24    22    25    1
    25    20    26    1
    26    26    27    2
    27    16     7    2
    28    27    17    1
    29    16    10    1
@<TRIPOS>SUBSTRUCTURE
     1 RES1        1 GROUP             0 ****  ****    0  
@<TRIPOS>MOLECULE
ligand_4
    27    29     1     0     0
SMALL
NO_CHARGES
****
Generated from the CSD

@<TRIPOS>ATOM
     1 C1       3.0141  -0.5497  10.3729   C.3       1 RES1   0.0000
     2 C2       4.1277  -1.0995   9.5134   C.3       1 RES1   0.0000
     3 C3       4.8861  -0.0003   8.7918   C.3       1 RES1   0.0000
     4 N4       5.4767   0.9131   9.7391   N.am      1 RES1   0.0000
     5 C5       5.6954   2.2197   9.3929   C.2       1 RES1   0.0000
     6 O6       5.4237   2.7051   8.3044   O.2       1 RES1   0.0000
     7 C7       6.2895   3.0121  10.4381   C.2       1 RES1   0.0000
     8 C8       6.6478   2.5792  11.7387   C.2       1 RES1   0.0000
     9 N9       7.1785   3.5593  12.4721   N.2       1 RES1   0.0000
    10 N10      7.1514   4.6105  11.6399   N.pl3     1 RES1   0.0000
    11 C11      7.6366   5.8139  12.0821   C.2       1 RES1   0.0000
    12 C12      7.5388   6.7730  10.9732   C.2       1 RES1   0.0000
    13 C13      8.0434   8.1418  11.2308   C.3       1 RES1   0.0000
    14 C14      7.0140   6.4731   9.7794   C.2       1 RES1   0.0000
    15 N15      6.5466   5.3061   9.4571   N.2       1 RES1   0.0000
    16 C16      6.6311   4.3467  10.4045   C.2       1 RES1   0.0000
    17 C17      5.9199  -0.6426   7.9227   C.2       1 RES1   0.0000
    18 C18      5.5605  -1.1667   6.6983   C.2       1 RES1   0.0000
    19 C19      6.5030  -1.7675   5.8942   C.2       1 RES1   0.0000
    20 C20      7.8124  -1.8345   6.3228   C.2       1 RES1   0.0000
    21 O21      8.7589  -2.4460   5.5209   O.3       1 RES1   0.0000
    22 C22      9.3344  -1.4930   4.6311   C.3       1 RES1   0.0000
    23 F23      9.9513  -0.4621   5.2677   F         1 RES1   0.0000
    24 F24      8.4144  -0.9773   3.7810   F         1 RES1   0.0000
    25 F25     10.2628  -2.1617   3.9045   F         1 RES1   0.0000
    26 C26      8.1860  -1.3215   7.5448   C.2       1 RES1   0.0000
    27 C27      7.2326  -0.7248   8.3380   C.2       1 RES1   0.0000
@<TRIPOS>BOND
     1     1     2    1
     2     3     2    1
     3     3     4    1
     4     4     5   am
     5     5     6    2
     6     5     7    1
     7     7     8    1
     8     8     9    2
     9     9    10    1
    10    10    11    1
    11    11    12    2
    12    12    13    1
    13    12    14    1
    14    14    15    2
    15    15    16    1
    16     3    17    1
    17    17    18    2
    18    18    19    1
    19    19    20    2
    20    20    21    1
    21    21    22    1
    22    22    23    1
    23    22    24    1
    24    22    25    1
    25    20    26    1
    26    26    27    2
    27    16     7    2
    28    27    17    1
    29    16    10    1
@<TRIPOS>SUBSTRUCTURE
     1 RES1        1 GROUP             0 ****  ****    0  
@<TRIPOS>MOLECULE
ligand_5
    27    29     1     0     0
SMALL
NO_CHARGES
****
Generated from the CSD

@<TRIPOS>ATOM
     1 C1       4.0250   2.2474   9.5081   C.3       1 RES1   0.0000
     2 C2       4.9927   1.5039   8.6180   C.3       1 RES1   0.0000
     3 C3       4.8861  -0.0003   8.7918   C.3       1 RES1   0.0000
     4 N4       3.5565  -0.4545   8.4656   N.am      1 RES1   0.0000
     5 C5       3.0490  -1.5817   9.0545   C.2       1 RES1   0.0000
     6 O6       3.6473  -2.2700   9.8685   O.2       1 RES1   0.0000
     7 C7       1.7124  -1.9127   8.6336   C.2       1 RES1   0.0000
     8 C8       0.9086  -1.2028   7.7077   C.2       1 RES1   0.0000
     9 N9      -0.2861  -1.7703   7.5325   N.2       1 RES1   0.0000
    10 N10     -0.2405  -2.8331   8.3489   N.pl3     1 RES1   0.0000
    11 C11     -1.3318  -3.6600   8.4163   C.2       1 RES1   0.0000
    12 C12     -1.0060  -4.7609   9.3333   C.2       1 RES1   0.0000
    13 C13     -2.0480  -5.7958   9.5274   C.3       1 RES1   0.0000
    14 C14      0.1545  -4.8560   9.9925   C.2       1 RES1   0.0000
    15 N15      1.1272  -4.0030   9.8902   N.2       1 RES1   0.0000
    16 C16      0.9319  -2.9746   9.0361   C.2       1 RES1   0.0000
    17 C17      5.9199  -0.6426   7.9227   C.2       1 RES1   0.0000
    18 C18      5.5614  -1.1626   6.6963   C.2       1 RES1   0.0000
    19 C19      6.5039  -1.7633   5.8922   C.2       1 RES1   0.0000
    20 C20      7.8124  -1.8345   6.3228   C.2       1 RES1   0.0000
    21 O21      8.7589  -2.4459   5.5208   O.3       1 RES1   0.0000
    22 C22      9.3378  -1.4920   4.6344   C.3       1 RES1   0.0000
    23 F23      9.9561  -0.4641   5.2747   F         1 RES1   0.0000
    24 F24      8.4204  -0.9720   3.7843   F         1 RES1   0.0000
    25 F25     10.2658  -2.1608   3.9075   F         1 RES1   0.0000
    26 C26      8.1851  -1.3256   7.5468   C.2       1 RES1   0.0000
    27 C27      7.2317  -0.7289   8.3400   C.2       1 RES1   0.0000
@<TRIPOS>BOND
     1     1     2    1
     2     3     2    1
     3     3     4    1
     4     4     5   am
     5     5     6    2
     6     5     7    1
     7     7     8    1
     8     8     9    2
     9     9    10    1
    10    10    11    1
    11    11    12    2
    12    12    13    1
    13    12    14    1
    14    14    15    2
    15    15    16    1
    16     3    17    1
    17    17    18    2
    18    18    19    1
    19    19    20    2
    20    20    21    1
    21    21    22    1
    22    22    23    1
    23    22    24    1
    24    22    25    1
    25    20    26    1
    26    26    27    2
    27    16     7    2
    28    27    17    1
    29    16    10    1
@<TRIPOS>SUBSTRUCTURE
     1 RES1        1 GROUP             0 ****  ****    0  
@<TRIPOS>MOLECULE
ligand_6
    27    29     1     0     0
SMALL
NO_CHARGES
****
Generated from the CSD

@<TRIPOS>ATOM
     1 C1       4.0779  -2.2340   9.6063   C.3       1 RES1   0.0000
     2 C2       4.6600  -0.8960   9.9962   C.3       1 RES1   0.0000
     3 C3       4.8861  -0.0003   8.7918   C.3       1 RES1   0.0000
     4 N4       5.2861   1.3205   9.2113   N.am      1 RES1   0.0000
     5 C5       4.3409   2.2665   9.5055   C.2       1 RES1   0.0000
     6 O6       3.1336   2.0858   9.4420   O.2       1 RES1   0.0000
     7 C7       4.8871   3.5358   9.9101   C.2       1 RES1   0.0000
     8 C8       6.2571   3.8763  10.0305   C.2       1 RES1   0.0000
     9 N9       6.4341   5.1372  10.4289   N.2       1 RES1   0.0000
    10 N10      5.1799   5.5918  10.5653   N.pl3     1 RES1   0.0000
    11 C11      4.9887   6.8874  10.9703   C.2       1 RES1   0.0000
    12 C12      3.5419   7.1436  10.9899   C.2       1 RES1   0.0000
    13 C13      3.1130   8.5085  11.3739   C.3       1 RES1   0.0000
    14 C14      2.6222   6.2166  10.6977   C.2       1 RES1   0.0000
    15 N15      2.8964   4.9964  10.3512   N.2       1 RES1   0.0000
    16 C16      4.2071   4.6798  10.2677   C.2       1 RES1   0.0000
    17 C17      5.9199  -0.6426   7.9227   C.2       1 RES1   0.0000
    18 C18      5.5597  -1.1703   6.7001   C.2       1 RES1   0.0000
    19 C19      6.5023  -1.7711   5.8961   C.2       1 RES1   0.0000
    20 C20      7.8125  -1.8346   6.3228   C.2       1 RES1   0.0000
    21 O21      8.7590  -2.4460   5.5210   O.3       1 RES1   0.0000
    22 C22      9.3311  -1.4941   4.6279   C.3       1 RES1   0.0000
    23 F23      9.9470  -0.4604   5.2611   F         1 RES1   0.0000
    24 F24      8.4088  -0.9823   3.7781   F         1 RES1   0.0000
    25 F25     10.2597  -2.1626   3.9016   F         1 RES1   0.0000
    26 C26      8.1868  -1.3179   7.5431   C.2       1 RES1   0.0000
    27 C27      7.2333  -0.7212   8.3362   C.2       1 RES1   0.0000
@<TRIPOS>BOND
     1     1     2    1
     2     3     2    1
     3     3     4    1
     4     4     5   am
     5     5     6    2
     6     5     7    1
     7     7     8    1
     8     8     9    2
     9     9    10    1
    10    10    11    1
    11    11    12    2
    12    12    13    1
    13    12    14    1
    14    14    15    2
    15    15    16    1
    16     3    17    1
    17    17    18    2
    18    18    19    1
    19    19    20    2
    20    20    21    1
    21    21    22    1
    22    22    23    1
    23    22    24    1
    24    22    25    1
    25    20    26    1
    26    26    27    2
    27    16     7    2
    28    27    17    1
    29    16    10    1
@<TRIPOS>SUBSTRUCTURE
     1 RES1        1 GROUP             0 ****  ****    0  
@<TRIPOS>MOLECULE
ligand_7
    27    29     1     0     0
SMALL
NO_CHARGES
****
Generated from the CSD

@<TRIPOS>ATOM
     1 C1       5.5940   2.2958   8.0616   C.3       1 RES1   0.0000
     2 C2       4.4604   1.3004   8.1352   C.3       1 RES1   0.0000
     3 C3       4.8861  -0.0003   8.7918   C.3       1 RES1   0.0000
     4 N4       3.7471  -0.8619   8.9935   N.am      1 RES1   0.0000
     5 C5       2.9908  -0.7506  10.1295   C.2       1 RES1   0.0000
     6 O6       3.2026   0.0486  11.0299   O.2       1 RES1   0.0000
     7 C7       1.8878  -1.6740  10.1930   C.2       1 RES1   0.0000
     8 C8       1.5282  -2.6423   9.2232   C.2       1 RES1   0.0000
     9 N9       0.4515  -3.3442   9.5812   N.2       1 RES1   0.0000
    10 N10      0.1276  -2.8182  10.7713   N.pl3     1 RES1   0.0000
    11 C11     -0.9587  -3.3200  11.4402   C.2       1 RES1   0.0000
    12 C12     -1.0625  -2.6128  12.7240   C.2       1 RES1   0.0000
    13 C13     -2.1625  -3.0277  13.6252   C.3       1 RES1   0.0000
    14 C14     -0.2366  -1.6276  13.0950   C.2       1 RES1   0.0000
    15 N15      0.7542  -1.1934  12.3781   N.2       1 RES1   0.0000
    16 C16      0.9513  -1.8136  11.1942   C.2       1 RES1   0.0000
    17 C17      5.9199  -0.6426   7.9227   C.2       1 RES1   0.0000
    18 C18      5.5597  -1.1703   6.7001   C.2       1 RES1   0.0000
    19 C19      6.5023  -1.7711   5.8961   C.2       1 RES1   0.0000
    20 C20      7.8125  -1.8346   6.3228   C.2       1 RES1   0.0000
    21 O21      8.7590  -2.4460   5.5210   O.3       1 RES1   0.0000
    22 C22      9.3311  -1.4941   4.6279   C.3       1 RES1   0.0000
    23 F23      9.9470  -0.4604   5.2611   F         1 RES1   0.0000
    24 F24      8.4088  -0.9823   3.7781   F         1 RES1   0.0000
    25 F25     10.2597  -2.1626   3.9016   F         1 RES1   0.0000
    26 C26      8.1868  -1.3179   7.5431   C.2       1 RES1   0.0000
    27 C27      7.2333  -0.7212   8.3362   C.2       1 RES1   0.0000
@<TRIPOS>BOND
     1     1     2    1
     2     3     2    1
     3     3     4    1
     4     4     5   am
     5     5     6    2
     6     5     7    1
     7     7     8    1
     8     8     9    2
     9     9    10    1
    10    10    11    1
    11    11    12    2
    12    12    13    1
    13    12    14    1
    14    14    15    2
    15    15    16    1
    16     3    17    1
    17    17    18    2
    18    18    19    1
    19    19    20    2
    20    20    21    1
    21    21    22    1
    22    22    23    1
    23    22    24    1
    24    22    25    1
    25    20    26    1
    26    26    27    2
    27    16     7    2
    28    27    17    1
    29    16    10    1
@<TRIPOS>SUBSTRUCTURE
     1 RES1        1 GROUP             0 ****  ****    0  
@<TRIPOS>MOLECULE
ligand_8
    27    29     1     0     0
SMALL
NO_CHARGES
****
Generated from the CSD

@<TRIPOS>ATOM
     1 C1       4.0779  -2.2340   9.6063   C.3       1 RES1   0.0000
     2 C2       4.6600  -0.8960   9.9962   C.3       1 RES1   0.0000
     3 C3       4.8861  -0.0003   8.7918   C.3       1 RES1   0.0000
     4 N4       5.2861   1.3205   9.2113   N.am      1 RES1   0.0000
     5 C5       5.0023   2.4080   8.4291   C.2       1 RES1   0.0000
     6 O6       4.4138   2.3596   7.3588   O.2       1 RES1   0.0000
     7 C7       5.4615   3.6589   8.9745   C.2       1 RES1   0.0000
     8 C8       5.3199   4.9451   8.3975   C.2       1 RES1   0.0000
     9 N9       5.8553   5.9037   9.1554   N.2       1 RES1   0.0000
    10 N10      6.3390   5.2256  10.2063   N.pl3     1 RES1   0.0000
    11 C11      6.9693   5.9207  11.2058   C.2       1 RES1   0.0000
    12 C12      7.3539   4.9595  12.2485   C.2       1 RES1   0.0000
    13 C13      8.0281   5.5116  13.4465   C.3       1 RES1   0.0000
    14 C14      7.1392   3.6420  12.1560   C.2       1 RES1   0.0000
    15 N15      6.5581   3.0634  11.1502   N.2       1 RES1   0.0000
    16 C16      6.1335   3.8759  10.1579   C.2       1 RES1   0.0000
    17 C17      5.9199  -0.6426   7.9227   C.2       1 RES1   0.0000
    18 C18      5.5597  -1.1703   6.7001   C.2       1 RES1   0.0000
    19 C19      6.5023  -1.7711   5.8961   C.2       1 RES1   0.0000
    20 C20      7.8125  -1.8346   6.3228   C.2       1 RES1   0.0000
    21 O21      8.7590  -2.4460   5.5210   O.3       1 RES1   0.0000
    22 C22      9.3306  -1.4942   4.6275   C.3       1 RES1   0.0000
    23 F23      9.9467  -0.4603   5.2602   F         1 RES1   0.0000
    24 F24      8.4079  -0.9827   3.7779   F         1 RES1   0.0000
    25 F25     10.2590  -2.1628   3.9009   F         1 RES1   0.0000
    26 C26      8.1868  -1.3179   7.5431   C.2       1 RES1   0.0000
    27 C27      7.2333  -0.7212   8.3362   C.2       1 RES1   0.0000
@<TRIPOS>BOND
     1     1     2    1
     2     3     2    1
     3     3     4    1
     4     4     5   am
     5     5     6    2
     6     5     7    1
     7     7     8    1
     8     8     9    2
     9     9    10    1
    10    10    11    1
    11    11    12    2
    12    12    13    1
    13    12    14    1
    14    14    15    2
    15    15    16    1
    16     3    17    1
    17    17    18    2
    18    18    19    1
    19    19    20    2
    20    20    21    1
    21    21    22    1
    22    22    23    1
    23    22    24    1
    24    22    25    1
    25    20    26    1
    26    26    27    2
    27    16     7    2
    28    27    17    1
    29    16    10    1
@<TRIPOS>SUBSTRUCTURE
     1 RES1        1 GROUP             0 ****  ****    0  
@<TRIPOS>MOLECULE
ligand_9
    27    29     1     0     0
SMALL
NO_CHARGES
****
Generated from the CSD

@<TRIPOS>ATOM
     1 C1       5.5940   2.2958   8.0616   C.3       1 RES1   0.0000
     2 C2       4.4604   1.3004   8.1352   C.3       1 RES1   0.0000
     3 C3       4.8861  -0.0003   8.7918   C.3       1 RES1   0.0000
     4 N4       3.7471  -0.8619   8.9935   N.am      1 RES1   0.0000
     5 C5       3.7422  -1.7700  10.0183   C.2       1 RES1   0.0000
     6 O6       4.6568  -1.9243  10.8145   O.2       1 RES1   0.0000
     7 C7       2.5409  -2.5599  10.0967   C.2       1 RES1   0.0000
     8 C8       2.2470  -3.5754  11.0399   C.2       1 RES1   0.0000
     9 N9       1.0451  -4.1199  10.8422   N.2       1 RES1   0.0000
    10 N10      0.5820  -3.4547   9.7739   N.pl3     1 RES1   0.0000
    11 C11     -0.6616  -3.7686   9.2900   C.2       1 RES1   0.0000
    12 C12     -0.9455  -2.8699   8.1627   C.2       1 RES1   0.0000
    13 C13     -2.2656  -3.0207   7.5077   C.3       1 RES1   0.0000
    14 C14     -0.0793  -1.9573   7.7075   C.2       1 RES1   0.0000
    15 N15      1.0980  -1.7491   8.2121   N.2       1 RES1   0.0000
    16 C16      1.4316  -2.5050   9.2810   C.2       1 RES1   0.0000
    17 C17      5.9199  -0.6426   7.9227   C.2       1 RES1   0.0000
    18 C18      5.5597  -1.1703   6.7001   C.2       1 RES1   0.0000
    19 C19      6.5023  -1.7711   5.8961   C.2       1 RES1   0.0000
    20 C20      7.8125  -1.8346   6.3228   C.2       1 RES1   0.0000
    21 O21      8.7590  -2.4460   5.5210   O.3       1 RES1   0.0000
    22 C22      9.3311  -1.4941   4.6279   C.3       1 RES1   0.0000
    23 F23      9.9470  -0.4604   5.2611   F         1 RES1   0.0000
    24 F24      8.4088  -0.9823   3.7781   F         1 RES1   0.0000
    25 F25     10.2597  -2.1626   3.9016   F         1 RES1   0.0000
    26 C26      8.1868  -1.3179   7.5431   C.2       1 RES1   0.0000
    27 C27      7.2333  -0.7212   8.3362   C.2       1 RES1   0.0000
@<TRIPOS>BOND
     1     1     2    1
     2     3     2    1
     3     3     4    1
     4     4     5   am
     5     5     6    2
     6     5     7    1
     7     7     8    1
     8     8     9    2
     9     9    10    1
    10    10    11    1
    11    11    12    2
    12    12    13    1
    13    12    14    1
    14    14    15    2
    15    15    16    1
    16     3    17    1
    17    17    18    2
    18    18    19    1
    19    19    20    2
    20    20    21    1
    21    21    22    1
    22    22    23    1
    23    22    24    1
    24    22    25    1
    25    20    26    1
    26    26    27    2
    27    16     7    2
    28    27    17    1
    29    16    10    1
@<TRIPOS>SUBSTRUCTURE
     1 RES1        1 GROUP             0 ****  ****    0  
@<TRIPOS>MOLECULE
ligand_10
    27    29     1     0     0
SMALL
NO_CHARGES
****
Generated from the CSD

@<TRIPOS>ATOM
     1 C1       4.0835  -2.2359   9.6068   C.3       1 RES1   0.0000
     2 C2       4.6655  -0.8976   9.9961   C.3       1 RES1   0.0000
     3 C3       4.8861  -0.0003   8.7918   C.3       1 RES1   0.0000
     4 N4       5.2861   1.3205   9.2113   N.am      1 RES1   0.0000
     5 C5       4.7512   2.4272   8.6080   C.2       1 RES1   0.0000
     6 O6       3.9279   2.3969   7.7050   O.2       1 RES1   0.0000
     7 C7       5.2435   3.6756   9.1299   C.2       1 RES1   0.0000
     8 C8       6.5216   3.9225   9.6891   C.2       1 RES1   0.0000
     9 N9       6.6680   5.1890  10.0823   N.2       1 RES1   0.0000
    10 N10      5.4843   5.7406   9.7778   N.pl3     1 RES1   0.0000
    11 C11      5.2856   7.0687  10.0534   C.2       1 RES1   0.0000
    12 C12      3.9419   7.4298   9.5810   C.2       1 RES1   0.0000
    13 C13      3.5327   8.8429   9.7553   C.3       1 RES1   0.0000
    14 C14      3.0918   6.5561   9.0293   C.2       1 RES1   0.0000
    15 N15      3.3559   5.3006   8.8341   N.2       1 RES1   0.0000
    16 C16      4.5875   4.8853   9.2028   C.2       1 RES1   0.0000
    17 C17      5.9174  -0.6405   7.9182   C.2       1 RES1   0.0000
    18 C18      5.5534  -1.1672   6.6964   C.2       1 RES1   0.0000
    19 C19      6.4936  -1.7660   5.8881   C.2       1 RES1   0.0000
    20 C20      7.8055  -1.8284   6.3100   C.2       1 RES1   0.0000
    21 O21      8.7498  -2.4378   5.5040   O.3       1 RES1   0.0000
    22 C22      9.3174  -1.4842   4.6099   C.3       1 RES1   0.0000
    23 F23      9.9345  -0.4505   5.2420   F         1 RES1   0.0000
    24 F24      8.3914  -0.9726   3.7641   F         1 RES1   0.0000
    25 F25     10.2442  -2.1509   3.8794   F         1 RES1   0.0000
    26 C26      8.1837  -1.3126   7.5295   C.2       1 RES1   0.0000
    27 C27      7.2325  -0.7179   8.3268   C.2       1 RES1   0.0000
@<TRIPOS>BOND
     1     1     2    1
     2     3     2    1
     3     3     4    1
     4     4     5   am
     5     5     6    2
     6     5     7    1
     7     7     8    1
     8     8     9    2
     9     9    10    1
    10    10    11    1
    11    11    12    2
    12    12    13    1
    13    12    14    1
    14    14    15    2
    15    15    16    1
    16     3    17    1
    17    17    18    2
    18    18    19    1
    19    19    20    2
    20    20    21    1
    21    21    22    1
    22    22    23    1
    23    22    24    1
    24    22    25    1
    25    20    26    1
    26    26    27    2
    27    16     7    2
    28    27    17    1
    29    16    10    1
@<TRIPOS>SUBSTRUCTURE
     1 RES1        1 GROUP             0 ****  ****    0  
@<TRIPOS>MOLECULE
ligand_11
    27    29     1     0     0
SMALL
NO_CHARGES
****
Generated from the CSD

@<TRIPOS>ATOM
     1 C1       5.5944   2.2939   8.0560   C.3       1 RES1   0.0000
     2 C2       4.4612   1.2981   8.1300   C.3       1 RES1   0.0000
     3 C3       4.8861  -0.0003   8.7918   C.3       1 RES1   0.0000
     4 N4       3.7471  -0.8619   8.9935   N.am      1 RES1   0.0000
     5 C5       3.5982  -1.5438  10.1715   C.2       1 RES1   0.0000
     6 O6       4.3782  -1.4864  11.1110   O.2       1 RES1   0.0000
     7 C7       2.4157  -2.3633  10.2298   C.2       1 RES1   0.0000
     8 C8       1.7633  -2.9990   9.1447   C.2       1 RES1   0.0000
     9 N9       0.6888  -3.6888   9.5315   N.2       1 RES1   0.0000
    10 N10      0.6584  -3.4860  10.8567   N.pl3     1 RES1   0.0000
    11 C11     -0.3429  -4.0685  11.5899   C.2       1 RES1   0.0000
    12 C12     -0.1183  -3.7342  13.0030   C.2       1 RES1   0.0000
    13 C13     -1.0793  -4.2959  13.9805   C.3       1 RES1   0.0000
    14 C14      0.8814  -2.9535  13.4289   C.2       1 RES1   0.0000
    15 N15      1.7721  -2.4155  12.6534   N.2       1 RES1   0.0000
    16 C16      1.6679  -2.7007  11.3370   C.2       1 RES1   0.0000
    17 C17      5.9223  -0.6448   7.9273   C.2       1 RES1   0.0000
    18 C18      5.5654  -1.1766   6.7055   C.2       1 RES1   0.0000
    19 C19      6.5102  -1.7794   5.9056   C.2       1 RES1   0.0000
    20 C20      7.8194  -1.8407   6.3357   C.2       1 RES1   0.0000
    21 O21      8.7682  -2.4542   5.5381   O.3       1 RES1   0.0000
    22 C22      9.3419  -1.5048   4.6434   C.3       1 RES1   0.0000
    23 F23      9.9557  -0.4687   5.2748   F         1 RES1   0.0000
    24 F24      8.4213  -0.9962   3.7897   F         1 RES1   0.0000
    25 F25     10.2726  -2.1751   3.9214   F         1 RES1   0.0000
    26 C26      8.1906  -1.3200   7.5552   C.2       1 RES1   0.0000
    27 C27      7.2348  -0.7213   8.3442   C.2       1 RES1   0.0000
@<TRIPOS>BOND
     1     1     2    1
     2     3     2    1
     3     3     4    1
     4     4     5   am
     5     5     6    2
     6     5     7    1
     7     7     8    1
     8     8     9    2
     9     9    10    1
    10    10    11    1
    11    11    12    2
    12    12    13    1
    13    12    14    1
    14    14    15    2
    15    15    16    1
    16     3    17    1
    17    17    18    2
    18    18    19    1
    19    19    20    2
    20    20    21    1
    21    21    22    1
    22    22    23    1
    23    22    24    1
    24    22    25    1
    25    20    26    1
    26    26    27    2
    27    16     7    2
    28    27    17    1
    29    16    10    1
@<TRIPOS>SUBSTRUCTURE
     1 RES1        1 GROUP             0 ****  ****    0  
@<TRIPOS>MOLECULE
ligand_12
    27    29     1     0     0
SMALL
NO_CHARGES
****
Generated from the CSD

@<TRIPOS>ATOM
     1 C1       4.0743  -2.2328   9.6060   C.3       1 RES1   0.0000
     2 C2       4.6565  -0.8950   9.9963   C.3       1 RES1   0.0000
     3 C3       4.8861  -0.0003   8.7918   C.3       1 RES1   0.0000
     4 N4       5.2861   1.3205   9.2113   N.am      1 RES1   0.0000
     5 C5       4.4766   2.3970   8.9650   C.2       1 RES1   0.0000
     6 O6       3.3957   2.3383   8.3971   O.2       1 RES1   0.0000
     7 C7       5.0057   3.6496   9.4387   C.2       1 RES1   0.0000
     8 C8       4.4038   4.9273   9.3272   C.2       1 RES1   0.0000
     9 N9       5.1517   5.8902   9.8691   N.2       1 RES1   0.0000
    10 N10      6.2260   5.2246  10.3175   N.pl3     1 RES1   0.0000
    11 C11      7.2207   5.9265  10.9475   C.2       1 RES1   0.0000
    12 C12      8.2447   4.9655  11.3801   C.2       1 RES1   0.0000
    13 C13      9.4056   5.5167  12.1168   C.3       1 RES1   0.0000
    14 C14      8.1801   3.6527  11.1298   C.2       1 RES1   0.0000
    15 N15      7.2073   3.0751  10.4939   N.2       1 RES1   0.0000
    16 C16      6.1978   3.8775  10.0912   C.2       1 RES1   0.0000
    17 C17      5.9215  -0.6440   7.9256   C.2       1 RES1   0.0000
    18 C18      5.5638  -1.1723   6.7026   C.2       1 RES1   0.0000
    19 C19      6.5078  -1.7744   5.9012   C.2       1 RES1   0.0000
    20 C20      7.8169  -1.8385   6.3311   C.2       1 RES1   0.0000
    21 O21      8.7649  -2.4512   5.5319   O.3       1 RES1   0.0000
    22 C22      9.3398  -1.5004   4.6396   C.3       1 RES1   0.0000
    23 F23      9.9550  -0.4667   5.2735   F         1 RES1   0.0000
    24 F24      8.4199  -0.9885   3.7871   F         1 RES1   0.0000
    25 F25     10.2697  -2.1701   3.9159   F         1 RES1   0.0000
    26 C26      8.1888  -1.3213   7.5518   C.2       1 RES1   0.0000
    27 C27      7.2339  -0.7233   8.3423   C.2       1 RES1   0.0000
@<TRIPOS>BOND
     1     1     2    1
     2     3     2    1
     3     3     4    1
     4     4     5   am
     5     5     6    2
     6     5     7    1
     7     7     8    1
     8     8     9    2
     9     9    10    1
    10    10    11    1
    11    11    12    2
    12    12    13    1
    13    12    14    1
    14    14    15    2
    15    15    16    1
    16     3    17    1
    17    17    18    2
    18    18    19    1
    19    19    20    2
    20    20    21    1
    21    21    22    1
    22    22    23    1
    23    22    24    1
    24    22    25    1
    25    20    26    1
    26    26    27    2
    27    16     7    2
    28    27    17    1
    29    16    10    1
@<TRIPOS>SUBSTRUCTURE
     1 RES1        1 GROUP             0 ****  ****    0  
@<TRIPOS>MOLECULE
ligand_13
    27    29     1     0     0
SMALL
NO_CHARGES
****
Generated from the CSD

@<TRIPOS>ATOM
     1 C1       5.5937   2.2970   8.0651   C.3       1 RES1   0.0000
     2 C2       4.4598   1.3019   8.1385   C.3       1 RES1   0.0000
     3 C3       4.8861  -0.0003   8.7918   C.3       1 RES1   0.0000
     4 N4       3.7471  -0.8619   8.9935   N.am      1 RES1   0.0000
     5 C5       3.3415  -1.1834  10.2612   C.2       1 RES1   0.0000
     6 O6       3.8805  -0.7880  11.2846   O.2       1 RES1   0.0000
     7 C7       2.1937  -2.0515  10.3076   C.2       1 RES1   0.0000
     8 C8       1.5512  -2.5561  11.4651   C.2       1 RES1   0.0000
     9 N9       0.5110  -3.3373  11.1690   N.2       1 RES1   0.0000
    10 N10      0.4984  -3.3314   9.8281   N.pl3     1 RES1   0.0000
    11 C11     -0.4687  -4.0505   9.1748   C.2       1 RES1   0.0000
    12 C12     -0.2909  -3.8362   7.7320   C.2       1 RES1   0.0000
    13 C13     -1.2615  -4.5057   6.8353   C.3       1 RES1   0.0000
    14 C14      0.6927  -3.0944   7.2098   C.2       1 RES1   0.0000
    15 N15      1.5895  -2.4697   7.9095   N.2       1 RES1   0.0000
    16 C16      1.4813  -2.5776   9.2518   C.2       1 RES1   0.0000
    17 C17      5.9183  -0.6412   7.9198   C.2       1 RES1   0.0000
    18 C18      5.5561  -1.1663   6.6967   C.2       1 RES1   0.0000
    19 C19      6.4971  -1.7658   5.8900   C.2       1 RES1   0.0000
    20 C20      7.8080  -1.8306   6.3146   C.2       1 RES1   0.0000
    21 O21      8.7531  -2.4407   5.5101   O.3       1 RES1   0.0000
    22 C22      9.3241  -1.4872   4.6181   C.3       1 RES1   0.0000
    23 F23      9.9414  -0.4550   5.2525   F         1 RES1   0.0000
    24 F24      8.4007  -0.9733   3.7707   F         1 RES1   0.0000
    25 F25     10.2514  -2.1546   3.8889   F         1 RES1   0.0000
    26 C26      8.1844  -1.3165   7.5353   C.2       1 RES1   0.0000
    27 C27      7.2324  -0.7211   8.3311   C.2       1 RES1   0.0000
@<TRIPOS>BOND
     1     1     2    1
     2     3     2    1
     3     3     4    1
     4     4     5   am
     5     5     6    2
     6     5     7    1
     7     7     8    1
     8     8     9    2
     9     9    10    1
    10    10    11    1
    11    11    12    2
    12    12    13    1
    13    12    14    1
    14    14    15    2
    15    15    16    1
    16     3    17    1
    17    17    18    2
    18    18    19    1
    19    19    20    2
    20    20    21    1
    21    21    22    1
    22    22    23    1
    23    22    24    1
    24    22    25    1
    25    20    26    1
    26    26    27    2
    27    16     7    2
    28    27    17    1
    29    16    10    1
@<TRIPOS>SUBSTRUCTURE
     1 RES1        1 GROUP             0 ****  ****    0  
@<TRIPOS>MOLECULE
ligand_14
    27    29     1     0     0
SMALL
NO_CHARGES
****
Generated from the CSD

@<TRIPOS>ATOM
     1 C1       2.4700   0.6738   8.9128   C.3       1 RES1   0.0000
     2 C2       3.5347  -0.0251   8.1009   C.3       1 RES1   0.0000
     3 C3       4.8861  -0.0003   8.7918   C.3       1 RES1   0.0000
     4 N4       4.8053  -0.6349  10.0845   N.am      1 RES1   0.0000
     5 C5       5.6181  -0.2233  11.1067   C.2       1 RES1   0.0000
     6 O6       6.4283   0.6885  11.0264   O.2       1 RES1   0.0000
     7 C7       5.4464  -0.9660  12.3283   C.2       1 RES1   0.0000
     8 C8       4.5473  -2.0367  12.5572   C.2       1 RES1   0.0000
     9 N9       4.6316  -2.5140  13.8002   N.2       1 RES1   0.0000
    10 N10      5.5775  -1.7443  14.3579   N.pl3     1 RES1   0.0000
    11 C11      5.9247  -1.9693  15.6648   C.2       1 RES1   0.0000
    12 C12      7.0051  -1.0352  16.0103   C.2       1 RES1   0.0000
    13 C13      7.5548  -1.1319  17.3825   C.3       1 RES1   0.0000
    14 C14      7.4884  -0.1174  15.1650   C.2       1 RES1   0.0000
    15 N15      7.0745   0.0457  13.9459   N.2       1 RES1   0.0000
    16 C16      6.1063  -0.7979  13.5263   C.2       1 RES1   0.0000
    17 C17      5.8757  -0.6813   7.9010   C.2       1 RES1   0.0000
    18 C18      5.4651  -1.2135   6.6964   C.2       1 RES1   0.0000
    19 C19      6.3666  -1.8497   5.8727   C.2       1 RES1   0.0000
    20 C20      7.6867  -1.9440   6.2616   C.2       1 RES1   0.0000
    21 O21      8.5920  -2.5909   5.4401   O.3       1 RES1   0.0000
    22 C22      9.1631  -1.6659   4.5186   C.3       1 RES1   0.0000
    23 F23      9.8253  -0.6420   5.1202   F         1 RES1   0.0000
    24 F24      8.2302  -1.1391   3.6897   F         1 RES1   0.0000
    25 F25     10.0512  -2.3684   3.7739   F         1 RES1   0.0000
    26 C26      8.1112  -1.4232   7.4635   C.2       1 RES1   0.0000
    27 C27      7.1983  -0.7910   8.2767   C.2       1 RES1   0.0000
@<TRIPOS>BOND
     1     1     2    1
     2     3     2    1
     3     3     4    1
     4     4     5   am
     5     5     6    2
     6     5     7    1
     7     7     8    1
     8     8     9    2
     9     9    10    1
    10    10    11    1
    11    11    12    2
    12    12    13    1
    13    12    14    1
    14    14    15    2
    15    15    16    1
    16     3    17    1
    17    17    18    2
    18    18    19    1
    19    19    20    2
    20    20    21    1
    21    21    22    1
    22    22    23    1
    23    22    24    1
    24    22    25    1
    25    20    26    1
    26    26    27    2
    27    16     7    2
    28    27    17    1
    29    16    10    1
@<TRIPOS>SUBSTRUCTURE
     1 RES1        1 GROUP             0 ****  ****    0  
@<TRIPOS>MOLECULE
ligand_15
    27    29     1     0     0
SMALL
NO_CHARGES
****
Generated from the CSD

@<TRIPOS>ATOM
     1 C1       4.5767   1.1983  10.9997   C.3       1 RES1   0.0000
     2 C2       5.5767   0.5634  10.0626   C.3       1 RES1   0.0000
     3 C3       4.9280   0.0847   8.7765   C.3       1 RES1   0.0000
     4 N4       4.2912   1.1828   8.0916   N.am      1 RES1   0.0000
     5 C5       3.1796   0.9643   7.3225   C.2       1 RES1   0.0000
     6 O6       2.6404  -0.1226   7.1732   O.2       1 RES1   0.0000
     7 C7       2.6703   2.1468   6.6778   C.2       1 RES1   0.0000
     8 C8       3.1934   3.4604   6.7676   C.2       1 RES1   0.0000
     9 N9       2.4903   4.3374   6.0487   N.2       1 RES1   0.0000
    10 N10      1.5223   3.5819   5.5098   N.pl3     1 RES1   0.0000
    11 C11      0.5993   4.1789   4.6906   C.2       1 RES1   0.0000
    12 C12     -0.3083   3.1333   4.1987   C.2       1 RES1   0.0000
    13 C13     -1.3735   3.5629   3.2632   C.3       1 RES1   0.0000
    14 C14     -0.2234   1.8484   4.5625   C.2       1 RES1   0.0000
    15 N15      0.6716   1.3746   5.3742   N.2       1 RES1   0.0000
    16 C16      1.5762   2.2593   5.8477   C.2       1 RES1   0.0000
    17 C17      5.9845  -0.5560   7.9339   C.2       1 RES1   0.0000
    18 C18      7.2885  -0.6010   8.3817   C.2       1 RES1   0.0000
    19 C19      8.2702  -1.1812   7.6101   C.2       1 RES1   0.0000
    20 C20      7.9354  -1.7232   6.3866   C.2       1 RES1   0.0000
    21 O21      8.9215  -2.2981   5.6058   O.3       1 RES1   0.0000
    22 C22      9.4849  -1.3220   4.7335   C.3       1 RES1   0.0000
    23 F23     10.0486  -0.2722   5.3885   F         1 RES1   0.0000
    24 F24      8.5689  -0.8361   3.8619   F         1 RES1   0.0000
    25 F25     10.4546  -1.9546   4.0288   F         1 RES1   0.0000
    26 C26      6.6395  -1.6810   5.9228   C.2       1 RES1   0.0000
    27 C27      5.6693  -1.0968   6.7049   C.2       1 RES1   0.0000
@<TRIPOS>BOND
     1     1     2    1
     2     3     2    1
     3     3     4    1
     4     4     5   am
     5     5     6    2
     6     5     7    1
     7     7     8    1
     8     8     9    2
     9     9    10    1
    10    10    11    1
    11    11    12    2
    12    12    13    1
    13    12    14    1
    14    14    15    2
    15    15    16    1
    16     3    17    1
    17    17    18    2
    18    18    19    1
    19    19    20    2
    20    20    21    1
    21    21    22    1
    22    22    23    1
    23    22    24    1
    24    22    25    1
    25    20    26    1
    26    26    27    2
    27    16     7    2
    28    27    17    1
    29    16    10    1
@<TRIPOS>SUBSTRUCTURE
     1 RES1        1 GROUP             0 ****  ****    0  
@<TRIPOS>MOLECULE
ligand_16
    27    29     1     0     0
SMALL
NO_CHARGES
****
Generated from the CSD

@<TRIPOS>ATOM
     1 C1       4.0749  -2.2330   9.6060   C.3       1 RES1   0.0000
     2 C2       4.6571  -0.8952   9.9963   C.3       1 RES1   0.0000
     3 C3       4.8861  -0.0003   8.7918   C.3       1 RES1   0.0000
     4 N4       5.2861   1.3205   9.2113   N.am      1 RES1   0.0000
     5 C5       4.4766   2.3970   8.9650   C.2       1 RES1   0.0000
     6 O6       3.3964   2.3385   8.3957   O.2       1 RES1   0.0000
     7 C7       5.0047   3.6493   9.4406   C.2       1 RES1   0.0000
     8 C8       5.8482   3.8496  10.5611   C.2       1 RES1   0.0000
     9 N9       6.1630   5.1342  10.7368   N.2       1 RES1   0.0000
    10 N10      5.5165   5.7455   9.7336   N.pl3     1 RES1   0.0000
    11 C11      5.6265   7.1064   9.6109   C.2       1 RES1   0.0000
    12 C12      4.8734   7.5126   8.4163   C.2       1 RES1   0.0000
    13 C13      4.8876   8.9551   8.0794   C.3       1 RES1   0.0000
    14 C14      4.1831   6.6593   7.6511   C.2       1 RES1   0.0000
    15 N15      4.1092   5.3810   7.8625   N.2       1 RES1   0.0000
    16 C16      4.8051   4.9096   8.9202   C.2       1 RES1   0.0000
    17 C17      5.9212  -0.6438   7.9251   C.2       1 RES1   0.0000
    18 C18      5.5631  -1.1720   6.7021   C.2       1 RES1   0.0000
    19 C19      6.5068  -1.7739   5.9003   C.2       1 RES1   0.0000
    20 C20      7.8161  -1.8378   6.3297   C.2       1 RES1   0.0000
    21 O21      8.7639  -2.4503   5.5300   O.3       1 RES1   0.0000
    22 C22      9.3385  -1.4993   4.6377   C.3       1 RES1   0.0000
    23 F23      9.9537  -0.4656   5.2717   F         1 RES1   0.0000
    24 F24      8.4183  -0.9873   3.7856   F         1 RES1   0.0000
    25 F25     10.2682  -2.1688   3.9137   F         1 RES1   0.0000
    26 C26      8.1884  -1.3207   7.5503   C.2       1 RES1   0.0000
    27 C27      7.2338  -0.7229   8.3413   C.2       1 RES1   0.0000
@<TRIPOS>BOND
     1     1     2    1
     2     3     2    1
     3     3     4    1
     4     4     5   am
     5     5     6    2
     6     5     7    1
     7     7     8    1
     8     8     9    2
     9     9    10    1
    10    10    11    1
    11    11    12    2
    12    12    13    1
    13    12    14    1
    14    14    15    2
    15    15    16    1
    16     3    17    1
    17    17    18    2
    18    18    19    1
    19    19    20    2
    20    20    21    1
    21    21    22    1
    22    22    23    1
    23    22    24    1
    24    22    25    1
    25    20    26    1
    26    26    27    2
    27    16     7    2
    28    27    17    1
    29    16    10    1
@<TRIPOS>SUBSTRUCTURE
     1 RES1        1 GROUP             0 ****  ****    0  
@<TRIPOS>MOLECULE
ligand_17
    27    29     1     0     0
SMALL
NO_CHARGES
****
Generated from the CSD

@<TRIPOS>ATOM
     1 C1       5.5937   2.2970   8.0651   C.3       1 RES1   0.0000
     2 C2       4.4598   1.3019   8.1385   C.3       1 RES1   0.0000
     3 C3       4.8861  -0.0003   8.7918   C.3       1 RES1   0.0000
     4 N4       3.7471  -0.8619   8.9935   N.am      1 RES1   0.0000
     5 C5       3.3415  -1.1834  10.2612   C.2       1 RES1   0.0000
     6 O6       3.8814  -0.7892  11.2846   O.2       1 RES1   0.0000
     7 C7       2.1924  -2.0499  10.3076   C.2       1 RES1   0.0000
     8 C8       1.1357  -2.1175   9.3664   C.2       1 RES1   0.0000
     9 N9       0.2179  -3.0275   9.6976   N.2       1 RES1   0.0000
    10 N10      0.6897  -3.5305  10.8476   N.pl3     1 RES1   0.0000
    11 C11     -0.0246  -4.5160  11.4783   C.2       1 RES1   0.0000
    12 C12      0.7275  -4.9217  12.6736   C.2       1 RES1   0.0000
    13 C13      0.1412  -6.0089  13.4915   C.3       1 RES1   0.0000
    14 C14      1.8797  -4.3554  13.0506   C.2       1 RES1   0.0000
    15 N15      2.4720  -3.3991  12.4034   N.2       1 RES1   0.0000
    16 C16      1.8711  -2.9866  11.2659   C.2       1 RES1   0.0000
    17 C17      5.9183  -0.6412   7.9198   C.2       1 RES1   0.0000
    18 C18      5.5561  -1.1663   6.6967   C.2       1 RES1   0.0000
    19 C19      6.4971  -1.7658   5.8900   C.2       1 RES1   0.0000
    20 C20      7.8080  -1.8306   6.3146   C.2       1 RES1   0.0000
    21 O21      8.7531  -2.4407   5.5101   O.3       1 RES1   0.0000
    22 C22      9.3241  -1.4872   4.6181   C.3       1 RES1   0.0000
    23 F23      9.9414  -0.4550   5.2524   F         1 RES1   0.0000
    24 F24      8.4007  -0.9733   3.7707   F         1 RES1   0.0000
    25 F25     10.2514  -2.1546   3.8889   F         1 RES1   0.0000
    26 C26      8.1844  -1.3165   7.5353   C.2       1 RES1   0.0000
    27 C27      7.2324  -0.7211   8.3312   C.2       1 RES1   0.0000
@<TRIPOS>BOND
     1     1     2    1
     2     3     2    1
     3     3     4    1
     4     4     5   am
     5     5     6    2
     6     5     7    1
     7     7     8    1
     8     8     9    2
     9     9    10    1
    10    10    11    1
    11    11    12    2
    12    12    13    1
    13    12    14    1
    14    14    15    2
    15    15    16    1
    16     3    17    1
    17    17    18    2
    18    18    19    1
    19    19    20    2
    20    20    21    1
    21    21    22    1
    22    22    23    1
    23    22    24    1
    24    22    25    1
    25    20    26    1
    26    26    27    2
    27    16     7    2
    28    27    17    1
    29    16    10    1
@<TRIPOS>SUBSTRUCTURE
     1 RES1        1 GROUP             0 ****  ****    0  
@<TRIPOS>MOLECULE
ligand_18
    27    29     1     0     0
SMALL
NO_CHARGES
****
Generated from the CSD

@<TRIPOS>ATOM
     1 C1       4.0779  -2.2340   9.6063   C.3       1 RES1   0.0000
     2 C2       4.6600  -0.8960   9.9962   C.3       1 RES1   0.0000
     3 C3       4.8861  -0.0003   8.7918   C.3       1 RES1   0.0000
     4 N4       5.2861   1.3205   9.2113   N.am      1 RES1   0.0000
     5 C5       5.0023   2.4080   8.4291   C.2       1 RES1   0.0000
     6 O6       4.4138   2.3596   7.3588   O.2       1 RES1   0.0000
     7 C7       5.4616   3.6589   8.9745   C.2       1 RES1   0.0000
     8 C8       4.7729   4.8971   8.9682   C.2       1 RES1   0.0000
     9 N9       5.4719   5.8700   9.5555   N.2       1 RES1   0.0000
    10 N10      6.6015   5.2507   9.9277   N.pl3     1 RES1   0.0000
    11 C11      7.5668   5.9749  10.5782   C.2       1 RES1   0.0000
    12 C12      8.6653   5.0592  10.9153   C.2       1 RES1   0.0000
    13 C13      9.8097   5.6375  11.6573   C.3       1 RES1   0.0000
    14 C14      8.6803   3.7649  10.5761   C.2       1 RES1   0.0000
    15 N15      7.7286   3.1665   9.9279   N.2       1 RES1   0.0000
    16 C16      6.6559   3.9233   9.6091   C.2       1 RES1   0.0000
    17 C17      5.9199  -0.6426   7.9227   C.2       1 RES1   0.0000
    18 C18      5.5597  -1.1703   6.7001   C.2       1 RES1   0.0000
    19 C19      6.5023  -1.7711   5.8961   C.2       1 RES1   0.0000
    20 C20      7.8125  -1.8346   6.3228   C.2       1 RES1   0.0000
    21 O21      8.7590  -2.4460   5.5210   O.3       1 RES1   0.0000
    22 C22      9.3306  -1.4942   4.6275   C.3       1 RES1   0.0000
    23 F23      9.9467  -0.4603   5.2602   F         1 RES1   0.0000
    24 F24      8.4079  -0.9827   3.7779   F         1 RES1   0.0000
    25 F25     10.2590  -2.1628   3.9009   F         1 RES1   0.0000
    26 C26      8.1868  -1.3179   7.5431   C.2       1 RES1   0.0000
    27 C27      7.2333  -0.7212   8.3362   C.2       1 RES1   0.0000
@<TRIPOS>BOND
     1     1     2    1
     2     3     2    1
     3     3     4    1
     4     4     5   am
     5     5     6    2
     6     5     7    1
     7     7     8    1
     8     8     9    2
     9     9    10    1
    10    10    11    1
    11    11    12    2
    12    12    13    1
    13    12    14    1
    14    14    15    2
    15    15    16    1
    16     3    17    1
    17    17    18    2
    18    18    19    1
    19    19    20    2
    20    20    21    1
    21    21    22    1
    22    22    23    1
    23    22    24    1
    24    22    25    1
    25    20    26    1
    26    26    27    2
    27    16     7    2
    28    27    17    1
    29    16    10    1
@<TRIPOS>SUBSTRUCTURE
     1 RES1        1 GROUP             0 ****  ****    0  
@<TRIPOS>MOLECULE
ligand_19
    27    29     1     0     0
SMALL
NO_CHARGES
****
Generated from the CSD

@<TRIPOS>ATOM
     1 C1       4.0779  -2.2340   9.6063   C.3       1 RES1   0.0000
     2 C2       4.6600  -0.8960   9.9962   C.3       1 RES1   0.0000
     3 C3       4.8861  -0.0003   8.7918   C.3       1 RES1   0.0000
     4 N4       5.2861   1.3205   9.2113   N.am      1 RES1   0.0000
     5 C5       5.0023   2.4080   8.4291   C.2       1 RES1   0.0000
     6 O6       4.4138   2.3596   7.3588   O.2       1 RES1   0.0000
     7 C7       5.4616   3.6589   8.9745   C.2       1 RES1   0.0000
     8 C8       6.0699   4.7260   8.2684   C.2       1 RES1   0.0000
     9 N9       6.3812   5.7501   9.0649   N.2       1 RES1   0.0000
    10 N10      5.9759   5.3302  10.2723   N.pl3     1 RES1   0.0000
    11 C11      6.1471   6.1595  11.3503   C.2       1 RES1   0.0000
    12 C12      5.5794   5.4891  12.5281   C.2       1 RES1   0.0000
    13 C13      5.6325   6.2337  13.8077   C.3       1 RES1   0.0000
    14 C14      5.0451   4.2628  12.4957   C.2       1 RES1   0.0000
    15 N15      4.9523   3.5322  11.4272   N.2       1 RES1   0.0000
    16 C16      5.4146   4.0847  10.2843   C.2       1 RES1   0.0000
    17 C17      5.9199  -0.6426   7.9227   C.2       1 RES1   0.0000
    18 C18      5.5597  -1.1703   6.7001   C.2       1 RES1   0.0000
    19 C19      6.5023  -1.7711   5.8961   C.2       1 RES1   0.0000
    20 C20      7.8125  -1.8346   6.3228   C.2       1 RES1   0.0000
    21 O21      8.7590  -2.4460   5.5210   O.3       1 RES1   0.0000
    22 C22      9.3306  -1.4942   4.6275   C.3       1 RES1   0.0000
    23 F23      9.9467  -0.4603   5.2602   F         1 RES1   0.0000
    24 F24      8.4079  -0.9827   3.7779   F         1 RES1   0.0000
    25 F25     10.2590  -2.1628   3.9009   F         1 RES1   0.0000
    26 C26      8.1868  -1.3179   7.5431   C.2       1 RES1   0.0000
    27 C27      7.2333  -0.7212   8.3362   C.2       1 RES1   0.0000
@<TRIPOS>BOND
     1     1     2    1
     2     3     2    1
     3     3     4    1
     4     4     5   am
     5     5     6    2
     6     5     7    1
     7     7     8    1
     8     8     9    2
     9     9    10    1
    10    10    11    1
    11    11    12    2
    12    12    13    1
    13    12    14    1
    14    14    15    2
    15    15    16    1
    16     3    17    1
    17    17    18    2
    18    18    19    1
    19    19    20    2
    20    20    21    1
    21    21    22    1
    22    22    23    1
    23    22    24    1
    24    22    25    1
    25    20    26    1
    26    26    27    2
    27    16     7    2
    28    27    17    1
    29    16    10    1
@<TRIPOS>SUBSTRUCTURE
     1 RES1        1 GROUP             0 ****  ****    0  
@<TRIPOS>MOLECULE
ligand_20
    27    29     1     0     0
SMALL
NO_CHARGES
****
Generated from the CSD

@<TRIPOS>ATOM
     1 C1       5.5940   2.2958   8.0616   C.3       1 RES1   0.0000
     2 C2       4.4604   1.3004   8.1352   C.3       1 RES1   0.0000
     3 C3       4.8861  -0.0003   8.7918   C.3       1 RES1   0.0000
     4 N4       3.7471  -0.8619   8.9935   N.am      1 RES1   0.0000
     5 C5       3.7422  -1.7700  10.0183   C.2       1 RES1   0.0000
     6 O6       4.6568  -1.9243  10.8145   O.2       1 RES1   0.0000
     7 C7       2.5409  -2.5599  10.0967   C.2       1 RES1   0.0000
     8 C8       1.8412  -2.9354  11.2700   C.2       1 RES1   0.0000
     9 N9       0.7606  -3.6712  11.0035   N.2       1 RES1   0.0000
    10 N10      0.7793  -3.7655   9.6660   N.pl3     1 RES1   0.0000
    11 C11     -0.2160  -4.4709   9.0409   C.2       1 RES1   0.0000
    12 C12      0.0083  -4.3771   7.5917   C.2       1 RES1   0.0000
    13 C13     -0.9819  -5.0512   6.7202   C.3       1 RES1   0.0000
    14 C14      1.0486  -3.7386   7.0437   C.2       1 RES1   0.0000
    15 N15      1.9669  -3.1194   7.7201   N.2       1 RES1   0.0000
    16 C16      1.8212  -3.1191   9.0632   C.2       1 RES1   0.0000
    17 C17      5.9199  -0.6426   7.9227   C.2       1 RES1   0.0000
    18 C18      5.5597  -1.1703   6.7001   C.2       1 RES1   0.0000
    19 C19      6.5023  -1.7711   5.8961   C.2       1 RES1   0.0000
    20 C20      7.8125  -1.8346   6.3228   C.2       1 RES1   0.0000
    21 O21      8.7590  -2.4460   5.5210   O.3       1 RES1   0.0000
    22 C22      9.3311  -1.4941   4.6279   C.3       1 RES1   0.0000
    23 F23      9.9470  -0.4604   5.2611   F         1 RES1   0.0000
    24 F24      8.4088  -0.9823   3.7781   F         1 RES1   0.0000
    25 F25     10.2597  -2.1626   3.9016   F         1 RES1   0.0000
    26 C26      8.1868  -1.3179   7.5431   C.2       1 RES1   0.0000
    27 C27      7.2333  -0.7212   8.3362   C.2       1 RES1   0.0000
@<TRIPOS>BOND
     1     1     2    1
     2     3     2    1
     3     3     4    1
     4     4     5   am
     5     5     6    2
     6     5     7    1
     7     7     8    1
     8     8     9    2
     9     9    10    1
    10    10    11    1
    11    11    12    2
    12    12    13    1
    13    12    14    1
    14    14    15    2
    15    15    16    1
    16     3    17    1
    17    17    18    2
    18    18    19    1
    19    19    20    2
    20    20    21    1
    21    21    22    1
    22    22    23    1
    23    22    24    1
    24    22    25    1
    25    20    26    1
    26    26    27    2
    27    16     7    2
    28    27    17    1
    29    16    10    1
@<TRIPOS>SUBSTRUCTURE
     1 RES1        1 GROUP             0 ****  ****    0  
@<TRIPOS>MOLECULE
ligand_21
    27    29     1     0     0
SMALL
NO_CHARGES
****
Generated from the CSD

@<TRIPOS>ATOM
     1 C1       5.5940   2.2958   8.0616   C.3       1 RES1   0.0000
     2 C2       4.4604   1.3004   8.1352   C.3       1 RES1   0.0000
     3 C3       4.8861  -0.0003   8.7918   C.3       1 RES1   0.0000
     4 N4       3.7471  -0.8619   8.9935   N.am      1 RES1   0.0000
     5 C5       3.7422  -1.7700  10.0183   C.2       1 RES1   0.0000
     6 O6       4.6568  -1.9243  10.8145   O.2       1 RES1   0.0000
     7 C7       2.5409  -2.5599  10.0967   C.2       1 RES1   0.0000
     8 C8       2.4475  -3.9469  10.3699   C.2       1 RES1   0.0000
     9 N9       1.1857  -4.3804  10.3724   N.2       1 RES1   0.0000
    10 N10      0.4830  -3.2721  10.0965   N.pl3     1 RES1   0.0000
    11 C11     -0.8831  -3.3590  10.0228   C.2       1 RES1   0.0000
    12 C12     -1.4060  -2.0108   9.7619   C.2       1 RES1   0.0000
    13 C13     -2.8785  -1.8735   9.6754   C.3       1 RES1   0.0000
    14 C14     -0.6281  -0.9359   9.5895   C.2       1 RES1   0.0000
    15 N15      0.6683  -0.9532   9.6462   N.2       1 RES1   0.0000
    16 C16      1.2379  -2.1469   9.9217   C.2       1 RES1   0.0000
    17 C17      5.9199  -0.6426   7.9227   C.2       1 RES1   0.0000
    18 C18      5.5597  -1.1703   6.7001   C.2       1 RES1   0.0000
    19 C19      6.5023  -1.7711   5.8961   C.2       1 RES1   0.0000
    20 C20      7.8125  -1.8346   6.3228   C.2       1 RES1   0.0000
    21 O21      8.7590  -2.4460   5.5210   O.3       1 RES1   0.0000
    22 C22      9.3311  -1.4941   4.6279   C.3       1 RES1   0.0000
    23 F23      9.9470  -0.4604   5.2611   F         1 RES1   0.0000
    24 F24      8.4088  -0.9823   3.7781   F         1 RES1   0.0000
    25 F25     10.2597  -2.1626   3.9016   F         1 RES1   0.0000
    26 C26      8.1868  -1.3179   7.5431   C.2       1 RES1   0.0000
    27 C27      7.2333  -0.7212   8.3362   C.2       1 RES1   0.0000
@<TRIPOS>BOND
     1     1     2    1
     2     3     2    1
     3     3     4    1
     4     4     5   am
     5     5     6    2
     6     5     7    1
     7     7     8    1
     8     8     9    2
     9     9    10    1
    10    10    11    1
    11    11    12    2
    12    12    13    1
    13    12    14    1
    14    14    15    2
    15    15    16    1
    16     3    17    1
    17    17    18    2
    18    18    19    1
    19    19    20    2
    20    20    21    1
    21    21    22    1
    22    22    23    1
    23    22    24    1
    24    22    25    1
    25    20    26    1
    26    26    27    2
    27    16     7    2
    28    27    17    1
    29    16    10    1
@<TRIPOS>SUBSTRUCTURE
     1 RES1        1 GROUP             0 ****  ****    0  
@<TRIPOS>MOLECULE
ligand_22
    27    29     1     0     0
SMALL
NO_CHARGES
****
Generated from the CSD

@<TRIPOS>ATOM
     1 C1       3.0141  -0.5497  10.3729   C.3       1 RES1   0.0000
     2 C2       4.1277  -1.0995   9.5134   C.3       1 RES1   0.0000
     3 C3       4.8861  -0.0003   8.7918   C.3       1 RES1   0.0000
     4 N4       5.4767   0.9131   9.7391   N.am      1 RES1   0.0000
     5 C5       5.6954   2.2197   9.3929   C.2       1 RES1   0.0000
     6 O6       5.4234   2.7052   8.3045   O.2       1 RES1   0.0000
     7 C7       6.2898   3.0120  10.4380   C.2       1 RES1   0.0000
     8 C8       6.6355   4.3846  10.3769   C.2       1 RES1   0.0000
     9 N9       7.1704   4.8249  11.5171   N.2       1 RES1   0.0000
    10 N10      7.1679   3.7331  12.2957   N.pl3     1 RES1   0.0000
    11 C11      7.6600   3.8320  13.5713   C.2       1 RES1   0.0000
    12 C12      7.4966   2.5232  14.2191   C.2       1 RES1   0.0000
    13 C13      7.9404   2.4183  15.6285   C.3       1 RES1   0.0000
    14 C14      6.9914   1.4495  13.6008   C.2       1 RES1   0.0000
    15 N15      6.5759   1.4401  12.3714   N.2       1 RES1   0.0000
    16 C16      6.6513   2.6138  11.7067   C.2       1 RES1   0.0000
    17 C17      5.9199  -0.6426   7.9227   C.2       1 RES1   0.0000
    18 C18      5.5605  -1.1667   6.6984   C.2       1 RES1   0.0000
    19 C19      6.5030  -1.7675   5.8942   C.2       1 RES1   0.0000
    20 C20      7.8124  -1.8345   6.3228   C.2       1 RES1   0.0000
    21 O21      8.7589  -2.4460   5.5209   O.3       1 RES1   0.0000
    22 C22      9.3343  -1.4931   4.6310   C.3       1 RES1   0.0000
    23 F23      9.9513  -0.4621   5.2676   F         1 RES1   0.0000
    24 F24      8.4143  -0.9774   3.7810   F         1 RES1   0.0000
    25 F25     10.2627  -2.1617   3.9045   F         1 RES1   0.0000
    26 C26      8.1860  -1.3215   7.5448   C.2       1 RES1   0.0000
    27 C27      7.2326  -0.7248   8.3380   C.2       1 RES1   0.0000
@<TRIPOS>BOND
     1     1     2    1
     2     3     2    1
     3     3     4    1
     4     4     5   am
     5     5     6    2
     6     5     7    1
     7     7     8    1
     8     8     9    2
     9     9    10    1
    10    10    11    1
    11    11    12    2
    12    12    13    1
    13    12    14    1
    14    14    15    2
    15    15    16    1
    16     3    17    1
    17    17    18    2
    18    18    19    1
    19    19    20    2
    20    20    21    1
    21    21    22    1
    22    22    23    1
    23    22    24    1
    24    22    25    1
    25    20    26    1
    26    26    27    2
    27    16     7    2
    28    27    17    1
    29    16    10    1
@<TRIPOS>SUBSTRUCTURE
     1 RES1        1 GROUP             0 ****  ****    0  
@<TRIPOS>MOLECULE
ligand_23
    27    29     1     0     0
SMALL
NO_CHARGES
****
Generated from the CSD

@<TRIPOS>ATOM
     1 C1       4.0250   2.2474   9.5081   C.3       1 RES1   0.0000
     2 C2       4.9927   1.5039   8.6180   C.3       1 RES1   0.0000
     3 C3       4.8861  -0.0003   8.7918   C.3       1 RES1   0.0000
     4 N4       3.5565  -0.4545   8.4656   N.am      1 RES1   0.0000
     5 C5       3.0490  -1.5817   9.0545   C.2       1 RES1   0.0000
     6 O6       3.6472  -2.2698   9.8688   O.2       1 RES1   0.0000
     7 C7       1.7126  -1.9129   8.6332   C.2       1 RES1   0.0000
     8 C8       0.9313  -3.0148   9.0605   C.2       1 RES1   0.0000
     9 N9      -0.2699  -3.0412   8.4804   N.2       1 RES1   0.0000
    10 N10     -0.2469  -1.9621   7.6846   N.pl3     1 RES1   0.0000
    11 C11     -1.3523  -1.6799   6.9245   C.2       1 RES1   0.0000
    12 C12     -1.0882  -0.4337   6.1922   C.2       1 RES1   0.0000
    13 C13     -2.1779   0.0725   5.3256   C.3       1 RES1   0.0000
    14 C14      0.0685   0.2352   6.2627   C.2       1 RES1   0.0000
    15 N15      1.0801  -0.1258   6.9910   N.2       1 RES1   0.0000
    16 C16      0.9138  -1.2430   7.7321   C.2       1 RES1   0.0000
    17 C17      5.9199  -0.6426   7.9227   C.2       1 RES1   0.0000
    18 C18      5.5614  -1.1626   6.6963   C.2       1 RES1   0.0000
    19 C19      6.5039  -1.7633   5.8922   C.2       1 RES1   0.0000
    20 C20      7.8124  -1.8345   6.3228   C.2       1 RES1   0.0000
    21 O21      8.7589  -2.4459   5.5208   O.3       1 RES1   0.0000
    22 C22      9.3378  -1.4920   4.6344   C.3       1 RES1   0.0000
    23 F23      9.9561  -0.4641   5.2747   F         1 RES1   0.0000
    24 F24      8.4203  -0.9720   3.7842   F         1 RES1   0.0000
    25 F25     10.2658  -2.1608   3.9075   F         1 RES1   0.0000
    26 C26      8.1851  -1.3256   7.5468   C.2       1 RES1   0.0000
    27 C27      7.2317  -0.7289   8.3400   C.2       1 RES1   0.0000
@<TRIPOS>BOND
     1     1     2    1
     2     3     2    1
     3     3     4    1
     4     4     5   am
     5     5     6    2
     6     5     7    1
     7     7     8    1
     8     8     9    2
     9     9    10    1
    10    10    11    1
    11    11    12    2
    12    12    13    1
    13    12    14    1
    14    14    15    2
    15    15    16    1
    16     3    17    1
    17    17    18    2
    18    18    19    1
    19    19    20    2
    20    20    21    1
    21    21    22    1
    22    22    23    1
    23    22    24    1
    24    22    25    1
    25    20    26    1
    26    26    27    2
    27    16     7    2
    28    27    17    1
    29    16    10    1
@<TRIPOS>SUBSTRUCTURE
     1 RES1        1 GROUP             0 ****  ****    0  
@<TRIPOS>MOLECULE
ligand_24
    27    29     1     0     0
SMALL
NO_CHARGES
****
Generated from the CSD

@<TRIPOS>ATOM
     1 C1       4.6717   1.2471  10.9877   C.3       1 RES1   0.0000
     2 C2       5.6276   0.5737  10.0317   C.3       1 RES1   0.0000
     3 C3       4.9280   0.0847   8.7765   C.3       1 RES1   0.0000
     4 N4       4.2912   1.1828   8.0916   N.am      1 RES1   0.0000
     5 C5       2.9273   1.2273   7.9788   C.2       1 RES1   0.0000
     6 O6       2.1650   0.3832   8.4268   O.2       1 RES1   0.0000
     7 C7       2.4344   2.3797   7.2701   C.2       1 RES1   0.0000
     8 C8       3.2024   3.4291   6.7078   C.2       1 RES1   0.0000
     9 N9       2.4437   4.3527   6.1151   N.2       1 RES1   0.0000
    10 N10      1.1990   3.8919   6.3061   N.pl3     1 RES1   0.0000
    11 C11      0.1451   4.6146   5.8101   C.2       1 RES1   0.0000
    12 C12     -1.0883   3.8736   6.1079   C.2       1 RES1   0.0000
    13 C13     -2.3558   4.4702   5.6263   C.3       1 RES1   0.0000
    14 C14     -1.1137   2.7225   6.7897   C.2       1 RES1   0.0000
    15 N15     -0.0604   2.1217   7.2520   N.2       1 RES1   0.0000
    16 C16      1.1264   2.7119   6.9910   C.2       1 RES1   0.0000
    17 C17      5.9436  -0.5929   7.9127   C.2       1 RES1   0.0000
    18 C18      7.2599  -0.6580   8.3200   C.2       1 RES1   0.0000
    19 C19      8.2043  -1.2724   7.5285   C.2       1 RES1   0.0000
    20 C20      7.8194  -1.8282   6.3261   C.2       1 RES1   0.0000
    21 O21      8.7680  -2.4375   5.5250   O.3       1 RES1   0.0000
    22 C22      9.3235  -1.4890   4.6180   C.3       1 RES1   0.0000
    23 F23      9.9295  -0.4403   5.2359   F         1 RES1   0.0000
    24 F24      8.3905  -0.9988   3.7671   F         1 RES1   0.0000
    25 F25     10.2568  -2.1542   3.8946   F         1 RES1   0.0000
    26 C26      6.5106  -1.7663   5.9026   C.2       1 RES1   0.0000
    27 C27      5.5782  -1.1481   6.7042   C.2       1 RES1   0.0000
@<TRIPOS>BOND
     1     1     2    1
     2     3     2    1
     3     3     4    1
     4     4     5   am
     5     5     6    2
     6     5     7    1
     7     7     8    1
     8     8     9    2
     9     9    10    1
    10    10    11    1
    11    11    12    2
    12    12    13    1
    13    12    14    1
    14    14    15    2
    15    15    16    1
    16     3    17    1
    17    17    18    2
    18    18    19    1
    19    19    20    2
    20    20    21    1
    21    21    22    1
    22    22    23    1
    23    22    24    1
    24    22    25    1
    25    20    26    1
    26    26    27    2
    27    16     7    2
    28    27    17    1
    29    16    10    1
@<TRIPOS>SUBSTRUCTURE
     1 RES1        1 GROUP             0 ****  ****    0  
@<TRIPOS>MOLECULE
ligand_25
    27    29     1     0     0
SMALL
NO_CHARGES
****
Generated from the CSD

@<TRIPOS>ATOM
     1 C1       4.1064  -2.2266   9.6531   C.3       1 RES1   0.0000
     2 C2       4.8323  -0.9431   9.9802   C.3       1 RES1   0.0000
     3 C3       4.8861  -0.0003   8.7918   C.3       1 RES1   0.0000
     4 N4       5.2861   1.3205   9.2113   N.am      1 RES1   0.0000
     5 C5       6.2337   1.4765  10.1873   C.2       1 RES1   0.0000
     6 O6       6.7560   0.5581  10.8021   O.2       1 RES1   0.0000
     7 C7       6.5858   2.8479  10.4495   C.2       1 RES1   0.0000
     8 C8       6.0689   3.9998   9.8068   C.2       1 RES1   0.0000
     9 N9       6.6014   5.1277  10.2803   N.2       1 RES1   0.0000
    10 N10      7.4565   4.6907  11.2162   N.pl3     1 RES1   0.0000
    11 C11      8.1895   5.6104  11.9205   C.2       1 RES1   0.0000
    12 C12      8.9995   4.8808  12.9056   C.2       1 RES1   0.0000
    13 C13      9.8518   5.6966  13.8015   C.3       1 RES1   0.0000
    14 C14      9.0096   3.5471  13.0133   C.2       1 RES1   0.0000
    15 N15      8.3005   2.7474  12.2772   N.2       1 RES1   0.0000
    16 C16      7.4925   3.3333  11.3667   C.2       1 RES1   0.0000
    17 C17      5.8338  -0.5733   7.7867   C.2       1 RES1   0.0000
    18 C18      5.3564  -1.0444   6.5813   C.2       1 RES1   0.0000
    19 C19      6.2194  -1.5815   5.6525   C.2       1 RES1   0.0000
    20 C20      7.5680  -1.6380   5.9371   C.2       1 RES1   0.0000
    21 O21      8.4354  -2.1856   5.0095   O.3       1 RES1   0.0000
    22 C22      8.8949  -1.1760   4.1148   C.3       1 RES1   0.0000
    23 F23      9.5564  -0.1632   4.7358   F         1 RES1   0.0000
    24 F24      7.8803  -0.6412   3.3941   F         1 RES1   0.0000
    25 F25      9.7534  -1.7849   3.2610   F         1 RES1   0.0000
    26 C26      8.0594  -1.1774   7.1381   C.2       1 RES1   0.0000
    27 C27      7.1844  -0.6442   8.0570   C.2       1 RES1   0.0000
@<TRIPOS>BOND
     1     1     2    1
     2     3     2    1
     3     3     4    1
     4     4     5   am
     5     5     6    2
     6     5     7    1
     7     7     8    1
     8     8     9    2
     9     9    10    1
    10    10    11    1
    11    11    12    2
    12    12    13    1
    13    12    14    1
    14    14    15    2
    15    15    16    1
    16     3    17    1
    17    17    18    2
    18    18    19    1
    19    19    20    2
    20    20    21    1
    21    21    22    1
    22    22    23    1
    23    22    24    1
    24    22    25    1
    25    20    26    1
    26    26    27    2
    27    16     7    2
    28    27    17    1
    29    16    10    1
@<TRIPOS>SUBSTRUCTURE
     1 RES1        1 GROUP             0 ****  ****    0  
@<TRIPOS>MOLECULE
ligand_26
    27    29     1     0     0
SMALL
NO_CHARGES
****
Generated from the CSD

@<TRIPOS>ATOM
     1 C1       5.6409   2.3541   7.9716   C.3       1 RES1   0.0000
     2 C2       4.5588   1.3007   7.9463   C.3       1 RES1   0.0000
     3 C3       4.9280   0.0847   8.7765   C.3       1 RES1   0.0000
     4 N4       3.7706  -0.7468   8.9986   N.am      1 RES1   0.0000
     5 C5       2.8416  -0.9149   8.0067   C.2       1 RES1   0.0000
     6 O6       2.8766  -0.3564   6.9199   O.2       1 RES1   0.0000
     7 C7       1.7815  -1.8289   8.3444   C.2       1 RES1   0.0000
     8 C8       1.6271  -2.5472   9.5557   C.2       1 RES1   0.0000
     9 N9       0.5351  -3.3137   9.5562   N.2       1 RES1   0.0000
    10 N10      0.0028  -3.0852   8.3468   N.pl3     1 RES1   0.0000
    11 C11     -1.1590  -3.7279   8.0058   C.2       1 RES1   0.0000
    12 C12     -1.5504  -3.2687   6.6660   C.2       1 RES1   0.0000
    13 C13     -2.8090  -3.8220   6.1143   C.3       1 RES1   0.0000
    14 C14     -0.8295  -2.4072   5.9391   C.2       1 RES1   0.0000
    15 N15      0.2834  -1.8684   6.3331   N.2       1 RES1   0.0000
    16 C16      0.7026  -2.2030   7.5731   C.2       1 RES1   0.0000
    17 C17      6.0125  -0.6549   8.0600   C.2       1 RES1   0.0000
    18 C18      7.2844  -0.6971   8.5923   C.2       1 RES1   0.0000
    19 C19      8.2920  -1.3684   7.9365   C.2       1 RES1   0.0000
    20 C20      8.0151  -2.0041   6.7441   C.2       1 RES1   0.0000
    21 O21      9.0278  -2.6710   6.0789   O.3       1 RES1   0.0000
    22 C22      9.6752  -1.7895   5.1653   C.3       1 RES1   0.0000
    23 F23     10.2320  -0.7032   5.7642   F         1 RES1   0.0000
    24 F24      8.8307  -1.3554   4.1992   F         1 RES1   0.0000
    25 F25     10.6649  -2.5068   4.5796   F         1 RES1   0.0000
    26 C26      6.7522  -1.9664   6.1966   C.2       1 RES1   0.0000
    27 C27      5.7556  -1.2906   6.8632   C.2       1 RES1   0.0000
@<TRIPOS>BOND
     1     1     2    1
     2     3     2    1
     3     3     4    1
     4     4     5   am
     5     5     6    2
     6     5     7    1
     7     7     8    1
     8     8     9    2
     9     9    10    1
    10    10    11    1
    11    11    12    2
    12    12    13    1
    13    12    14    1
    14    14    15    2
    15    15    16    1
    16     3    17    1
    17    17    18    2
    18    18    19    1
    19    19    20    2
    20    20    21    1
    21    21    22    1
    22    22    23    1
    23    22    24    1
    24    22    25    1
    25    20    26    1
    26    26    27    2
    27    16     7    2
    28    27    17    1
    29    16    10    1
@<TRIPOS>SUBSTRUCTURE
     1 RES1        1 GROUP             0 ****  ****    0  
@<TRIPOS>MOLECULE
ligand_27
    27    29     1     0     0
SMALL
NO_CHARGES
****
Generated from the CSD

@<TRIPOS>ATOM
     1 C1       5.0762  -1.9301  10.3874   C.3       1 RES1   0.0000
     2 C2       4.1518  -1.1155   9.5138   C.3       1 RES1   0.0000
     3 C3       4.8861  -0.0003   8.7918   C.3       1 RES1   0.0000
     4 N4       5.4767   0.9131   9.7391   N.am      1 RES1   0.0000
     5 C5       5.0599   2.2163   9.7925   C.2       1 RES1   0.0000
     6 O6       4.1928   2.6984   9.0783   O.2       1 RES1   0.0000
     7 C7       5.7382   3.0091  10.7847   C.2       1 RES1   0.0000
     8 C8       6.7515   2.5774  11.6758   C.2       1 RES1   0.0000
     9 N9       7.1769   3.5576  12.4747   N.2       1 RES1   0.0000
    10 N10      6.4314   4.6052  12.0939   N.pl3     1 RES1   0.0000
    11 C11      6.6154   5.8089  12.7236   C.2       1 RES1   0.0000
    12 C12      5.7221   6.7888  12.0906   C.2       1 RES1   0.0000
    13 C13      5.7852   8.1765  12.6052   C.3       1 RES1   0.0000
    14 C14      4.8679   6.4842  11.1067   C.2       1 RES1   0.0000
    15 N15      4.7385   5.3011  10.5893   N.2       1 RES1   0.0000
    16 C16      5.5504   4.3412  11.0836   C.2       1 RES1   0.0000
    17 C17      5.9170  -0.6215   7.9042   C.2       1 RES1   0.0000
    18 C18      5.5495  -1.1369   6.6785   C.2       1 RES1   0.0000
    19 C19      6.4894  -1.7183   5.8573   C.2       1 RES1   0.0000
    20 C20      7.8044  -1.7748   6.2702   C.2       1 RES1   0.0000
    21 O21      8.7485  -2.3668   5.4510   O.3       1 RES1   0.0000
    22 C22      9.3027  -1.3980   4.5649   C.3       1 RES1   0.0000
    23 F23      9.9152  -0.3668   5.2055   F         1 RES1   0.0000
    24 F24      8.3673  -0.8840   3.7309   F         1 RES1   0.0000
    25 F25     10.2303  -2.0483   3.8208   F         1 RES1   0.0000
    26 C26      8.1862  -1.2703   7.4932   C.2       1 RES1   0.0000
    27 C27      7.2353  -0.6929   8.3035   C.2       1 RES1   0.0000
@<TRIPOS>BOND
     1     1     2    1
     2     3     2    1
     3     3     4    1
     4     4     5   am
     5     5     6    2
     6     5     7    1
     7     7     8    1
     8     8     9    2
     9     9    10    1
    10    10    11    1
    11    11    12    2
    12    12    13    1
    13    12    14    1
    14    14    15    2
    15    15    16    1
    16     3    17    1
    17    17    18    2
    18    18    19    1
    19    19    20    2
    20    20    21    1
    21    21    22    1
    22    22    23    1
    23    22    24    1
    24    22    25    1
    25    20    26    1
    26    26    27    2
    27    16     7    2
    28    27    17    1
    29    16    10    1
@<TRIPOS>SUBSTRUCTURE
     1 RES1        1 GROUP             0 ****  ****    0  
@<TRIPOS>MOLECULE
ligand_28
    27    29     1     0     0
SMALL
NO_CHARGES
****
Generated from the CSD

@<TRIPOS>ATOM
     1 C1       4.7475   1.8909   7.1454   C.3       1 RES1   0.0000
     2 C2       5.0036   1.4984   8.5812   C.3       1 RES1   0.0000
     3 C3       4.8861  -0.0003   8.7918   C.3       1 RES1   0.0000
     4 N4       3.5565  -0.4545   8.4656   N.am      1 RES1   0.0000
     5 C5       2.7582  -1.0027   9.4337   C.2       1 RES1   0.0000
     6 O6       3.0842  -1.1489  10.6027   O.2       1 RES1   0.0000
     7 C7       1.4600  -1.4101   8.9625   C.2       1 RES1   0.0000
     8 C8       0.9553  -1.2937   7.6438   C.2       1 RES1   0.0000
     9 N9      -0.2875  -1.7658   7.5320   N.2       1 RES1   0.0000
    10 N10     -0.5704  -2.1749   8.7773   N.pl3     1 RES1   0.0000
    11 C11     -1.7992  -2.7294   9.0259   C.2       1 RES1   0.0000
    12 C12     -1.8327  -3.1341  10.4380   C.2       1 RES1   0.0000
    13 C13     -3.0729  -3.7905  10.9129   C.3       1 RES1   0.0000
    14 C14     -0.8233  -2.9264  11.2915   C.2       1 RES1   0.0000
    15 N15      0.3007  -2.3613  10.9730   N.2       1 RES1   0.0000
    16 C16      0.4373  -1.9902   9.6811   C.2       1 RES1   0.0000
    17 C17      5.9232  -0.6705   7.9481   C.2       1 RES1   0.0000
    18 C18      5.5728  -1.2149   6.7300   C.2       1 RES1   0.0000
    19 C19      6.5183  -1.8414   5.9493   C.2       1 RES1   0.0000
    20 C20      7.8217  -1.9137   6.3950   C.2       1 RES1   0.0000
    21 O21      8.7711  -2.5508   5.6168   O.3       1 RES1   0.0000
    22 C22      9.3672  -1.6218   4.7153   C.3       1 RES1   0.0000
    23 F23      9.9876  -0.5850   5.3389   F         1 RES1   0.0000
    24 F24      8.4629  -1.1134   3.8442   F         1 RES1   0.0000
    25 F25     10.2968  -2.3144   4.0133   F         1 RES1   0.0000
    26 C26      8.1862  -1.3806   7.6111   C.2       1 RES1   0.0000
    27 C27      7.2299  -0.7583   8.3808   C.2       1 RES1   0.0000
@<TRIPOS>BOND
     1     1     2    1
     2     3     2    1
     3     3     4    1
     4     4     5   am
     5     5     6    2
     6     5     7    1
     7     7     8    1
     8     8     9    2
     9     9    10    1
    10    10    11    1
    11    11    12    2
    12    12    13    1
    13    12    14    1
    14    14    15    2
    15    15    16    1
    16     3    17    1
    17    17    18    2
    18    18    19    1
    19    19    20    2
    20    20    21    1
    21    21    22    1
    22    22    23    1
    23    22    24    1
    24    22    25    1
    25    20    26    1
    26    26    27    2
    27    16     7    2
    28    27    17    1
    29    16    10    1
@<TRIPOS>SUBSTRUCTURE
     1 RES1        1 GROUP             0 ****  ****    0  
@<TRIPOS>MOLECULE
ligand_29
    27    29     1     0     0
SMALL
NO_CHARGES
****
Generated from the CSD

@<TRIPOS>ATOM
     1 C1       3.0196  -0.5573  10.3768   C.3       1 RES1   0.0000
     2 C2       4.1325  -1.1027   9.5135   C.3       1 RES1   0.0000
     3 C3       4.8861  -0.0003   8.7918   C.3       1 RES1   0.0000
     4 N4       5.4767   0.9131   9.7391   N.am      1 RES1   0.0000
     5 C5       5.4188   2.2639   9.5228   C.2       1 RES1   0.0000
     6 O6       4.8879   2.7908   8.5559   O.2       1 RES1   0.0000
     7 C7       6.0494   3.0504  10.5509   C.2       1 RES1   0.0000
     8 C8       7.1499   2.6735  11.3597   C.2       1 RES1   0.0000
     9 N9       7.4980   3.6305  12.2217   N.2       1 RES1   0.0000
    10 N10      6.6173   4.6080  11.9628   N.pl3     1 RES1   0.0000
    11 C11      6.6914   5.7705  12.6854   C.2       1 RES1   0.0000
    12 C12      5.6591   6.6835  12.1756   C.2       1 RES1   0.0000
    13 C13      5.5861   8.0229  12.8042   C.3       1 RES1   0.0000
    14 C14      4.7976   6.3583  11.2048   C.2       1 RES1   0.0000
    15 N15      4.7809   5.2137  10.5935   N.2       1 RES1   0.0000
    16 C16      5.7231   4.3218  10.9703   C.2       1 RES1   0.0000
    17 C17      5.9194  -0.6385   7.9190   C.2       1 RES1   0.0000
    18 C18      5.5584  -1.1609   6.6944   C.2       1 RES1   0.0000
    19 C19      6.5004  -1.7579   5.8869   C.2       1 RES1   0.0000
    20 C20      7.8110  -1.8227   6.3123   C.2       1 RES1   0.0000
    21 O21      8.7570  -2.4303   5.5070   O.3       1 RES1   0.0000
    22 C22      9.3280  -1.4743   4.6176   C.3       1 RES1   0.0000
    23 F23      9.9441  -0.4432   5.2548   F         1 RES1   0.0000
    24 F24      8.4048  -0.9591   3.7708   F         1 RES1   0.0000
    25 F25     10.2562  -2.1393   3.8875   F         1 RES1   0.0000
    26 C26      8.1862  -1.3113   7.5345   C.2       1 RES1   0.0000
    27 C27      7.2332  -0.7184   8.3311   C.2       1 RES1   0.0000
@<TRIPOS>BOND
     1     1     2    1
     2     3     2    1
     3     3     4    1
     4     4     5   am
     5     5     6    2
     6     5     7    1
     7     7     8    1
     8     8     9    2
     9     9    10    1
    10    10    11    1
    11    11    12    2
    12    12    13    1
    13    12    14    1
    14    14    15    2
    15    15    16    1
    16     3    17    1
    17    17    18    2
    18    18    19    1
    19    19    20    2
    20    20    21    1
    21    21    22    1
    22    22    23    1
    23    22    24    1
    24    22    25    1
    25    20    26    1
    26    26    27    2
    27    16     7    2
    28    27    17    1
    29    16    10    1
@<TRIPOS>SUBSTRUCTURE
     1 RES1        1 GROUP             0 ****  ****    0  
@<TRIPOS>MOLECULE
ligand_30
    27    29     1     0     0
SMALL
NO_CHARGES
****
Generated from the CSD

@<TRIPOS>ATOM
     1 C1       4.0262   2.2508   9.4986   C.3       1 RES1   0.0000
     2 C2       4.9943   1.5032   8.6125   C.3       1 RES1   0.0000
     3 C3       4.8861  -0.0003   8.7918   C.3       1 RES1   0.0000
     4 N4       3.5565  -0.4545   8.4656   N.am      1 RES1   0.0000
     5 C5       2.9307  -1.3805   9.2567   C.2       1 RES1   0.0000
     6 O6       3.4181  -1.8804  10.2601   O.2       1 RES1   0.0000
     7 C7       1.6098  -1.7381   8.8089   C.2       1 RES1   0.0000
     8 C8       1.1350  -1.7500   7.4741   C.2       1 RES1   0.0000
     9 N9      -0.1412  -2.1303   7.3922   N.2       1 RES1   0.0000
    10 N10     -0.4746  -2.3533   8.6717   N.pl3     1 RES1   0.0000
    11 C11     -1.7488  -2.7703   8.9579   C.2       1 RES1   0.0000
    12 C12     -1.8356  -2.9879  10.4085   C.2       1 RES1   0.0000
    13 C13     -3.1328  -3.4760  10.9316   C.3       1 RES1   0.0000
    14 C14     -0.8244  -2.7557  11.2535   C.2       1 RES1   0.0000
    15 N15      0.3471  -2.3286  10.8940   N.2       1 RES1   0.0000
    16 C16      0.5323  -2.1373   9.5695   C.2       1 RES1   0.0000
    17 C17      5.9204  -0.6468   7.9264   C.2       1 RES1   0.0000
    18 C18      5.5630  -1.1710   6.7015   C.2       1 RES1   0.0000
    19 C19      6.5059  -1.7755   5.9008   C.2       1 RES1   0.0000
    20 C20      7.8139  -1.8463   6.3333   C.2       1 RES1   0.0000
    21 O21      8.7608  -2.4616   5.5348   O.3       1 RES1   0.0000
    22 C22      9.3417  -1.5114   4.6456   C.3       1 RES1   0.0000
    23 F23      9.9601  -0.4818   5.2829   F         1 RES1   0.0000
    24 F24      8.4258  -0.9938   3.7924   F         1 RES1   0.0000
    25 F25     10.2700  -2.1838   3.9224   F         1 RES1   0.0000
    26 C26      8.1855  -1.3333   7.5559   C.2       1 RES1   0.0000
    27 C27      7.2316  -0.7327   8.3457   C.2       1 RES1   0.0000
@<TRIPOS>BOND
     1     1     2    1
     2     3     2    1
     3     3     4    1
     4     4     5   am
     5     5     6    2
     6     5     7    1
     7     7     8    1
     8     8     9    2
     9     9    10    1
    10    10    11    1
    11    11    12    2
    12    12    13    1
    13    12    14    1
    14    14    15    2
    15    15    16    1
    16     3    17    1
    17    17    18    2
    18    18    19    1
    19    19    20    2
    20    20    21    1
    21    21    22    1
    22    22    23    1
    23    22    24    1
    24    22    25    1
    25    20    26    1
    26    26    27    2
    27    16     7    2
    28    27    17    1
    29    16    10    1
@<TRIPOS>SUBSTRUCTURE
     1 RES1        1 GROUP             0 ****  ****    0  
@<TRIPOS>MOLECULE
ligand_31
    27    29     1     0     0
SMALL
NO_CHARGES
****
Generated from the CSD

@<TRIPOS>ATOM
     1 C1       3.6577  -0.4105  10.9433   C.3       1 RES1   0.0000
     2 C2       4.7189  -0.9129   9.9932   C.3       1 RES1   0.0000
     3 C3       4.8861  -0.0003   8.7918   C.3       1 RES1   0.0000
     4 N4       5.2861   1.3205   9.2113   N.am      1 RES1   0.0000
     5 C5       4.3409   2.2665   9.5055   C.2       1 RES1   0.0000
     6 O6       3.1337   2.0893   9.4312   O.2       1 RES1   0.0000
     7 C7       4.8870   3.5313   9.9242   C.2       1 RES1   0.0000
     8 C8       4.1647   4.6947  10.2875   C.2       1 RES1   0.0000
     9 N9       4.9669   5.7049  10.6284   N.2       1 RES1   0.0000
    10 N10      6.1931   5.1839  10.4762   N.pl3     1 RES1   0.0000
    11 C11      7.2820   5.9702  10.7505   C.2       1 RES1   0.0000
    12 C12      8.4875   5.1531  10.5549   C.2       1 RES1   0.0000
    13 C13      9.7873   5.8079  10.8310   C.3       1 RES1   0.0000
    14 C14      8.4603   3.8828  10.1353   C.2       1 RES1   0.0000
    15 N15      7.3755   3.2228   9.8678   N.2       1 RES1   0.0000
    16 C16      6.2125   3.8837  10.0574   C.2       1 RES1   0.0000
    17 C17      5.8925  -0.6191   7.8749   C.2       1 RES1   0.0000
    18 C18      5.4908  -1.1370   6.6611   C.2       1 RES1   0.0000
    19 C19      6.4081  -1.7163   5.8132   C.2       1 RES1   0.0000
    20 C20      7.7348  -1.7680   6.1872   C.2       1 RES1   0.0000
    21 O21      8.6564  -2.3578   5.3413   O.3       1 RES1   0.0000
    22 C22      9.1809  -1.3883   4.4380   C.3       1 RES1   0.0000
    23 F23      9.8086  -0.3543   5.0590   F         1 RES1   0.0000
    24 F24      8.2194  -0.8785   3.6315   F         1 RES1   0.0000
    25 F25     10.0882  -2.0364   3.6675   F         1 RES1   0.0000
    26 C26      8.1508  -1.2609   7.3980   C.2       1 RES1   0.0000
    27 C27      7.2222  -0.6858   8.2353   C.2       1 RES1   0.0000
@<TRIPOS>BOND
     1     1     2    1
     2     3     2    1
     3     3     4    1
     4     4     5   am
     5     5     6    2
     6     5     7    1
     7     7     8    1
     8     8     9    2
     9     9    10    1
    10    10    11    1
    11    11    12    2
    12    12    13    1
    13    12    14    1
    14    14    15    2
    15    15    16    1
    16     3    17    1
    17    17    18    2
    18    18    19    1
    19    19    20    2
    20    20    21    1
    21    21    22    1
    22    22    23    1
    23    22    24    1
    24    22    25    1
    25    20    26    1
    26    26    27    2
    27    16     7    2
    28    27    17    1
    29    16    10    1
@<TRIPOS>SUBSTRUCTURE
     1 RES1        1 GROUP             0 ****  ****    0  
@<TRIPOS>MOLECULE
ligand_32
    27    29     1     0     0
SMALL
NO_CHARGES
****
Generated from the CSD

@<TRIPOS>ATOM
     1 C1       3.4556   2.0621   8.8753   C.3       1 RES1   0.0000
     2 C2       4.4702   1.2746   8.0805   C.3       1 RES1   0.0000
     3 C3       4.8861  -0.0003   8.7918   C.3       1 RES1   0.0000
     4 N4       3.7471  -0.8619   8.9935   N.am      1 RES1   0.0000
     5 C5       2.9908  -0.7506  10.1295   C.2       1 RES1   0.0000
     6 O6       3.2092   0.0410  11.0350   O.2       1 RES1   0.0000
     7 C7       1.8792  -1.6641  10.1862   C.2       1 RES1   0.0000
     8 C8       0.9284  -1.7879  11.2293   C.2       1 RES1   0.0000
     9 N9       0.0192  -2.7316  10.9785   N.2       1 RES1   0.0000
    10 N10      0.3964  -3.2070   9.7827   N.pl3     1 RES1   0.0000
    11 C11     -0.3391  -4.2129   9.2113   C.2       1 RES1   0.0000
    12 C12      0.2499  -4.5107   7.8985   C.2       1 RES1   0.0000
    13 C13     -0.4184  -5.5579   7.0915   C.3       1 RES1   0.0000
    14 C14      1.3425  -3.9024   7.4224   C.2       1 RES1   0.0000
    15 N15      1.9974  -2.9753   8.0514   N.2       1 RES1   0.0000
    16 C16      1.5042  -2.6071   9.2540   C.2       1 RES1   0.0000
    17 C17      5.9456  -0.6651   7.9720   C.2       1 RES1   0.0000
    18 C18      5.6201  -1.2363   6.7593   C.2       1 RES1   0.0000
    19 C19      6.5865  -1.8580   6.0006   C.2       1 RES1   0.0000
    20 C20      7.8855  -1.8984   6.4628   C.2       1 RES1   0.0000
    21 O21      8.8559  -2.5306   5.7068   O.3       1 RES1   0.0000
    22 C22      9.4455  -1.6059   4.7967   C.3       1 RES1   0.0000
    23 F23     10.0391  -0.5473   5.4098   F         1 RES1   0.0000
    24 F24      8.5426  -1.1293   3.9065   F         1 RES1   0.0000
    25 F25     10.3963  -2.2927   4.1177   F         1 RES1   0.0000
    26 C26      8.2253  -1.3382   7.6739   C.2       1 RES1   0.0000
    27 C27      7.2483  -0.7211   8.4215   C.2       1 RES1   0.0000
@<TRIPOS>BOND
     1     1     2    1
     2     3     2    1
     3     3     4    1
     4     4     5   am
     5     5     6    2
     6     5     7    1
     7     7     8    1
     8     8     9    2
     9     9    10    1
    10    10    11    1
    11    11    12    2
    12    12    13    1
    13    12    14    1
    14    14    15    2
    15    15    16    1
    16     3    17    1
    17    17    18    2
    18    18    19    1
    19    19    20    2
    20    20    21    1
    21    21    22    1
    22    22    23    1
    23    22    24    1
    24    22    25    1
    25    20    26    1
    26    26    27    2
    27    16     7    2
    28    27    17    1
    29    16    10    1
@<TRIPOS>SUBSTRUCTURE
     1 RES1        1 GROUP             0 ****  ****    0  
@<TRIPOS>MOLECULE
ligand_33
    27    29     1     0     0
SMALL
NO_CHARGES
****
Generated from the CSD

@<TRIPOS>ATOM
     1 C1       4.0743  -2.2328   9.6060   C.3       1 RES1   0.0000
     2 C2       4.6565  -0.8950   9.9963   C.3       1 RES1   0.0000
     3 C3       4.8861  -0.0003   8.7918   C.3       1 RES1   0.0000
     4 N4       5.2861   1.3205   9.2113   N.am      1 RES1   0.0000
     5 C5       4.4766   2.3970   8.9650   C.2       1 RES1   0.0000
     6 O6       3.3957   2.3383   8.3971   O.2       1 RES1   0.0000
     7 C7       5.0056   3.6496   9.4388   C.2       1 RES1   0.0000
     8 C8       4.9678   4.8991   8.7720   C.2       1 RES1   0.0000
     9 N9       5.5471   5.8704   9.4799   N.2       1 RES1   0.0000
    10 N10      5.9549   5.2364  10.5889   N.pl3     1 RES1   0.0000
    11 C11      6.6043   5.9558  11.5585   C.2       1 RES1   0.0000
    12 C12      6.8941   5.0460  12.6753   C.2       1 RES1   0.0000
    13 C13      7.5722   5.6341  13.8538   C.3       1 RES1   0.0000
    14 C14      6.5924   3.7425  12.6653   C.2       1 RES1   0.0000
    15 N15      6.0001   3.1352  11.6832   N.2       1 RES1   0.0000
    16 C16      5.6589   3.9031  10.6253   C.2       1 RES1   0.0000
    17 C17      5.9215  -0.6440   7.9256   C.2       1 RES1   0.0000
    18 C18      5.5638  -1.1723   6.7026   C.2       1 RES1   0.0000
    19 C19      6.5078  -1.7744   5.9011   C.2       1 RES1   0.0000
    20 C20      7.8169  -1.8385   6.3311   C.2       1 RES1   0.0000
    21 O21      8.7649  -2.4512   5.5319   O.3       1 RES1   0.0000
    22 C22      9.3398  -1.5004   4.6395   C.3       1 RES1   0.0000
    23 F23      9.9550  -0.4667   5.2735   F         1 RES1   0.0000
    24 F24      8.4199  -0.9885   3.7871   F         1 RES1   0.0000
    25 F25     10.2696  -2.1701   3.9159   F         1 RES1   0.0000
    26 C26      8.1888  -1.3213   7.5518   C.2       1 RES1   0.0000
    27 C27      7.2339  -0.7233   8.3423   C.2       1 RES1   0.0000
@<TRIPOS>BOND
     1     1     2    1
     2     3     2    1
     3     3     4    1
     4     4     5   am
     5     5     6    2
     6     5     7    1
     7     7     8    1
     8     8     9    2
     9     9    10    1
    10    10    11    1
    11    11    12    2
    12    12    13    1
    13    12    14    1
    14    14    15    2
    15    15    16    1
    16     3    17    1
    17    17    18    2
    18    18    19    1
    19    19    20    2
    20    20    21    1
    21    21    22    1
    22    22    23    1
    23    22    24    1
    24    22    25    1
    25    20    26    1
    26    26    27    2
    27    16     7    2
    28    27    17    1
    29    16    10    1
@<TRIPOS>SUBSTRUCTURE
     1 RES1        1 GROUP             0 ****  ****    0  
@<TRIPOS>MOLECULE
ligand_34
    27    29     1     0     0
SMALL
NO_CHARGES
****
Generated from the CSD

@<TRIPOS>ATOM
     1 C1       5.5937   2.2970   8.0651   C.3       1 RES1   0.0000
     2 C2       4.4598   1.3019   8.1385   C.3       1 RES1   0.0000
     3 C3       4.8861  -0.0003   8.7918   C.3       1 RES1   0.0000
     4 N4       3.7471  -0.8619   8.9935   N.am      1 RES1   0.0000
     5 C5       3.3415  -1.1834  10.2612   C.2       1 RES1   0.0000
     6 O6       3.8805  -0.7880  11.2846   O.2       1 RES1   0.0000
     7 C7       2.1936  -2.0515  10.3076   C.2       1 RES1   0.0000
     8 C8       1.9890  -3.1503  11.1782   C.2       1 RES1   0.0000
     9 N9       0.8179  -3.7539  10.9678   N.2       1 RES1   0.0000
    10 N10      0.2853  -3.0424   9.9636   N.pl3     1 RES1   0.0000
    11 C11     -0.9496  -3.3980   9.4863   C.2       1 RES1   0.0000
    12 C12     -1.3194  -2.4385   8.4367   C.2       1 RES1   0.0000
    13 C13     -2.6454  -2.6240   7.8028   C.3       1 RES1   0.0000
    14 C14     -0.5239  -1.4417   8.0317   C.2       1 RES1   0.0000
    15 N15      0.6519  -1.1971   8.5232   N.2       1 RES1   0.0000
    16 C16      1.0609  -2.0071   9.5241   C.2       1 RES1   0.0000
    17 C17      5.9183  -0.6412   7.9198   C.2       1 RES1   0.0000
    18 C18      5.5561  -1.1663   6.6967   C.2       1 RES1   0.0000
    19 C19      6.4971  -1.7658   5.8900   C.2       1 RES1   0.0000
    20 C20      7.8080  -1.8306   6.3146   C.2       1 RES1   0.0000
    21 O21      8.7531  -2.4407   5.5101   O.3       1 RES1   0.0000
    22 C22      9.3242  -1.4872   4.6181   C.3       1 RES1   0.0000
    23 F23      9.9414  -0.4550   5.2525   F         1 RES1   0.0000
    24 F24      8.4007  -0.9733   3.7707   F         1 RES1   0.0000
    25 F25     10.2514  -2.1546   3.8890   F         1 RES1   0.0000
    26 C26      8.1844  -1.3165   7.5353   C.2       1 RES1   0.0000
    27 C27      7.2324  -0.7211   8.3311   C.2       1 RES1   0.0000
@<TRIPOS>BOND
     1     1     2    1
     2     3     2    1
     3     3     4    1
     4     4     5   am
     5     5     6    2
     6     5     7    1
     7     7     8    1
     8     8     9    2
     9     9    10    1
    10    10    11    1
    11    11    12    2
    12    12    13    1
    13    12    14    1
    14    14    15    2
    15    15    16    1
    16     3    17    1
    17    17    18    2
    18    18    19    1
    19    19    20    2
    20    20    21    1
    21    21    22    1
    22    22    23    1
    23    22    24    1
    24    22    25    1
    25    20    26    1
    26    26    27    2
    27    16     7    2
    28    27    17    1
    29    16    10    1
@<TRIPOS>SUBSTRUCTURE
     1 RES1        1 GROUP             0 ****  ****    0  
@<TRIPOS>MOLECULE
ligand_35
    27    29     1     0     0
SMALL
NO_CHARGES
****
Generated from the CSD

@<TRIPOS>ATOM
     1 C1       4.0698  -2.1153   9.6307   C.3       1 RES1   0.0000
     2 C2       4.6854  -0.7854   9.9964   C.3       1 RES1   0.0000
     3 C3       4.9280   0.0847   8.7765   C.3       1 RES1   0.0000
     4 N4       5.3613   1.4022   9.1726   N.am      1 RES1   0.0000
     5 C5       4.5754   2.4933   8.9142   C.2       1 RES1   0.0000
     6 O6       3.4899   2.4509   8.3537   O.2       1 RES1   0.0000
     7 C7       5.1364   3.7405   9.3649   C.2       1 RES1   0.0000
     8 C8       4.4481   4.8102   9.9888   C.2       1 RES1   0.0000
     9 N9       5.2561   5.8294  10.2862   N.2       1 RES1   0.0000
    10 N10      6.4511   5.4081   9.8472   N.pl3     1 RES1   0.0000
    11 C11      7.5370   6.2308   9.9999   C.2       1 RES1   0.0000
    12 C12      8.7161   5.5187   9.4884   C.2       1 RES1   0.0000
    13 C13     10.0148   6.2245   9.5882   C.3       1 RES1   0.0000
    14 C14      8.6637   4.3000   8.9384   C.2       1 RES1   0.0000
    15 N15      7.5776   3.6023   8.8060   N.2       1 RES1   0.0000
    16 C16      6.4458   4.1626   9.2857   C.2       1 RES1   0.0000
    17 C17      5.9426  -0.5965   7.9144   C.2       1 RES1   0.0000
    18 C18      7.2539  -0.6845   8.3335   C.2       1 RES1   0.0000
    19 C19      8.1975  -1.3024   7.5436   C.2       1 RES1   0.0000
    20 C20      7.8168  -1.8384   6.3310   C.2       1 RES1   0.0000
    21 O21      8.7648  -2.4511   5.5318   O.3       1 RES1   0.0000
    22 C22      9.3419  -1.4996   4.6416   C.3       1 RES1   0.0000
    23 F23      9.9561  -0.4668   5.2778   F         1 RES1   0.0000
    24 F24      8.4239  -0.9866   3.7877   F         1 RES1   0.0000
    25 F25     10.2730  -2.1690   3.9192   F         1 RES1   0.0000
    26 C26      6.5131  -1.7536   5.8958   C.2       1 RES1   0.0000
    27 C27      5.5814  -1.1322   6.6958   C.2       1 RES1   0.0000
@<TRIPOS>BOND
     1     1     2    1
     2     3     2    1
     3     3     4    1
     4     4     5   am
     5     5     6    2
     6     5     7    1
     7     7     8    1
     8     8     9    2
     9     9    10    1
    10    10    11    1
    11    11    12    2
    12    12    13    1
    13    12    14    1
    14    14    15    2
    15    15    16    1
    16     3    17    1
    17    17    18    2
    18    18    19    1
    19    19    20    2
    20    20    21    1
    21    21    22    1
    22    22    23    1
    23    22    24    1
    24    22    25    1
    25    20    26    1
    26    26    27    2
    27    16     7    2
    28    27    17    1
    29    16    10    1
@<TRIPOS>SUBSTRUCTURE
     1 RES1        1 GROUP             0 ****  ****    0  
@<TRIPOS>MOLECULE
ligand_36
    27    29     1     0     0
SMALL
NO_CHARGES
****
Generated from the CSD

@<TRIPOS>ATOM
     1 C1       3.4590   2.0575   8.9795   C.3       1 RES1   0.0000
     2 C2       4.4599   1.3017   8.1380   C.3       1 RES1   0.0000
     3 C3       4.8861  -0.0003   8.7918   C.3       1 RES1   0.0000
     4 N4       3.7471  -0.8619   8.9935   N.am      1 RES1   0.0000
     5 C5       3.3415  -1.1834  10.2612   C.2       1 RES1   0.0000
     6 O6       3.8806  -0.7881  11.2846   O.2       1 RES1   0.0000
     7 C7       2.1935  -2.0513  10.3076   C.2       1 RES1   0.0000
     8 C8       1.0946  -1.9664  11.1978   C.2       1 RES1   0.0000
     9 N9       0.1906  -2.9235  10.9816   N.2       1 RES1   0.0000
    10 N10      0.7183  -3.6152   9.9611   N.pl3     1 RES1   0.0000
    11 C11      0.0304  -4.6949   9.4710   C.2       1 RES1   0.0000
    12 C12      0.7926  -5.2370   8.3378   C.2       1 RES1   0.0000
    13 C13      0.2041  -6.4015   7.6362   C.3       1 RES1   0.0000
    14 C14      1.9699  -4.7451   7.9348   C.2       1 RES1   0.0000
    15 N15      2.5661  -3.7309   8.4825   N.2       1 RES1   0.0000
    16 C16      1.9179  -3.1413   9.5108   C.2       1 RES1   0.0000
    17 C17      5.9186  -0.6414   7.9203   C.2       1 RES1   0.0000
    18 C18      5.5567  -1.1669   6.6972   C.2       1 RES1   0.0000
    19 C19      6.4979  -1.7666   5.8909   C.2       1 RES1   0.0000
    20 C20      7.8087  -1.8312   6.3159   C.2       1 RES1   0.0000
    21 O21      8.7540  -2.4415   5.5118   O.3       1 RES1   0.0000
    22 C22      9.3255  -1.4882   4.6198   C.3       1 RES1   0.0000
    23 F23      9.9424  -0.4559   5.2543   F         1 RES1   0.0000
    24 F24      8.4024  -0.9745   3.7719   F         1 RES1   0.0000
    25 F25     10.2531  -2.1557   3.8913   F         1 RES1   0.0000
    26 C26      8.1848  -1.3167   7.5365   C.2       1 RES1   0.0000
    27 C27      7.2325  -0.7211   8.3319   C.2       1 RES1   0.0000
@<TRIPOS>BOND
     1     1     2    1
     2     3     2    1
     3     3     4    1
     4     4     5   am
     5     5     6    2
     6     5     7    1
     7     7     8    1
     8     8     9    2
     9     9    10    1
    10    10    11    1
    11    11    12    2
    12    12    13    1
    13    12    14    1
    14    14    15    2
    15    15    16    1
    16     3    17    1
    17    17    18    2
    18    18    19    1
    19    19    20    2
    20    20    21    1
    21    21    22    1
    22    22    23    1
    23    22    24    1
    24    22    25    1
    25    20    26    1
    26    26    27    2
    27    16     7    2
    28    27    17    1
    29    16    10    1
@<TRIPOS>SUBSTRUCTURE
     1 RES1        1 GROUP             0 ****  ****    0  
@<TRIPOS>MOLECULE
ligand_37
    27    29     1     0     0
SMALL
NO_CHARGES
****
Generated from the CSD

@<TRIPOS>ATOM
     1 C1       3.6585  -0.4109  10.9437   C.3       1 RES1   0.0000
     2 C2       4.7194  -0.9130   9.9931   C.3       1 RES1   0.0000
     3 C3       4.8861  -0.0003   8.7918   C.3       1 RES1   0.0000
     4 N4       5.2861   1.3205   9.2113   N.am      1 RES1   0.0000
     5 C5       4.3409   2.2665   9.5055   C.2       1 RES1   0.0000
     6 O6       3.1337   2.0886   9.4332   O.2       1 RES1   0.0000
     7 C7       4.8870   3.5321   9.9215   C.2       1 RES1   0.0000
     8 C8       6.1231   4.1001   9.5256   C.2       1 RES1   0.0000
     9 N9       6.3400   5.2891  10.0906   N.2       1 RES1   0.0000
    10 N10      5.2469   5.4707  10.8459   N.pl3     1 RES1   0.0000
    11 C11      5.1372   6.6228  11.5806   C.2       1 RES1   0.0000
    12 C12      3.8395   6.5952  12.2693   C.2       1 RES1   0.0000
    13 C13      3.5031   7.7732  13.1022   C.3       1 RES1   0.0000
    14 C14      2.9807   5.5723  12.1888   C.2       1 RES1   0.0000
    15 N15      3.1833   4.4992  11.4877   N.2       1 RES1   0.0000
    16 C16      4.3372   4.4531  10.7866   C.2       1 RES1   0.0000
    17 C17      5.8923  -0.6189   7.8745   C.2       1 RES1   0.0000
    18 C18      5.4902  -1.1367   6.6607   C.2       1 RES1   0.0000
    19 C19      6.4073  -1.7158   5.8125   C.2       1 RES1   0.0000
    20 C20      7.7341  -1.7674   6.1860   C.2       1 RES1   0.0000
    21 O21      8.6554  -2.3571   5.3397   O.3       1 RES1   0.0000
    22 C22      9.1795  -1.3874   4.4364   C.3       1 RES1   0.0000
    23 F23      9.8073  -0.3533   5.0573   F         1 RES1   0.0000
    24 F24      8.2177  -0.8775   3.6303   F         1 RES1   0.0000
    25 F25     10.0866  -2.0353   3.6655   F         1 RES1   0.0000
    26 C26      8.1505  -1.2604   7.3967   C.2       1 RES1   0.0000
    27 C27      7.2220  -0.6854   8.2344   C.2       1 RES1   0.0000
@<TRIPOS>BOND
     1     1     2    1
     2     3     2    1
     3     3     4    1
     4     4     5   am
     5     5     6    2
     6     5     7    1
     7     7     8    1
     8     8     9    2
     9     9    10    1
    10    10    11    1
    11    11    12    2
    12    12    13    1
    13    12    14    1
    14    14    15    2
    15    15    16    1
    16     3    17    1
    17    17    18    2
    18    18    19    1
    19    19    20    2
    20    20    21    1
    21    21    22    1
    22    22    23    1
    23    22    24    1
    24    22    25    1
    25    20    26    1
    26    26    27    2
    27    16     7    2
    28    27    17    1
    29    16    10    1
@<TRIPOS>SUBSTRUCTURE
     1 RES1        1 GROUP             0 ****  ****    0  
@<TRIPOS>MOLECULE
ligand_38
    27    29     1     0     0
SMALL
NO_CHARGES
****
Generated from the CSD

@<TRIPOS>ATOM
     1 C1       3.4555   2.0620   8.8743   C.3       1 RES1   0.0000
     2 C2       4.4703   1.2744   8.0800   C.3       1 RES1   0.0000
     3 C3       4.8861  -0.0003   8.7918   C.3       1 RES1   0.0000
     4 N4       3.7471  -0.8619   8.9935   N.am      1 RES1   0.0000
     5 C5       2.9908  -0.7506  10.1295   C.2       1 RES1   0.0000
     6 O6       3.2080   0.0424  11.0341   O.2       1 RES1   0.0000
     7 C7       1.8808  -1.6659  10.1875   C.2       1 RES1   0.0000
     8 C8       1.8069  -2.9560   9.6066   C.2       1 RES1   0.0000
     9 N9       0.6373  -3.5531   9.8424   N.2       1 RES1   0.0000
    10 N10     -0.0289  -2.6415  10.5659   N.pl3     1 RES1   0.0000
    11 C11     -1.2985  -2.9367  10.9906   C.2       1 RES1   0.0000
    12 C12     -1.7779  -1.8049  11.7958   C.2       1 RES1   0.0000
    13 C13     -3.1316  -1.9326  12.3837   C.3       1 RES1   0.0000
    14 C14     -1.0678  -0.6896  12.0013   C.2       1 RES1   0.0000
    15 N15      0.1238  -0.4827  11.5305   N.2       1 RES1   0.0000
    16 C16      0.6632  -1.4888  10.8081   C.2       1 RES1   0.0000
    17 C17      5.9458  -0.6653   7.9724   C.2       1 RES1   0.0000
    18 C18      5.6207  -1.2369   6.7598   C.2       1 RES1   0.0000
    19 C19      6.5872  -1.8587   6.0015   C.2       1 RES1   0.0000
    20 C20      7.8862  -1.8990   6.4640   C.2       1 RES1   0.0000
    21 O21      8.8567  -2.5313   5.7085   O.3       1 RES1   0.0000
    22 C22      9.4465  -1.6069   4.7983   C.3       1 RES1   0.0000
    23 F23     10.0399  -0.5480   5.4112   F         1 RES1   0.0000
    24 F24      8.5438  -1.1306   3.9077   F         1 RES1   0.0000
    25 F25     10.3975  -2.2938   4.1196   F         1 RES1   0.0000
    26 C26      8.2257  -1.3383   7.6750   C.2       1 RES1   0.0000
    27 C27      7.2484  -0.7210   8.4222   C.2       1 RES1   0.0000
@<TRIPOS>BOND
     1     1     2    1
     2     3     2    1
     3     3     4    1
     4     4     5   am
     5     5     6    2
     6     5     7    1
     7     7     8    1
     8     8     9    2
     9     9    10    1
    10    10    11    1
    11    11    12    2
    12    12    13    1
    13    12    14    1
    14    14    15    2
    15    15    16    1
    16     3    17    1
    17    17    18    2
    18    18    19    1
    19    19    20    2
    20    20    21    1
    21    21    22    1
    22    22    23    1
    23    22    24    1
    24    22    25    1
    25    20    26    1
    26    26    27    2
    27    16     7    2
    28    27    17    1
    29    16    10    1
@<TRIPOS>SUBSTRUCTURE
     1 RES1        1 GROUP             0 ****  ****    0  
@<TRIPOS>MOLECULE
ligand_39
    27    29     1     0     0
SMALL
NO_CHARGES
****
Generated from the CSD

@<TRIPOS>ATOM
     1 C1       4.0779  -2.2340   9.6063   C.3       1 RES1   0.0000
     2 C2       4.6600  -0.8960   9.9962   C.3       1 RES1   0.0000
     3 C3       4.8861  -0.0003   8.7918   C.3       1 RES1   0.0000
     4 N4       5.2861   1.3205   9.2113   N.am      1 RES1   0.0000
     5 C5       5.3249   2.3488   8.3079   C.2       1 RES1   0.0000
     6 O6       5.0395   2.2447   7.1238   O.2       1 RES1   0.0000
     7 C7       5.7402   3.6079   8.8695   C.2       1 RES1   0.0000
     8 C8       5.5369   4.0591  10.1970   C.2       1 RES1   0.0000
     9 N9       6.0435   5.2760  10.4031   N.2       1 RES1   0.0000
    10 N10      6.5611   5.5962   9.2083   N.pl3     1 RES1   0.0000
    11 C11      7.1781   6.8115   9.0614   C.2       1 RES1   0.0000
    12 C12      7.6956   6.8901   7.6884   C.2       1 RES1   0.0000
    13 C13      8.4327   8.1225   7.3246   C.3       1 RES1   0.0000
    14 C14      7.5204   5.9278   6.7753   C.2       1 RES1   0.0000
    15 N15      6.8910   4.8146   6.9959   N.2       1 RES1   0.0000
    16 C16      6.4129   4.6369   8.2468   C.2       1 RES1   0.0000
    17 C17      5.9199  -0.6426   7.9227   C.2       1 RES1   0.0000
    18 C18      5.5597  -1.1703   6.7001   C.2       1 RES1   0.0000
    19 C19      6.5023  -1.7711   5.8961   C.2       1 RES1   0.0000
    20 C20      7.8125  -1.8346   6.3228   C.2       1 RES1   0.0000
    21 O21      8.7590  -2.4460   5.5210   O.3       1 RES1   0.0000
    22 C22      9.3312  -1.4941   4.6280   C.3       1 RES1   0.0000
    23 F23      9.9470  -0.4604   5.2613   F         1 RES1   0.0000
    24 F24      8.4089  -0.9822   3.7781   F         1 RES1   0.0000
    25 F25     10.2598  -2.1626   3.9017   F         1 RES1   0.0000
    26 C26      8.1868  -1.3179   7.5431   C.2       1 RES1   0.0000
    27 C27      7.2333  -0.7212   8.3362   C.2       1 RES1   0.0000
@<TRIPOS>BOND
     1     1     2    1
     2     3     2    1
     3     3     4    1
     4     4     5   am
     5     5     6    2
     6     5     7    1
     7     7     8    1
     8     8     9    2
     9     9    10    1
    10    10    11    1
    11    11    12    2
    12    12    13    1
    13    12    14    1
    14    14    15    2
    15    15    16    1
    16     3    17    1
    17    17    18    2
    18    18    19    1
    19    19    20    2
    20    20    21    1
    21    21    22    1
    22    22    23    1
    23    22    24    1
    24    22    25    1
    25    20    26    1
    26    26    27    2
    27    16     7    2
    28    27    17    1
    29    16    10    1
@<TRIPOS>SUBSTRUCTURE
     1 RES1        1 GROUP             0 ****  ****    0  
@<TRIPOS>MOLECULE
ligand_40
    27    29     1     0     0
SMALL
NO_CHARGES
****
Generated from the CSD

@<TRIPOS>ATOM
     1 C1       5.5940   2.2958   8.0616   C.3       1 RES1   0.0000
     2 C2       4.4604   1.3004   8.1352   C.3       1 RES1   0.0000
     3 C3       4.8861  -0.0003   8.7918   C.3       1 RES1   0.0000
     4 N4       3.7471  -0.8619   8.9935   N.am      1 RES1   0.0000
     5 C5       3.8605  -1.9847   9.7689   C.2       1 RES1   0.0000
     6 O6       4.8862  -2.3406  10.3307   O.2       1 RES1   0.0000
     7 C7       2.6432  -2.7455   9.8815   C.2       1 RES1   0.0000
     8 C8       1.3178  -2.2469   9.8390   C.2       1 RES1   0.0000
     9 N9       0.4071  -3.2127   9.9726   N.2       1 RES1   0.0000
    10 N10      1.1540  -4.3186  10.1044   N.pl3     1 RES1   0.0000
    11 C11      0.5230  -5.5252  10.2632   C.2       1 RES1   0.0000
    12 C12      1.5564  -6.5675  10.3324   C.2       1 RES1   0.0000
    13 C13      1.0841  -7.9644  10.4735   C.3       1 RES1   0.0000
    14 C14      2.8691  -6.3120  10.2893   C.2       1 RES1   0.0000
    15 N15      3.3809  -5.1256  10.1676   N.2       1 RES1   0.0000
    16 C16      2.5026  -4.1051  10.0569   C.2       1 RES1   0.0000
    17 C17      5.9199  -0.6426   7.9227   C.2       1 RES1   0.0000
    18 C18      5.5597  -1.1703   6.7001   C.2       1 RES1   0.0000
    19 C19      6.5023  -1.7711   5.8961   C.2       1 RES1   0.0000
    20 C20      7.8125  -1.8346   6.3228   C.2       1 RES1   0.0000
    21 O21      8.7590  -2.4460   5.5210   O.3       1 RES1   0.0000
    22 C22      9.3312  -1.4941   4.6280   C.3       1 RES1   0.0000
    23 F23      9.9470  -0.4604   5.2613   F         1 RES1   0.0000
    24 F24      8.4089  -0.9822   3.7781   F         1 RES1   0.0000
    25 F25     10.2598  -2.1626   3.9017   F         1 RES1   0.0000
    26 C26      8.1868  -1.3179   7.5431   C.2       1 RES1   0.0000
    27 C27      7.2333  -0.7212   8.3362   C.2       1 RES1   0.0000
@<TRIPOS>BOND
     1     1     2    1
     2     3     2    1
     3     3     4    1
     4     4     5   am
     5     5     6    2
     6     5     7    1
     7     7     8    1
     8     8     9    2
     9     9    10    1
    10    10    11    1
    11    11    12    2
    12    12    13    1
    13    12    14    1
    14    14    15    2
    15    15    16    1
    16     3    17    1
    17    17    18    2
    18    18    19    1
    19    19    20    2
    20    20    21    1
    21    21    22    1
    22    22    23    1
    23    22    24    1
    24    22    25    1
    25    20    26    1
    26    26    27    2
    27    16     7    2
    28    27    17    1
    29    16    10    1
@<TRIPOS>SUBSTRUCTURE
     1 RES1        1 GROUP             0 ****  ****    0  
@<TRIPOS>MOLECULE
ligand_41
    27    29     1     0     0
SMALL
NO_CHARGES
****
Generated from the CSD

@<TRIPOS>ATOM
     1 C1       3.5810  -0.3598  10.9069   C.3       1 RES1   0.0000
     2 C2       4.6600  -0.8960   9.9962   C.3       1 RES1   0.0000
     3 C3       4.8861  -0.0003   8.7918   C.3       1 RES1   0.0000
     4 N4       5.2861   1.3205   9.2113   N.am      1 RES1   0.0000
     5 C5       5.3249   2.3488   8.3079   C.2       1 RES1   0.0000
     6 O6       5.0368   2.2454   7.1244   O.2       1 RES1   0.0000
     7 C7       5.7438   3.6071   8.8687   C.2       1 RES1   0.0000
     8 C8       6.6268   3.8041   9.9589   C.2       1 RES1   0.0000
     9 N9       6.8125   5.0961  10.2351   N.2       1 RES1   0.0000
    10 N10      6.0453   5.7147   9.3258   N.pl3     1 RES1   0.0000
    11 C11      6.0016   7.0848   9.3226   C.2       1 RES1   0.0000
    12 C12      5.1390   7.5047   8.2097   C.2       1 RES1   0.0000
    13 C13      4.9788   8.9632   8.0056   C.3       1 RES1   0.0000
    14 C14      4.4991   6.6479   7.4054   C.2       1 RES1   0.0000
    15 N15      4.5751   5.3560   7.5026   N.2       1 RES1   0.0000
    16 C16      5.3797   4.8769   8.4764   C.2       1 RES1   0.0000
    17 C17      5.9199  -0.6426   7.9227   C.2       1 RES1   0.0000
    18 C18      5.5597  -1.1703   6.7001   C.2       1 RES1   0.0000
    19 C19      6.5023  -1.7711   5.8961   C.2       1 RES1   0.0000
    20 C20      7.8125  -1.8346   6.3228   C.2       1 RES1   0.0000
    21 O21      8.7590  -2.4460   5.5210   O.3       1 RES1   0.0000
    22 C22      9.3313  -1.4940   4.6281   C.3       1 RES1   0.0000
    23 F23      9.9471  -0.4604   5.2615   F         1 RES1   0.0000
    24 F24      8.4091  -0.9822   3.7782   F         1 RES1   0.0000
    25 F25     10.2600  -2.1626   3.9018   F         1 RES1   0.0000
    26 C26      8.1868  -1.3179   7.5431   C.2       1 RES1   0.0000
    27 C27      7.2333  -0.7212   8.3362   C.2       1 RES1   0.0000
@<TRIPOS>BOND
     1     1     2    1
     2     3     2    1
     3     3     4    1
     4     4     5   am
     5     5     6    2
     6     5     7    1
     7     7     8    1
     8     8     9    2
     9     9    10    1
    10    10    11    1
    11    11    12    2
    12    12    13    1
    13    12    14    1
    14    14    15    2
    15    15    16    1
    16     3    17    1
    17    17    18    2
    18    18    19    1
    19    19    20    2
    20    20    21    1
    21    21    22    1
    22    22    23    1
    23    22    24    1
    24    22    25    1
    25    20    26    1
    26    26    27    2
    27    16     7    2
    28    27    17    1
    29    16    10    1
@<TRIPOS>SUBSTRUCTURE
     1 RES1        1 GROUP             0 ****  ****    0  
@<TRIPOS>MOLECULE
ligand_42
    27    29     1     0     0
SMALL
NO_CHARGES
****
Generated from the CSD

@<TRIPOS>ATOM
     1 C1       3.4581   2.0574   8.9741   C.3       1 RES1   0.0000
     2 C2       4.4604   1.3004   8.1352   C.3       1 RES1   0.0000
     3 C3       4.8861  -0.0003   8.7918   C.3       1 RES1   0.0000
     4 N4       3.7471  -0.8619   8.9935   N.am      1 RES1   0.0000
     5 C5       3.8605  -1.9847   9.7689   C.2       1 RES1   0.0000
     6 O6       4.8854  -2.3391  10.3330   O.2       1 RES1   0.0000
     7 C7       2.6442  -2.7475   9.8785   C.2       1 RES1   0.0000
     8 C8       1.6122  -2.8520   8.9134   C.2       1 RES1   0.0000
     9 N9       0.6148  -3.6397   9.3195   N.2       1 RES1   0.0000
    10 N10      1.0120  -4.0283  10.5399   N.pl3     1 RES1   0.0000
    11 C11      0.2029  -4.8686  11.2599   C.2       1 RES1   0.0000
    12 C12      0.8859  -5.1769  12.5238   C.2       1 RES1   0.0000
    13 C13      0.1908  -6.1039  13.4469   C.3       1 RES1   0.0000
    14 C14      2.0691  -4.6577  12.8714   C.2       1 RES1   0.0000
    15 N15      2.7549  -3.8391  12.1339   N.2       1 RES1   0.0000
    16 C16      2.2214  -3.5284  10.9322   C.2       1 RES1   0.0000
    17 C17      5.9199  -0.6426   7.9227   C.2       1 RES1   0.0000
    18 C18      5.5597  -1.1703   6.7001   C.2       1 RES1   0.0000
    19 C19      6.5023  -1.7711   5.8961   C.2       1 RES1   0.0000
    20 C20      7.8125  -1.8346   6.3228   C.2       1 RES1   0.0000
    21 O21      8.7590  -2.4460   5.5210   O.3       1 RES1   0.0000
    22 C22      9.3313  -1.4940   4.6281   C.3       1 RES1   0.0000
    23 F23      9.9471  -0.4604   5.2615   F         1 RES1   0.0000
    24 F24      8.4091  -0.9822   3.7782   F         1 RES1   0.0000
    25 F25     10.2600  -2.1626   3.9018   F         1 RES1   0.0000
    26 C26      8.1868  -1.3179   7.5431   C.2       1 RES1   0.0000
    27 C27      7.2333  -0.7212   8.3362   C.2       1 RES1   0.0000
@<TRIPOS>BOND
     1     1     2    1
     2     3     2    1
     3     3     4    1
     4     4     5   am
     5     5     6    2
     6     5     7    1
     7     7     8    1
     8     8     9    2
     9     9    10    1
    10    10    11    1
    11    11    12    2
    12    12    13    1
    13    12    14    1
    14    14    15    2
    15    15    16    1
    16     3    17    1
    17    17    18    2
    18    18    19    1
    19    19    20    2
    20    20    21    1
    21    21    22    1
    22    22    23    1
    23    22    24    1
    24    22    25    1
    25    20    26    1
    26    26    27    2
    27    16     7    2
    28    27    17    1
    29    16    10    1
@<TRIPOS>SUBSTRUCTURE
     1 RES1        1 GROUP             0 ****  ****    0  
@<TRIPOS>MOLECULE
ligand_43
    27    29     1     0     0
SMALL
NO_CHARGES
****
Generated from the CSD

@<TRIPOS>ATOM
     1 C1       3.0141  -0.5497  10.3729   C.3       1 RES1   0.0000
     2 C2       4.1277  -1.0995   9.5134   C.3       1 RES1   0.0000
     3 C3       4.8861  -0.0003   8.7918   C.3       1 RES1   0.0000
     4 N4       5.4767   0.9131   9.7391   N.am      1 RES1   0.0000
     5 C5       5.6954   2.2197   9.3929   C.2       1 RES1   0.0000
     6 O6       5.4234   2.7052   8.3045   O.2       1 RES1   0.0000
     7 C7       6.2898   3.0120  10.4380   C.2       1 RES1   0.0000
     8 C8       5.9616   4.3443  10.7908   C.2       1 RES1   0.0000
     9 N9       6.6978   4.7967  11.8073   N.2       1 RES1   0.0000
    10 N10      7.4932   3.7557  12.0935   N.pl3     1 RES1   0.0000
    11 C11      8.3978   3.8789  13.1161   C.2       1 RES1   0.0000
    12 C12      9.0994   2.5951  13.2530   C.2       1 RES1   0.0000
    13 C13     10.1094   2.5005  14.3325   C.3       1 RES1   0.0000
    14 C14      8.8798   1.5432  12.4557   C.2       1 RES1   0.0000
    15 N15      8.0187   1.5269  11.4850   N.2       1 RES1   0.0000
    16 C16      7.2964   2.6549  11.3087   C.2       1 RES1   0.0000
    17 C17      5.9199  -0.6426   7.9227   C.2       1 RES1   0.0000
    18 C18      5.5605  -1.1667   6.6984   C.2       1 RES1   0.0000
    19 C19      6.5030  -1.7675   5.8942   C.2       1 RES1   0.0000
    20 C20      7.8124  -1.8345   6.3228   C.2       1 RES1   0.0000
    21 O21      8.7589  -2.4460   5.5209   O.3       1 RES1   0.0000
    22 C22      9.3343  -1.4931   4.6310   C.3       1 RES1   0.0000
    23 F23      9.9513  -0.4621   5.2676   F         1 RES1   0.0000
    24 F24      8.4143  -0.9774   3.7810   F         1 RES1   0.0000
    25 F25     10.2627  -2.1617   3.9045   F         1 RES1   0.0000
    26 C26      8.1860  -1.3215   7.5448   C.2       1 RES1   0.0000
    27 C27      7.2326  -0.7248   8.3380   C.2       1 RES1   0.0000
@<TRIPOS>BOND
     1     1     2    1
     2     3     2    1
     3     3     4    1
     4     4     5   am
     5     5     6    2
     6     5     7    1
     7     7     8    1
     8     8     9    2
     9     9    10    1
    10    10    11    1
    11    11    12    2
    12    12    13    1
    13    12    14    1
    14    14    15    2
    15    15    16    1
    16     3    17    1
    17    17    18    2
    18    18    19    1
    19    19    20    2
    20    20    21    1
    21    21    22    1
    22    22    23    1
    23    22    24    1
    24    22    25    1
    25    20    26    1
    26    26    27    2
    27    16     7    2
    28    27    17    1
    29    16    10    1
@<TRIPOS>SUBSTRUCTURE
     1 RES1        1 GROUP             0 ****  ****    0  
@<TRIPOS>MOLECULE
ligand_44
    27    29     1     0     0
SMALL
NO_CHARGES
****
Generated from the CSD

@<TRIPOS>ATOM
     1 C1       3.0141  -0.5497  10.3729   C.3       1 RES1   0.0000
     2 C2       4.1277  -1.0995   9.5134   C.3       1 RES1   0.0000
     3 C3       4.8861  -0.0003   8.7918   C.3       1 RES1   0.0000
     4 N4       5.4767   0.9131   9.7391   N.am      1 RES1   0.0000
     5 C5       5.6954   2.2197   9.3929   C.2       1 RES1   0.0000
     6 O6       5.4234   2.7052   8.3045   O.2       1 RES1   0.0000
     7 C7       6.2898   3.0120  10.4380   C.2       1 RES1   0.0000
     8 C8       7.3128   3.9820  10.2970   C.2       1 RES1   0.0000
     9 N9       7.6452   4.5426  11.4611   N.2       1 RES1   0.0000
    10 N10      6.8387   3.9257  12.3369   N.pl3     1 RES1   0.0000
    11 C11      6.9164   4.2712  13.6612   C.2       1 RES1   0.0000
    12 C12      5.9039   3.4939  14.3890   C.2       1 RES1   0.0000
    13 C13      5.7964   3.7400  15.8458   C.3       1 RES1   0.0000
    14 C14      5.1082   2.5881  13.8086   C.2       1 RES1   0.0000
    15 N15      5.1257   2.3016  12.5430   N.2       1 RES1   0.0000
    16 C16      6.0012   2.9978  11.7854   C.2       1 RES1   0.0000
    17 C17      5.9199  -0.6426   7.9227   C.2       1 RES1   0.0000
    18 C18      5.5605  -1.1667   6.6984   C.2       1 RES1   0.0000
    19 C19      6.5030  -1.7675   5.8942   C.2       1 RES1   0.0000
    20 C20      7.8124  -1.8345   6.3228   C.2       1 RES1   0.0000
    21 O21      8.7589  -2.4460   5.5209   O.3       1 RES1   0.0000
    22 C22      9.3343  -1.4931   4.6310   C.3       1 RES1   0.0000
    23 F23      9.9513  -0.4621   5.2676   F         1 RES1   0.0000
    24 F24      8.4143  -0.9774   3.7810   F         1 RES1   0.0000
    25 F25     10.2627  -2.1617   3.9045   F         1 RES1   0.0000
    26 C26      8.1860  -1.3215   7.5448   C.2       1 RES1   0.0000
    27 C27      7.2326  -0.7248   8.3380   C.2       1 RES1   0.0000
@<TRIPOS>BOND
     1     1     2    1
     2     3     2    1
     3     3     4    1
     4     4     5   am
     5     5     6    2
     6     5     7    1
     7     7     8    1
     8     8     9    2
     9     9    10    1
    10    10    11    1
    11    11    12    2
    12    12    13    1
    13    12    14    1
    14    14    15    2
    15    15    16    1
    16     3    17    1
    17    17    18    2
    18    18    19    1
    19    19    20    2
    20    20    21    1
    21    21    22    1
    22    22    23    1
    23    22    24    1
    24    22    25    1
    25    20    26    1
    26    26    27    2
    27    16     7    2
    28    27    17    1
    29    16    10    1
@<TRIPOS>SUBSTRUCTURE
     1 RES1        1 GROUP             0 ****  ****    0  
@<TRIPOS>MOLECULE
ligand_45
    27    29     1     0     0
SMALL
NO_CHARGES
****
Generated from the CSD

@<TRIPOS>ATOM
     1 C1       4.0250   2.2474   9.5081   C.3       1 RES1   0.0000
     2 C2       4.9927   1.5039   8.6180   C.3       1 RES1   0.0000
     3 C3       4.8861  -0.0003   8.7918   C.3       1 RES1   0.0000
     4 N4       3.5565  -0.4545   8.4656   N.am      1 RES1   0.0000
     5 C5       3.0490  -1.5817   9.0545   C.2       1 RES1   0.0000
     6 O6       3.6472  -2.2698   9.8688   O.2       1 RES1   0.0000
     7 C7       1.7126  -1.9129   8.6332   C.2       1 RES1   0.0000
     8 C8       0.6526  -2.3826   9.4474   C.2       1 RES1   0.0000
     9 N9      -0.4654  -2.5979   8.7517   N.2       1 RES1   0.0000
    10 N10     -0.1123  -2.2705   7.5002   N.pl3     1 RES1   0.0000
    11 C11     -1.0471  -2.3749   6.5029   C.2       1 RES1   0.0000
    12 C12     -0.4258  -1.9130   5.2540   C.2       1 RES1   0.0000
    13 C13     -1.2816  -1.9143   4.0449   C.3       1 RES1   0.0000
    14 C14      0.8491  -1.5169   5.1641   C.2       1 RES1   0.0000
    15 N15      1.6768  -1.4798   6.1630   N.2       1 RES1   0.0000
    16 C16      1.1806  -1.8507   7.3636   C.2       1 RES1   0.0000
    17 C17      5.9199  -0.6426   7.9227   C.2       1 RES1   0.0000
    18 C18      5.5614  -1.1626   6.6963   C.2       1 RES1   0.0000
    19 C19      6.5039  -1.7633   5.8922   C.2       1 RES1   0.0000
    20 C20      7.8124  -1.8345   6.3228   C.2       1 RES1   0.0000
    21 O21      8.7589  -2.4459   5.5208   O.3       1 RES1   0.0000
    22 C22      9.3378  -1.4920   4.6344   C.3       1 RES1   0.0000
    23 F23      9.9561  -0.4641   5.2747   F         1 RES1   0.0000
    24 F24      8.4203  -0.9720   3.7842   F         1 RES1   0.0000
    25 F25     10.2658  -2.1608   3.9075   F         1 RES1   0.0000
    26 C26      8.1851  -1.3256   7.5468   C.2       1 RES1   0.0000
    27 C27      7.2317  -0.7289   8.3400   C.2       1 RES1   0.0000
@<TRIPOS>BOND
     1     1     2    1
     2     3     2    1
     3     3     4    1
     4     4     5   am
     5     5     6    2
     6     5     7    1
     7     7     8    1
     8     8     9    2
     9     9    10    1
    10    10    11    1
    11    11    12    2
    12    12    13    1
    13    12    14    1
    14    14    15    2
    15    15    16    1
    16     3    17    1
    17    17    18    2
    18    18    19    1
    19    19    20    2
    20    20    21    1
    21    21    22    1
    22    22    23    1
    23    22    24    1
    24    22    25    1
    25    20    26    1
    26    26    27    2
    27    16     7    2
    28    27    17    1
    29    16    10    1
@<TRIPOS>SUBSTRUCTURE
     1 RES1        1 GROUP             0 ****  ****    0  
@<TRIPOS>MOLECULE
ligand_46
    27    29     1     0     0
SMALL
NO_CHARGES
****
Generated from the CSD

@<TRIPOS>ATOM
     1 C1       4.0250   2.2474   9.5081   C.3       1 RES1   0.0000
     2 C2       4.9927   1.5039   8.6180   C.3       1 RES1   0.0000
     3 C3       4.8861  -0.0003   8.7918   C.3       1 RES1   0.0000
     4 N4       3.5565  -0.4545   8.4656   N.am      1 RES1   0.0000
     5 C5       3.0490  -1.5817   9.0545   C.2       1 RES1   0.0000
     6 O6       3.6472  -2.2698   9.8688   O.2       1 RES1   0.0000
     7 C7       1.7126  -1.9129   8.6332   C.2       1 RES1   0.0000
     8 C8       1.2046  -3.2029   8.3413   C.2       1 RES1   0.0000
     9 N9      -0.0783  -3.1730   7.9762   N.2       1 RES1   0.0000
    10 N10     -0.3798  -1.8675   8.0318   N.pl3     1 RES1   0.0000
    11 C11     -1.6524  -1.4707   7.7119   C.2       1 RES1   0.0000
    12 C12     -1.7306  -0.0156   7.9010   C.2       1 RES1   0.0000
    13 C13     -3.0424   0.6201   7.6373   C.3       1 RES1   0.0000
    14 C14     -0.6912   0.7387   8.2766   C.2       1 RES1   0.0000
    15 N15      0.4949   0.2774   8.5304   N.2       1 RES1   0.0000
    16 C16      0.6514  -1.0600   8.4206   C.2       1 RES1   0.0000
    17 C17      5.9199  -0.6426   7.9227   C.2       1 RES1   0.0000
    18 C18      5.5614  -1.1626   6.6963   C.2       1 RES1   0.0000
    19 C19      6.5039  -1.7633   5.8922   C.2       1 RES1   0.0000
    20 C20      7.8124  -1.8345   6.3228   C.2       1 RES1   0.0000
    21 O21      8.7589  -2.4459   5.5208   O.3       1 RES1   0.0000
    22 C22      9.3378  -1.4920   4.6344   C.3       1 RES1   0.0000
    23 F23      9.9561  -0.4641   5.2747   F         1 RES1   0.0000
    24 F24      8.4203  -0.9720   3.7842   F         1 RES1   0.0000
    25 F25     10.2658  -2.1608   3.9075   F         1 RES1   0.0000
    26 C26      8.1851  -1.3256   7.5468   C.2       1 RES1   0.0000
    27 C27      7.2317  -0.7289   8.3400   C.2       1 RES1   0.0000
@<TRIPOS>BOND
     1     1     2    1
     2     3     2    1
     3     3     4    1
     4     4     5   am
     5     5     6    2
     6     5     7    1
     7     7     8    1
     8     8     9    2
     9     9    10    1
    10    10    11    1
    11    11    12    2
    12    12    13    1
    13    12    14    1
    14    14    15    2
    15    15    16    1
    16     3    17    1
    17    17    18    2
    18    18    19    1
    19    19    20    2
    20    20    21    1
    21    21    22    1
    22    22    23    1
    23    22    24    1
    24    22    25    1
    25    20    26    1
    26    26    27    2
    27    16     7    2
    28    27    17    1
    29    16    10    1
@<TRIPOS>SUBSTRUCTURE
     1 RES1        1 GROUP             0 ****  ****    0  
@<TRIPOS>MOLECULE
ligand_47
    27    29     1     0     0
SMALL
NO_CHARGES
****
Generated from the CSD

@<TRIPOS>ATOM
     1 C1       2.4223   0.4854   8.8087   C.3       1 RES1   0.0000
     2 C2       3.5697  -0.1365   8.0484   C.3       1 RES1   0.0000
     3 C3       4.8861  -0.0003   8.7918   C.3       1 RES1   0.0000
     4 N4       4.8053  -0.6349  10.0845   N.am      1 RES1   0.0000
     5 C5       4.3846   0.0760  11.1766   C.2       1 RES1   0.0000
     6 O6       4.0683   1.2567  11.1577   O.2       1 RES1   0.0000
     7 C7       4.3386  -0.6913  12.3941   C.2       1 RES1   0.0000
     8 C8       4.6694  -2.0596  12.5538   C.2       1 RES1   0.0000
     9 N9       4.5211  -2.4745  13.8132   N.2       1 RES1   0.0000
    10 N10      4.0928  -1.3734  14.4475   N.pl3     1 RES1   0.0000
    11 C11      3.8364  -1.4450  15.7922   C.2       1 RES1   0.0000
    12 C12      3.4350  -0.1061  16.2454   C.2       1 RES1   0.0000
    13 C13      3.1394   0.0469  17.6889   C.3       1 RES1   0.0000
    14 C14      3.3146   0.9465  15.4282   C.2       1 RES1   0.0000
    15 N15      3.5502   0.9141  14.1525   N.2       1 RES1   0.0000
    16 C16      3.9642  -0.2703  13.6517   C.2       1 RES1   0.0000
    17 C17      5.9620  -0.6022   7.9452   C.2       1 RES1   0.0000
    18 C18      5.6432  -1.1743   6.7311   C.2       1 RES1   0.0000
    19 C19      6.6250  -1.7384   5.9478   C.2       1 RES1   0.0000
    20 C20      7.9326  -1.7203   6.3868   C.2       1 RES1   0.0000
    21 O21      8.9191  -2.2948   5.6060   O.3       1 RES1   0.0000
    22 C22      9.4463  -1.3313   4.6979   C.3       1 RES1   0.0000
    23 F23      9.9980  -0.2522   5.3142   F         1 RES1   0.0000
    24 F24      8.5053  -0.8891   3.8296   F         1 RES1   0.0000
    25 F25     10.4173  -1.9623   3.9937   F         1 RES1   0.0000
    26 C26      8.2663  -1.1585   7.5989   C.2       1 RES1   0.0000
    27 C27      7.2738  -0.5993   8.3712   C.2       1 RES1   0.0000
@<TRIPOS>BOND
     1     1     2    1
     2     3     2    1
     3     3     4    1
     4     4     5   am
     5     5     6    2
     6     5     7    1
     7     7     8    1
     8     8     9    2
     9     9    10    1
    10    10    11    1
    11    11    12    2
    12    12    13    1
    13    12    14    1
    14    14    15    2
    15    15    16    1
    16     3    17    1
    17    17    18    2
    18    18    19    1
    19    19    20    2
    20    20    21    1
    21    21    22    1
    22    22    23    1
    23    22    24    1
    24    22    25    1
    25    20    26    1
    26    26    27    2
    27    16     7    2
    28    27    17    1
    29    16    10    1
@<TRIPOS>SUBSTRUCTURE
     1 RES1        1 GROUP             0 ****  ****    0  
@<TRIPOS>MOLECULE
ligand_48
    27    29     1     0     0
SMALL
NO_CHARGES
****
Generated from the CSD

@<TRIPOS>ATOM
     1 C1       5.9139  -1.0770  10.8143   C.3       1 RES1   0.0000
     2 C2       4.6572  -0.8952   9.9963   C.3       1 RES1   0.0000
     3 C3       4.8861  -0.0003   8.7918   C.3       1 RES1   0.0000
     4 N4       5.2861   1.3205   9.2113   N.am      1 RES1   0.0000
     5 C5       4.7512   2.4272   8.6080   C.2       1 RES1   0.0000
     6 O6       3.9303   2.3968   7.7027   O.2       1 RES1   0.0000
     7 C7       5.2402   3.6757   9.1328   C.2       1 RES1   0.0000
     8 C8       5.6710   3.9346  10.4574   C.2       1 RES1   0.0000
     9 N9       6.0672   5.1976  10.6250   N.2       1 RES1   0.0000
    10 N10      5.8828   5.7376   9.4116   N.pl3     1 RES1   0.0000
    11 C11      6.1991   7.0580   9.2226   C.2       1 RES1   0.0000
    12 C12      5.9544   7.3814   7.8103   C.2       1 RES1   0.0000
    13 C13      6.2646   8.7649   7.3811   C.3       1 RES1   0.0000
    14 C14      5.4630   6.5065   6.9252   C.2       1 RES1   0.0000
    15 N15      5.1607   5.2753   7.2026   N.2       1 RES1   0.0000
    16 C16      5.3903   4.8759   8.4726   C.2       1 RES1   0.0000
    17 C17      5.9211  -0.6437   7.9250   C.2       1 RES1   0.0000
    18 C18      5.5425  -1.2972   6.7707   C.2       1 RES1   0.0000
    19 C19      6.4867  -1.8999   5.9700   C.2       1 RES1   0.0000
    20 C20      7.8167  -1.8384   6.3307   C.2       1 RES1   0.0000
    21 O21      8.7657  -2.4512   5.5329   O.3       1 RES1   0.0000
    22 C22      9.2258  -1.5430   4.5357   C.3       1 RES1   0.0000
    23 F23      9.7953  -0.4198   5.0483   F         1 RES1   0.0000
    24 F24      8.2303  -1.1690   3.6966   F         1 RES1   0.0000
    25 F25     10.1646  -2.2073   3.8186   F         1 RES1   0.0000
    26 C26      8.2101  -1.1951   7.4829   C.2       1 RES1   0.0000
    27 C27      7.2548  -0.5981   8.2736   C.2       1 RES1   0.0000
@<TRIPOS>BOND
     1     1     2    1
     2     3     2    1
     3     3     4    1
     4     4     5   am
     5     5     6    2
     6     5     7    1
     7     7     8    1
     8     8     9    2
     9     9    10    1
    10    10    11    1
    11    11    12    2
    12    12    13    1
    13    12    14    1
    14    14    15    2
    15    15    16    1
    16     3    17    1
    17    17    18    2
    18    18    19    1
    19    19    20    2
    20    20    21    1
    21    21    22    1
    22    22    23    1
    23    22    24    1
    24    22    25    1
    25    20    26    1
    26    26    27    2
    27    16     7    2
    28    27    17    1
    29    16    10    1
@<TRIPOS>SUBSTRUCTURE
     1 RES1        1 GROUP             0 ****  ****    0  
@<TRIPOS>MOLECULE
ligand_49
    27    29     1     0     0
SMALL
NO_CHARGES
****
Generated from the CSD

@<TRIPOS>ATOM
     1 C1       3.9095   1.1554   6.7460   C.3       1 RES1   0.0000
     2 C2       4.5281   1.3858   8.1046   C.3       1 RES1   0.0000
     3 C3       4.9280   0.0847   8.7765   C.3       1 RES1   0.0000
     4 N4       3.7706  -0.7468   8.9986   N.am      1 RES1   0.0000
     5 C5       3.6134  -1.4065  10.1881   C.2       1 RES1   0.0000
     6 O6       4.4020  -1.3553  11.1207   O.2       1 RES1   0.0000
     7 C7       2.4105  -2.1938  10.2680   C.2       1 RES1   0.0000
     8 C8       1.1753  -1.9332   9.6248   C.2       1 RES1   0.0000
     9 N9       0.2530  -2.8563   9.9029   N.2       1 RES1   0.0000
    10 N10      0.9009  -3.6957  10.7238   N.pl3     1 RES1   0.0000
    11 C11      0.2318  -4.7882  11.2116   C.2       1 RES1   0.0000
    12 C12      1.1724  -5.5611  12.0344   C.2       1 RES1   0.0000
    13 C13      0.6562  -6.8115  12.6381   C.3       1 RES1   0.0000
    14 C14      2.4353  -5.1846  12.2659   C.2       1 RES1   0.0000
    15 N15      2.9793  -4.1095  11.7838   N.2       1 RES1   0.0000
    16 C16      2.1986  -3.3541  10.9806   C.2       1 RES1   0.0000
    17 C17      5.9398  -0.5940   7.9092   C.2       1 RES1   0.0000
    18 C18      7.2753  -0.5587   8.2530   C.2       1 RES1   0.0000
    19 C19      8.2158  -1.1734   7.4571   C.2       1 RES1   0.0000
    20 C20      7.8082  -1.8308   6.3149   C.2       1 RES1   0.0000
    21 O21      8.7523  -2.4408   5.5090   O.3       1 RES1   0.0000
    22 C22      9.2087  -1.5279   4.5144   C.3       1 RES1   0.0000
    23 F23      9.7809  -0.4075   5.0303   F         1 RES1   0.0000
    24 F24      8.2101  -1.1493   3.6812   F         1 RES1   0.0000
    25 F25     10.1443  -2.1892   3.7904   F         1 RES1   0.0000
    26 C26      6.4797  -1.8700   5.9549   C.2       1 RES1   0.0000
    27 C27      5.5513  -1.2502   6.7599   C.2       1 RES1   0.0000
@<TRIPOS>BOND
     1     1     2    1
     2     3     2    1
     3     3     4    1
     4     4     5   am
     5     5     6    2
     6     5     7    1
     7     7     8    1
     8     8     9    2
     9     9    10    1
    10    10    11    1
    11    11    12    2
    12    12    13    1
    13    12    14    1
    14    14    15    2
    15    15    16    1
    16     3    17    1
    17    17    18    2
    18    18    19    1
    19    19    20    2
    20    20    21    1
    21    21    22    1
    22    22    23    1
    23    22    24    1
    24    22    25    1
    25    20    26    1
    26    26    27    2
    27    16     7    2
    28    27    17    1
    29    16    10    1
@<TRIPOS>SUBSTRUCTURE
     1 RES1        1 GROUP             0 ****  ****    0  
@<TRIPOS>MOLECULE
ligand_50
    27    29     1     0     0
SMALL
NO_CHARGES
****
Generated from the CSD

@<TRIPOS>ATOM
     1 C1       2.9657   1.6657   8.6362   C.3       1 RES1   0.0000
     2 C2       3.9974   0.8886   7.8532   C.3       1 RES1   0.0000
     3 C3       4.9112   0.0825   8.7583   C.3       1 RES1   0.0000
     4 N4       4.1482  -0.8644   9.5340   N.am      1 RES1   0.0000
     5 C5       4.5992  -1.2734  10.7605   C.2       1 RES1   0.0000
     6 O6       5.6376  -0.8931  11.2814   O.2       1 RES1   0.0000
     7 C7       3.7339  -2.2174  11.4190   C.2       1 RES1   0.0000
     8 C8       2.3253  -2.3115  11.2998   C.2       1 RES1   0.0000
     9 N9       1.8174  -3.2967  12.0424   N.2       1 RES1   0.0000
    10 N10      2.9006  -3.8211  12.6338   N.pl3     1 RES1   0.0000
    11 C11      2.7376  -4.8821  13.4864   C.2       1 RES1   0.0000
    12 C12      4.0690  -5.2927  13.9531   C.2       1 RES1   0.0000
    13 C13      4.1235  -6.4553  14.8696   C.3       1 RES1   0.0000
    14 C14      5.2001  -4.6680  13.6057   C.2       1 RES1   0.0000
    15 N15      5.2568  -3.6436  12.8110   N.2       1 RES1   0.0000
    16 C16      4.0806  -3.2188  12.2999   C.2       1 RES1   0.0000
    17 C17      5.9315  -0.5972   7.9018   C.2       1 RES1   0.0000
    18 C18      7.2491  -0.1913   7.9478   C.2       1 RES1   0.0000
    19 C19      8.1949  -0.8049   7.1573   C.2       1 RES1   0.0000
    20 C20      7.8125  -1.8346   6.3228   C.2       1 RES1   0.0000
    21 O21      8.7590  -2.4460   5.5210   O.3       1 RES1   0.0000
    22 C22      9.2146  -1.5366   4.5228   C.3       1 RES1   0.0000
    23 F23      9.8541  -0.4501   5.0323   F         1 RES1   0.0000
    24 F24      8.2011  -1.1023   3.7361   F         1 RES1   0.0000
    25 F25     10.0918  -2.2244   3.7520   F         1 RES1   0.0000
    26 C26      6.5003  -2.2474   6.2610   C.2       1 RES1   0.0000
    27 C27      5.5661  -1.6238   7.0564   C.2       1 RES1   0.0000
@<TRIPOS>BOND
     1     1     2    1
     2     3     2    1
     3     3     4    1
     4     4     5   am
     5     5     6    2
     6     5     7    1
     7     7     8    1
     8     8     9    2
     9     9    10    1
    10    10    11    1
    11    11    12    2
    12    12    13    1
    13    12    14    1
    14    14    15    2
    15    15    16    1
    16     3    17    1
    17    17    18    2
    18    18    19    1
    19    19    20    2
    20    20    21    1
    21    21    22    1
    22    22    23    1
    23    22    24    1
    24    22    25    1
    25    20    26    1
    26    26    27    2
    27    16     7    2
    28    27    17    1
    29    16    10    1
@<TRIPOS>SUBSTRUCTURE
     1 RES1        1 GROUP             0 ****  ****    0  
@<TRIPOS>MOLECULE
ligand_51
    27    29     1     0     0
SMALL
NO_CHARGES
****
Generated from the CSD

@<TRIPOS>ATOM
     1 C1       4.1592   0.2959  11.1448   C.3       1 RES1   0.0000
     2 C2       5.1817  -0.2952  10.2034   C.3       1 RES1   0.0000
     3 C3       4.9112   0.0825   8.7583   C.3       1 RES1   0.0000
     4 N4       4.9448   1.5151   8.5948   N.am      1 RES1   0.0000
     5 C5       4.2088   2.1140   7.6076   C.2       1 RES1   0.0000
     6 O6       3.4942   1.5180   6.8148   O.2       1 RES1   0.0000
     7 C7       4.3393   3.5474   7.5659   C.2       1 RES1   0.0000
     8 C8       4.5881   4.4140   8.6587   C.2       1 RES1   0.0000
     9 N9       4.6538   5.6938   8.2874   N.2       1 RES1   0.0000
    10 N10      4.4420   5.6377   6.9644   N.pl3     1 RES1   0.0000
    11 C11      4.4449   6.8054   6.2462   C.2       1 RES1   0.0000
    12 C12      4.2428   6.4637   4.8315   C.2       1 RES1   0.0000
    13 C13      4.2438   7.5894   3.8684   C.3       1 RES1   0.0000
    14 C14      4.0488   5.2148   4.3922   C.2       1 RES1   0.0000
    15 N15      4.0308   4.1647   5.1545   N.2       1 RES1   0.0000
    16 C16      4.2480   4.3787   6.4707   C.2       1 RES1   0.0000
    17 C17      5.9315  -0.5972   7.9018   C.2       1 RES1   0.0000
    18 C18      7.2491  -0.1913   7.9478   C.2       1 RES1   0.0000
    19 C19      8.1949  -0.8049   7.1573   C.2       1 RES1   0.0000
    20 C20      7.8125  -1.8346   6.3228   C.2       1 RES1   0.0000
    21 O21      8.7590  -2.4460   5.5210   O.3       1 RES1   0.0000
    22 C22      9.2146  -1.5366   4.5228   C.3       1 RES1   0.0000
    23 F23      9.8541  -0.4501   5.0323   F         1 RES1   0.0000
    24 F24      8.2011  -1.1023   3.7361   F         1 RES1   0.0000
    25 F25     10.0918  -2.2244   3.7520   F         1 RES1   0.0000
    26 C26      6.5003  -2.2474   6.2610   C.2       1 RES1   0.0000
    27 C27      5.5661  -1.6238   7.0564   C.2       1 RES1   0.0000
@<TRIPOS>BOND
     1     1     2    1
     2     3     2    1
     3     3     4    1
     4     4     5   am
     5     5     6    2
     6     5     7    1
     7     7     8    1
     8     8     9    2
     9     9    10    1
    10    10    11    1
    11    11    12    2
    12    12    13    1
    13    12    14    1
    14    14    15    2
    15    15    16    1
    16     3    17    1
    17    17    18    2
    18    18    19    1
    19    19    20    2
    20    20    21    1
    21    21    22    1
    22    22    23    1
    23    22    24    1
    24    22    25    1
    25    20    26    1
    26    26    27    2
    27    16     7    2
    28    27    17    1
    29    16    10    1
@<TRIPOS>SUBSTRUCTURE
     1 RES1        1 GROUP             0 ****  ****    0  
@<TRIPOS>MOLECULE
ligand_52
    27    29     1     0     0
SMALL
NO_CHARGES
****
Generated from the CSD

@<TRIPOS>ATOM
     1 C1       5.5940   2.2958   8.0616   C.3       1 RES1   0.0000
     2 C2       4.4604   1.3004   8.1352   C.3       1 RES1   0.0000
     3 C3       4.8861  -0.0003   8.7918   C.3       1 RES1   0.0000
     4 N4       3.7471  -0.8619   8.9935   N.am      1 RES1   0.0000
     5 C5       2.9908  -0.7506  10.1295   C.2       1 RES1   0.0000
     6 O6       3.2024   0.0488  11.0298   O.2       1 RES1   0.0000
     7 C7       1.8881  -1.6743  10.1932   C.2       1 RES1   0.0000
     8 C8       0.5757  -1.4065  10.6549   C.2       1 RES1   0.0000
     9 N9      -0.2159  -2.4782  10.5853   N.2       1 RES1   0.0000
    10 N10      0.5944  -3.4227  10.0859   N.pl3     1 RES1   0.0000
    11 C11      0.0909  -4.6807   9.8781   C.2       1 RES1   0.0000
    12 C12      1.1571  -5.4995   9.2848   C.2       1 RES1   0.0000
    13 C13      0.8113  -6.9002   8.9486   C.3       1 RES1   0.0000
    14 C14      2.3960  -5.0487   9.0562   C.2       1 RES1   0.0000
    15 N15      2.7956  -3.8415   9.3152   N.2       1 RES1   0.0000
    16 C16      1.8688  -3.0030   9.8282   C.2       1 RES1   0.0000
    17 C17      5.9199  -0.6426   7.9227   C.2       1 RES1   0.0000
    18 C18      5.5597  -1.1703   6.7001   C.2       1 RES1   0.0000
    19 C19      6.5023  -1.7711   5.8961   C.2       1 RES1   0.0000
    20 C20      7.8125  -1.8346   6.3228   C.2       1 RES1   0.0000
    21 O21      8.7590  -2.4460   5.5210   O.3       1 RES1   0.0000
    22 C22      9.3311  -1.4941   4.6279   C.3       1 RES1   0.0000
    23 F23      9.9470  -0.4604   5.2611   F         1 RES1   0.0000
    24 F24      8.4088  -0.9823   3.7781   F         1 RES1   0.0000
    25 F25     10.2597  -2.1626   3.9016   F         1 RES1   0.0000
    26 C26      8.1868  -1.3179   7.5431   C.2       1 RES1   0.0000
    27 C27      7.2333  -0.7212   8.3362   C.2       1 RES1   0.0000
@<TRIPOS>BOND
     1     1     2    1
     2     3     2    1
     3     3     4    1
     4     4     5   am
     5     5     6    2
     6     5     7    1
     7     7     8    1
     8     8     9    2
     9     9    10    1
    10    10    11    1
    11    11    12    2
    12    12    13    1
    13    12    14    1
    14    14    15    2
    15    15    16    1
    16     3    17    1
    17    17    18    2
    18    18    19    1
    19    19    20    2
    20    20    21    1
    21    21    22    1
    22    22    23    1
    23    22    24    1
    24    22    25    1
    25    20    26    1
    26    26    27    2
    27    16     7    2
    28    27    17    1
    29    16    10    1
@<TRIPOS>SUBSTRUCTURE
     1 RES1        1 GROUP             0 ****  ****    0  
@<TRIPOS>MOLECULE
ligand_53
    27    29     1     0     0
SMALL
NO_CHARGES
****
Generated from the CSD

@<TRIPOS>ATOM
     1 C1       3.1346  -0.6054  10.4866   C.3       1 RES1   0.0000
     2 C2       4.1665  -1.1250   9.5138   C.3       1 RES1   0.0000
     3 C3       4.8861  -0.0003   8.7918   C.3       1 RES1   0.0000
     4 N4       5.4767   0.9131   9.7391   N.am      1 RES1   0.0000
     5 C5       6.1349   0.4343  10.8402   C.2       1 RES1   0.0000
     6 O6       6.3386  -0.7492  11.0681   O.2       1 RES1   0.0000
     7 C7       6.5878   1.4591  11.7447   C.2       1 RES1   0.0000
     8 C8       6.4178   2.8585  11.6034   C.2       1 RES1   0.0000
     9 N9       6.9548   3.5403  12.6167   N.2       1 RES1   0.0000
    10 N10      7.4675   2.5757  13.3943   N.pl3     1 RES1   0.0000
    11 C11      8.1074   2.9333  14.5527   C.2       1 RES1   0.0000
    12 C12      8.5248   1.7006  15.2349   C.2       1 RES1   0.0000
    13 C13      9.2144   1.8610  16.5361   C.3       1 RES1   0.0000
    14 C14      8.3261   0.4751  14.7359   C.2       1 RES1   0.0000
    15 N15      7.7336   0.2309  13.6074   N.2       1 RES1   0.0000
    16 C16      7.2792   1.3058  12.9268   C.2       1 RES1   0.0000
    17 C17      5.9150  -0.6087   7.8930   C.2       1 RES1   0.0000
    18 C18      5.5278  -1.2212   6.7192   C.2       1 RES1   0.0000
    19 C19      6.4663  -1.7916   5.8888   C.2       1 RES1   0.0000
    20 C20      7.7994  -1.7388   6.2395   C.2       1 RES1   0.0000
    21 O21      8.7429  -2.3194   5.4115   O.3       1 RES1   0.0000
    22 C22      9.1911  -1.3742   4.4437   C.3       1 RES1   0.0000
    23 F23      9.7621  -0.2684   4.9914   F         1 RES1   0.0000
    24 F24      8.1869  -0.9734   3.6277   F         1 RES1   0.0000
    25 F25     10.1252  -2.0092   3.6946   F         1 RES1   0.0000
    26 C26      8.2015  -1.1364   7.4106   C.2       1 RES1   0.0000
    27 C27      7.2517  -0.5714   8.2310   C.2       1 RES1   0.0000
@<TRIPOS>BOND
     1     1     2    1
     2     3     2    1
     3     3     4    1
     4     4     5   am
     5     5     6    2
     6     5     7    1
     7     7     8    1
     8     8     9    2
     9     9    10    1
    10    10    11    1
    11    11    12    2
    12    12    13    1
    13    12    14    1
    14    14    15    2
    15    15    16    1
    16     3    17    1
    17    17    18    2
    18    18    19    1
    19    19    20    2
    20    20    21    1
    21    21    22    1
    22    22    23    1
    23    22    24    1
    24    22    25    1
    25    20    26    1
    26    26    27    2
    27    16     7    2
    28    27    17    1
    29    16    10    1
@<TRIPOS>SUBSTRUCTURE
     1 RES1        1 GROUP             0 ****  ****    0  
@<TRIPOS>MOLECULE
ligand_54
    27    29     1     0     0
SMALL
NO_CHARGES
****
Generated from the CSD

@<TRIPOS>ATOM
     1 C1       4.0598   2.3820   9.3008   C.3       1 RES1   0.0000
     2 C2       5.0811   1.5754   8.5343   C.3       1 RES1   0.0000
     3 C3       4.9280   0.0847   8.7765   C.3       1 RES1   0.0000
     4 N4       3.5862  -0.3434   8.4655   N.am      1 RES1   0.0000
     5 C5       2.9604   0.1143   7.3368   C.2       1 RES1   0.0000
     6 O6       3.4829   0.8289   6.4938   O.2       1 RES1   0.0000
     7 C7       1.5939  -0.3202   7.2064   C.2       1 RES1   0.0000
     8 C8       0.8700  -1.1422   8.1050   C.2       1 RES1   0.0000
     9 N9      -0.3808  -1.3630   7.6963   N.2       1 RES1   0.0000
    10 N10     -0.4465  -0.6871   6.5400   N.pl3     1 RES1   0.0000
    11 C11     -1.6227  -0.6983   5.8359   C.2       1 RES1   0.0000
    12 C12     -1.4445   0.1497   4.6492   C.2       1 RES1   0.0000
    13 C13     -2.6178   0.3018   3.7577   C.3       1 RES1   0.0000
    14 C14     -0.2943   0.7606   4.3422   C.2       1 RES1   0.0000
    15 N15      0.7865   0.6894   5.0570   N.2       1 RES1   0.0000
    16 C16      0.7048  -0.0393   6.1917   C.2       1 RES1   0.0000
    17 C17      5.9444  -0.6281   7.9425   C.2       1 RES1   0.0000
    18 C18      7.2710  -0.6224   8.3205   C.2       1 RES1   0.0000
    19 C19      8.2159  -1.2687   7.5554   C.2       1 RES1   0.0000
    20 C20      7.8215  -1.9277   6.4096   C.2       1 RES1   0.0000
    21 O21      8.7703  -2.5695   5.6346   O.3       1 RES1   0.0000
    22 C22      9.2749  -1.6788   4.6432   C.3       1 RES1   0.0000
    23 F23      9.8617  -0.5676   5.1626   F         1 RES1   0.0000
    24 F24      8.3079  -1.2843   3.7806   F         1 RES1   0.0000
    25 F25     10.2119  -2.3708   3.9502   F         1 RES1   0.0000
    26 C26      6.5021  -1.9377   6.0156   C.2       1 RES1   0.0000
    27 C27      5.5692  -1.2864   6.7901   C.2       1 RES1   0.0000
@<TRIPOS>BOND
     1     1     2    1
     2     3     2    1
     3     3     4    1
     4     4     5   am
     5     5     6    2
     6     5     7    1
     7     7     8    1
     8     8     9    2
     9     9    10    1
    10    10    11    1
    11    11    12    2
    12    12    13    1
    13    12    14    1
    14    14    15    2
    15    15    16    1
    16     3    17    1
    17    17    18    2
    18    18    19    1
    19    19    20    2
    20    20    21    1
    21    21    22    1
    22    22    23    1
    23    22    24    1
    24    22    25    1
    25    20    26    1
    26    26    27    2
    27    16     7    2
    28    27    17    1
    29    16    10    1
@<TRIPOS>SUBSTRUCTURE
     1 RES1        1 GROUP             0 ****  ****    0  
@<TRIPOS>MOLECULE
ligand_55
    27    29     1     0     0
SMALL
NO_CHARGES
****
Generated from the CSD

@<TRIPOS>ATOM
     1 C1       2.5805  -0.1502   9.6370   C.3       1 RES1   0.0000
     2 C2       3.6725  -0.7682   8.7962   C.3       1 RES1   0.0000
     3 C3       4.9280   0.0847   8.7765   C.3       1 RES1   0.0000
     4 N4       5.4210   0.2906  10.1162   N.am      1 RES1   0.0000
     5 C5       5.4320   1.5466  10.6615   C.2       1 RES1   0.0000
     6 O6       5.0436   2.5554  10.0909   O.2       1 RES1   0.0000
     7 C7       5.9517   1.5992  12.0034   C.2       1 RES1   0.0000
     8 C8       6.4274   0.5124  12.7778   C.2       1 RES1   0.0000
     9 N9       6.8431   0.8936  13.9869   N.2       1 RES1   0.0000
    10 N10      6.6262   2.2169  13.9796   N.pl3     1 RES1   0.0000
    11 C11      6.9513   2.9444  15.0951   C.2       1 RES1   0.0000
    12 C12      6.6654   4.3572  14.8097   C.2       1 RES1   0.0000
    13 C13      6.9774   5.3292  15.8832   C.3       1 RES1   0.0000
    14 C14      6.1361   4.7872  13.6585   C.2       1 RES1   0.0000
    15 N15      5.8288   4.0166  12.6606   N.2       1 RES1   0.0000
    16 C16      6.0942   2.7013  12.8181   C.2       1 RES1   0.0000
    17 C17      5.9398  -0.5981   7.9124   C.2       1 RES1   0.0000
    18 C18      7.2426  -0.7256   8.3477   C.2       1 RES1   0.0000
    19 C19      8.1837  -1.3453   7.5565   C.2       1 RES1   0.0000
    20 C20      7.8092  -1.8433   6.3258   C.2       1 RES1   0.0000
    21 O21      8.7550  -2.4577   5.5254   O.3       1 RES1   0.0000
    22 C22      9.3659  -1.4983   4.6668   C.3       1 RES1   0.0000
    23 F23      9.9934  -0.4950   5.3366   F         1 RES1   0.0000
    24 F24      8.4720  -0.9444   3.8130   F         1 RES1   0.0000
    25 F25     10.2924  -2.1708   3.9415   F         1 RES1   0.0000
    26 C26      6.5142  -1.7187   5.8744   C.2       1 RES1   0.0000
    27 C27      5.5848  -1.0960   6.6762   C.2       1 RES1   0.0000
@<TRIPOS>BOND
     1     1     2    1
     2     3     2    1
     3     3     4    1
     4     4     5   am
     5     5     6    2
     6     5     7    1
     7     7     8    1
     8     8     9    2
     9     9    10    1
    10    10    11    1
    11    11    12    2
    12    12    13    1
    13    12    14    1
    14    14    15    2
    15    15    16    1
    16     3    17    1
    17    17    18    2
    18    18    19    1
    19    19    20    2
    20    20    21    1
    21    21    22    1
    22    22    23    1
    23    22    24    1
    24    22    25    1
    25    20    26    1
    26    26    27    2
    27    16     7    2
    28    27    17    1
    29    16    10    1
@<TRIPOS>SUBSTRUCTURE
     1 RES1        1 GROUP             0 ****  ****    0  
@<TRIPOS>MOLECULE
ligand_56
    27    29     1     0     0
SMALL
NO_CHARGES
****
Generated from the CSD

@<TRIPOS>ATOM
     1 C1       3.6579  -0.4106  10.9434   C.3       1 RES1   0.0000
     2 C2       4.7190  -0.9129   9.9932   C.3       1 RES1   0.0000
     3 C3       4.8861  -0.0003   8.7918   C.3       1 RES1   0.0000
     4 N4       5.2861   1.3205   9.2113   N.am      1 RES1   0.0000
     5 C5       4.3409   2.2665   9.5055   C.2       1 RES1   0.0000
     6 O6       3.1337   2.0891   9.4317   O.2       1 RES1   0.0000
     7 C7       4.8870   3.5315   9.9236   C.2       1 RES1   0.0000
     8 C8       4.4334   4.8215   9.5529   C.2       1 RES1   0.0000
     9 N9       5.1553   5.7940  10.1125   N.2       1 RES1   0.0000
    10 N10      6.0662   5.1215  10.8310   N.pl3     1 RES1   0.0000
    11 C11      6.9903   5.8307  11.5536   C.2       1 RES1   0.0000
    12 C12      7.8279   4.8673  12.2811   C.2       1 RES1   0.0000
    13 C13      8.8819   5.4301  13.1569   C.3       1 RES1   0.0000
    14 C14      7.6910   3.5404  12.1763   C.2       1 RES1   0.0000
    15 N15      6.8007   2.9520  11.4378   N.2       1 RES1   0.0000
    16 C16      5.9575   3.7614  10.7604   C.2       1 RES1   0.0000
    17 C17      5.8925  -0.6191   7.8748   C.2       1 RES1   0.0000
    18 C18      5.4907  -1.1370   6.6610   C.2       1 RES1   0.0000
    19 C19      6.4079  -1.7162   5.8131   C.2       1 RES1   0.0000
    20 C20      7.7347  -1.7679   6.1870   C.2       1 RES1   0.0000
    21 O21      8.6562  -2.3577   5.3410   O.3       1 RES1   0.0000
    22 C22      9.1806  -1.3881   4.4377   C.3       1 RES1   0.0000
    23 F23      9.8083  -0.3541   5.0586   F         1 RES1   0.0000
    24 F24      8.2191  -0.8782   3.6313   F         1 RES1   0.0000
    25 F25     10.0878  -2.0361   3.6671   F         1 RES1   0.0000
    26 C26      8.1507  -1.2608   7.3977   C.2       1 RES1   0.0000
    27 C27      7.2221  -0.6857   8.2351   C.2       1 RES1   0.0000
@<TRIPOS>BOND
     1     1     2    1
     2     3     2    1
     3     3     4    1
     4     4     5   am
     5     5     6    2
     6     5     7    1
     7     7     8    1
     8     8     9    2
     9     9    10    1
    10    10    11    1
    11    11    12    2
    12    12    13    1
    13    12    14    1
    14    14    15    2
    15    15    16    1
    16     3    17    1
    17    17    18    2
    18    18    19    1
    19    19    20    2
    20    20    21    1
    21    21    22    1
    22    22    23    1
    23    22    24    1
    24    22    25    1
    25    20    26    1
    26    26    27    2
    27    16     7    2
    28    27    17    1
    29    16    10    1
@<TRIPOS>SUBSTRUCTURE
     1 RES1        1 GROUP             0 ****  ****    0  
@<TRIPOS>MOLECULE
ligand_57
    27    29     1     0     0
SMALL
NO_CHARGES
****
Generated from the CSD

@<TRIPOS>ATOM
     1 C1       3.4556   2.0620   8.8751   C.3       1 RES1   0.0000
     2 C2       4.4702   1.2745   8.0804   C.3       1 RES1   0.0000
     3 C3       4.8861  -0.0003   8.7918   C.3       1 RES1   0.0000
     4 N4       3.7471  -0.8619   8.9935   N.am      1 RES1   0.0000
     5 C5       2.9908  -0.7506  10.1295   C.2       1 RES1   0.0000
     6 O6       3.2089   0.0413  11.0348   O.2       1 RES1   0.0000
     7 C7       1.8795  -1.6645  10.1865   C.2       1 RES1   0.0000
     8 C8       1.4314  -2.3942  11.3152   C.2       1 RES1   0.0000
     9 N9       0.3724  -3.1572  11.0390   N.2       1 RES1   0.0000
    10 N10      0.1541  -2.9151   9.7383   N.pl3     1 RES1   0.0000
    11 C11     -0.8885  -3.5507   9.1153   C.2       1 RES1   0.0000
    12 C12     -0.9380  -3.0770   7.7253   C.2       1 RES1   0.0000
    13 C13     -2.0224  -3.6209   6.8751   C.3       1 RES1   0.0000
    14 C14     -0.0598  -2.2107   7.2070   C.2       1 RES1   0.0000
    15 N15      0.9224  -1.6794   7.8682   N.2       1 RES1   0.0000
    16 C16      1.0233  -2.0276   9.1697   C.2       1 RES1   0.0000
    17 C17      5.9456  -0.6651   7.9721   C.2       1 RES1   0.0000
    18 C18      5.6203  -1.2364   6.7594   C.2       1 RES1   0.0000
    19 C19      6.5866  -1.8582   6.0008   C.2       1 RES1   0.0000
    20 C20      7.8857  -1.8985   6.4631   C.2       1 RES1   0.0000
    21 O21      8.8561  -2.5308   5.7072   O.3       1 RES1   0.0000
    22 C22      9.4458  -1.6061   4.7971   C.3       1 RES1   0.0000
    23 F23     10.0392  -0.5475   5.4101   F         1 RES1   0.0000
    24 F24      8.5429  -1.1296   3.9068   F         1 RES1   0.0000
    25 F25     10.3966  -2.2930   4.1181   F         1 RES1   0.0000
    26 C26      8.2254  -1.3382   7.6741   C.2       1 RES1   0.0000
    27 C27      7.2483  -0.7211   8.4216   C.2       1 RES1   0.0000
@<TRIPOS>BOND
     1     1     2    1
     2     3     2    1
     3     3     4    1
     4     4     5   am
     5     5     6    2
     6     5     7    1
     7     7     8    1
     8     8     9    2
     9     9    10    1
    10    10    11    1
    11    11    12    2
    12    12    13    1
    13    12    14    1
    14    14    15    2
    15    15    16    1
    16     3    17    1
    17    17    18    2
    18    18    19    1
    19    19    20    2
    20    20    21    1
    21    21    22    1
    22    22    23    1
    23    22    24    1
    24    22    25    1
    25    20    26    1
    26    26    27    2
    27    16     7    2
    28    27    17    1
    29    16    10    1
@<TRIPOS>SUBSTRUCTURE
     1 RES1        1 GROUP             0 ****  ****    0  
@<TRIPOS>MOLECULE
ligand_58
    27    29     1     0     0
SMALL
NO_CHARGES
****
Generated from the CSD

@<TRIPOS>ATOM
     1 C1       3.7267  -0.4251  10.9872   C.3       1 RES1   0.0000
     2 C2       4.7651  -0.9196  10.0082   C.3       1 RES1   0.0000
     3 C3       4.9029   0.0020   8.8099   C.3       1 RES1   0.0000
     4 N4       5.3087   1.3208   9.2298   N.am      1 RES1   0.0000
     5 C5       4.3675   2.2682   9.5327   C.2       1 RES1   0.0000
     6 O6       3.1594   2.0924   9.4704   O.2       1 RES1   0.0000
     7 C7       4.9193   3.5327   9.9449   C.2       1 RES1   0.0000
     8 C8       6.2907   3.8670  10.0656   C.2       1 RES1   0.0000
     9 N9       6.4732   5.1246  10.4722   N.2       1 RES1   0.0000
    10 N10      5.2209   5.5831  10.6133   N.pl3     1 RES1   0.0000
    11 C11      5.0353   6.8767  11.0272   C.2       1 RES1   0.0000
    12 C12      3.5896   7.1384  11.0505   C.2       1 RES1   0.0000
    13 C13      3.1666   8.5024  11.4442   C.3       1 RES1   0.0000
    14 C14      2.6659   6.2170  10.7535   C.2       1 RES1   0.0000
    15 N15      2.9349   4.9981  10.3985   N.2       1 RES1   0.0000
    16 C16      4.2442   4.6769  10.3111   C.2       1 RES1   0.0000
    17 C17      5.8903  -0.6075   7.8664   C.2       1 RES1   0.0000
    18 C18      5.4709  -1.5366   6.9370   C.2       1 RES1   0.0000
    19 C19      6.3732  -2.1098   6.0691   C.2       1 RES1   0.0000
    20 C20      7.7007  -1.7407   6.1343   C.2       1 RES1   0.0000
    21 O21      8.6104  -2.3221   5.2699   O.3       1 RES1   0.0000
    22 C22      9.1008  -1.3499   4.3504   C.3       1 RES1   0.0000
    23 F23      9.7925  -0.3423   4.9463   F         1 RES1   0.0000
    24 F24      8.1032  -0.8030   3.6152   F         1 RES1   0.0000
    25 F25      9.9407  -2.0062   3.5133   F         1 RES1   0.0000
    26 C26      8.1362  -0.8192   7.0602   C.2       1 RES1   0.0000
    27 C27      7.2227  -0.2556   7.9216   C.2       1 RES1   0.0000
@<TRIPOS>BOND
     1     1     2    1
     2     3     2    1
     3     3     4    1
     4     4     5   am
     5     5     6    2
     6     5     7    1
     7     7     8    1
     8     8     9    2
     9     9    10    1
    10    10    11    1
    11    11    12    2
    12    12    13    1
    13    12    14    1
    14    14    15    2
    15    15    16    1
    16     3    17    1
    17    17    18    2
    18    18    19    1
    19    19    20    2
    20    20    21    1
    21    21    22    1
    22    22    23    1
    23    22    24    1
    24    22    25    1
    25    20    26    1
    26    26    27    2
    27    16     7    2
    28    27    17    1
    29    16    10    1
@<TRIPOS>SUBSTRUCTURE
     1 RES1        1 GROUP             0 ****  ****    0  
@<TRIPOS>MOLECULE
ligand_59
    27    29     1     0     0
SMALL
NO_CHARGES
****
Generated from the CSD

@<TRIPOS>ATOM
     1 C1       3.4689   2.0628   8.8632   C.3       1 RES1   0.0000
     2 C2       4.4893   1.2686   8.0827   C.3       1 RES1   0.0000
     3 C3       4.9029   0.0020   8.8099   C.3       1 RES1   0.0000
     4 N4       3.7633  -0.8576   9.0172   N.am      1 RES1   0.0000
     5 C5       3.0150  -0.7474  10.1586   C.2       1 RES1   0.0000
     6 O6       3.2385   0.0447  11.0624   O.2       1 RES1   0.0000
     7 C7       1.9053  -1.6626  10.2233   C.2       1 RES1   0.0000
     8 C8       1.5317  -2.6216   9.2496   C.2       1 RES1   0.0000
     9 N9       0.4520  -3.3176   9.6101   N.2       1 RES1   0.0000
    10 N10      0.1401  -2.7970  10.8059   N.pl3     1 RES1   0.0000
    11 C11     -0.9456  -3.2948  11.4787   C.2       1 RES1   0.0000
    12 C12     -1.0353  -2.5954  12.7678   C.2       1 RES1   0.0000
    13 C13     -2.1326  -3.0077  13.6736   C.3       1 RES1   0.0000
    14 C14     -0.1994  -1.6191  13.1397   C.2       1 RES1   0.0000
    15 N15      0.7900  -1.1878  12.4191   N.2       1 RES1   0.0000
    16 C16      0.9744  -1.8016  11.2298   C.2       1 RES1   0.0000
    17 C17      5.9655  -0.6718   8.0015   C.2       1 RES1   0.0000
    18 C18      5.6214  -1.6485   7.0902   C.2       1 RES1   0.0000
    19 C19      6.5928  -2.2807   6.3468   C.2       1 RES1   0.0000
    20 C20      7.9140  -1.9230   6.5182   C.2       1 RES1   0.0000
    21 O21      8.8922  -2.5633   5.7795   O.3       1 RES1   0.0000
    22 C22      9.4839  -1.6513   4.8580   C.3       1 RES1   0.0000
    23 F23     10.1322  -0.6186   5.4598   F         1 RES1   0.0000
    24 F24      8.5701  -1.1369   4.0006   F         1 RES1   0.0000
    25 F25     10.3889  -2.3640   4.1439   F         1 RES1   0.0000
    26 C26      8.2743  -0.9543   7.4281   C.2       1 RES1   0.0000
    27 C27      7.2922  -0.3318   8.1646   C.2       1 RES1   0.0000
@<TRIPOS>BOND
     1     1     2    1
     2     3     2    1
     3     3     4    1
     4     4     5   am
     5     5     6    2
     6     5     7    1
     7     7     8    1
     8     8     9    2
     9     9    10    1
    10    10    11    1
    11    11    12    2
    12    12    13    1
    13    12    14    1
    14    14    15    2
    15    15    16    1
    16     3    17    1
    17    17    18    2
    18    18    19    1
    19    19    20    2
    20    20    21    1
    21    21    22    1
    22    22    23    1
    23    22    24    1
    24    22    25    1
    25    20    26    1
    26    26    27    2
    27    16     7    2
    28    27    17    1
    29    16    10    1
@<TRIPOS>SUBSTRUCTURE
     1 RES1        1 GROUP             0 ****  ****    0  
@<TRIPOS>MOLECULE
ligand_60
    27    29     1     0     0
SMALL
NO_CHARGES
****
Generated from the CSD

@<TRIPOS>ATOM
     1 C1       2.4702   0.6744   8.9131   C.3       1 RES1   0.0000
     2 C2       3.5346  -0.0247   8.1010   C.3       1 RES1   0.0000
     3 C3       4.8861  -0.0003   8.7918   C.3       1 RES1   0.0000
     4 N4       4.8053  -0.6349  10.0845   N.am      1 RES1   0.0000
     5 C5       5.6181  -0.2233  11.1067   C.2       1 RES1   0.0000
     6 O6       6.4291   0.6877  11.0260   O.2       1 RES1   0.0000
     7 C7       5.4453  -0.9650  12.3288   C.2       1 RES1   0.0000
     8 C8       6.1411  -0.7751  13.5482   C.2       1 RES1   0.0000
     9 N9       5.7476  -1.6282  14.4957   N.2       1 RES1   0.0000
    10 N10      4.8095  -2.3591  13.8761   N.pl3     1 RES1   0.0000
    11 C11      4.1786  -3.3535  14.5778   C.2       1 RES1   0.0000
    12 C12      3.1731  -3.9592  13.6939   C.2       1 RES1   0.0000
    13 C13      2.3479  -5.0457  14.2710   C.3       1 RES1   0.0000
    14 C14      2.9881  -3.5900  12.4212   C.2       1 RES1   0.0000
    15 N15      3.6583  -2.6516  11.8258   N.2       1 RES1   0.0000
    16 C16      4.5810  -2.0096  12.5753   C.2       1 RES1   0.0000
    17 C17      5.8754  -0.6815   7.9009   C.2       1 RES1   0.0000
    18 C18      5.4646  -1.2136   6.6963   C.2       1 RES1   0.0000
    19 C19      6.3658  -1.8500   5.8725   C.2       1 RES1   0.0000
    20 C20      7.6859  -1.9447   6.2612   C.2       1 RES1   0.0000
    21 O21      8.5909  -2.5918   5.4396   O.3       1 RES1   0.0000
    22 C22      9.1621  -1.6669   4.5180   C.3       1 RES1   0.0000
    23 F23      9.8247  -0.6433   5.1195   F         1 RES1   0.0000
    24 F24      8.2292  -1.1399   3.6892   F         1 RES1   0.0000
    25 F25     10.0499  -2.3697   3.7732   F         1 RES1   0.0000
    26 C26      8.1106  -1.4241   7.4631   C.2       1 RES1   0.0000
    27 C27      7.1980  -0.7916   8.2764   C.2       1 RES1   0.0000
@<TRIPOS>BOND
     1     1     2    1
     2     3     2    1
     3     3     4    1
     4     4     5   am
     5     5     6    2
     6     5     7    1
     7     7     8    1
     8     8     9    2
     9     9    10    1
    10    10    11    1
    11    11    12    2
    12    12    13    1
    13    12    14    1
    14    14    15    2
    15    15    16    1
    16     3    17    1
    17    17    18    2
    18    18    19    1
    19    19    20    2
    20    20    21    1
    21    21    22    1
    22    22    23    1
    23    22    24    1
    24    22    25    1
    25    20    26    1
    26    26    27    2
    27    16     7    2
    28    27    17    1
    29    16    10    1
@<TRIPOS>SUBSTRUCTURE
     1 RES1        1 GROUP             0 ****  ****    0  
@<TRIPOS>MOLECULE
ligand_61
    27    29     1     0     0
SMALL
NO_CHARGES
****
Generated from the CSD

@<TRIPOS>ATOM
     1 C1       4.5760   1.1979  10.9998   C.3       1 RES1   0.0000
     2 C2       5.5763   0.5633  10.0628   C.3       1 RES1   0.0000
     3 C3       4.9280   0.0847   8.7765   C.3       1 RES1   0.0000
     4 N4       4.2912   1.1828   8.0916   N.am      1 RES1   0.0000
     5 C5       3.1796   0.9643   7.3225   C.2       1 RES1   0.0000
     6 O6       2.6411  -0.1228   7.1723   O.2       1 RES1   0.0000
     7 C7       2.6695   2.1471   6.6790   C.2       1 RES1   0.0000
     8 C8       1.5428   2.2356   5.8245   C.2       1 RES1   0.0000
     9 N9       1.3320   3.4789   5.3890   N.2       1 RES1   0.0000
    10 N10      2.3252   4.1742   5.9619   N.pl3     1 RES1   0.0000
    11 C11      2.4100   5.5214   5.7229   C.2       1 RES1   0.0000
    12 C12      3.5415   6.0457   6.5000   C.2       1 RES1   0.0000
    13 C13      3.7931   7.5027   6.4089   C.3       1 RES1   0.0000
    14 C14      4.3398   5.2803   7.2533   C.2       1 RES1   0.0000
    15 N15      4.2021   3.9980   7.3974   N.2       1 RES1   0.0000
    16 C16      3.1605   3.4328   6.7487   C.2       1 RES1   0.0000
    17 C17      5.9848  -0.5558   7.9340   C.2       1 RES1   0.0000
    18 C18      7.2886  -0.6006   8.3822   C.2       1 RES1   0.0000
    19 C19      8.2706  -1.1807   7.6107   C.2       1 RES1   0.0000
    20 C20      7.9361  -1.7225   6.3870   C.2       1 RES1   0.0000
    21 O21      8.9225  -2.2971   5.6063   O.3       1 RES1   0.0000
    22 C22      9.4860  -1.3209   4.7343   C.3       1 RES1   0.0000
    23 F23     10.0494  -0.2711   5.3896   F         1 RES1   0.0000
    24 F24      8.5701  -0.8350   3.8626   F         1 RES1   0.0000
    25 F25     10.4558  -1.9532   4.0298   F         1 RES1   0.0000
    26 C26      6.6404  -1.6804   5.9229   C.2       1 RES1   0.0000
    27 C27      5.6699  -1.0964   6.7049   C.2       1 RES1   0.0000
@<TRIPOS>BOND
     1     1     2    1
     2     3     2    1
     3     3     4    1
     4     4     5   am
     5     5     6    2
     6     5     7    1
     7     7     8    1
     8     8     9    2
     9     9    10    1
    10    10    11    1
    11    11    12    2
    12    12    13    1
    13    12    14    1
    14    14    15    2
    15    15    16    1
    16     3    17    1
    17    17    18    2
    18    18    19    1
    19    19    20    2
    20    20    21    1
    21    21    22    1
    22    22    23    1
    23    22    24    1
    24    22    25    1
    25    20    26    1
    26    26    27    2
    27    16     7    2
    28    27    17    1
    29    16    10    1
@<TRIPOS>SUBSTRUCTURE
     1 RES1        1 GROUP             0 ****  ****    0  
@<TRIPOS>MOLECULE
ligand_62
    27    29     1     0     0
SMALL
NO_CHARGES
****
Generated from the CSD

@<TRIPOS>ATOM
     1 C1       6.3025   2.0436   9.1417   C.3       1 RES1   0.0000
     2 C2       4.9927   1.5039   8.6180   C.3       1 RES1   0.0000
     3 C3       4.8861  -0.0003   8.7918   C.3       1 RES1   0.0000
     4 N4       3.5565  -0.4545   8.4656   N.am      1 RES1   0.0000
     5 C5       3.1722  -1.7342   8.7649   C.2       1 RES1   0.0000
     6 O6       3.8850  -2.5645   9.3097   O.2       1 RES1   0.0000
     7 C7       1.8203  -2.0462   8.3796   C.2       1 RES1   0.0000
     8 C8       1.0939  -1.4975   7.2941   C.2       1 RES1   0.0000
     9 N9      -0.1403  -1.9964   7.2049   N.2       1 RES1   0.0000
    10 N10     -0.1965  -2.8543   8.2339   N.pl3     1 RES1   0.0000
    11 C11     -1.3533  -3.5601   8.4413   C.2       1 RES1   0.0000
    12 C12     -1.1351  -4.4545   9.5866   C.2       1 RES1   0.0000
    13 C13     -2.2621  -5.3385   9.9646   C.3       1 RES1   0.0000
    14 C14      0.0020  -4.4911  10.2909   C.2       1 RES1   0.0000
    15 N15      1.0432  -3.7584  10.0395   N.2       1 RES1   0.0000
    16 C16      0.9481  -2.9308   8.9759   C.2       1 RES1   0.0000
    17 C17      5.9199  -0.6426   7.9227   C.2       1 RES1   0.0000
    18 C18      5.5674  -1.1353   6.6834   C.2       1 RES1   0.0000
    19 C19      6.5098  -1.7359   5.8790   C.2       1 RES1   0.0000
    20 C20      7.8123  -1.8344   6.3225   C.2       1 RES1   0.0000
    21 O21      8.7585  -2.4456   5.5201   O.3       1 RES1   0.0000
    22 C22      9.3614  -1.4849   4.6573   C.3       1 RES1   0.0000
    23 F23      9.9877  -0.4780   5.3226   F         1 RES1   0.0000
    24 F24      8.4614  -0.9362   3.8066   F         1 RES1   0.0000
    25 F25     10.2875  -2.1547   3.9288   F         1 RES1   0.0000
    26 C26      8.1788  -1.3529   7.5594   C.2       1 RES1   0.0000
    27 C27      7.2255  -0.7560   8.3526   C.2       1 RES1   0.0000
@<TRIPOS>BOND
     1     1     2    1
     2     3     2    1
     3     3     4    1
     4     4     5   am
     5     5     6    2
     6     5     7    1
     7     7     8    1
     8     8     9    2
     9     9    10    1
    10    10    11    1
    11    11    12    2
    12    12    13    1
    13    12    14    1
    14    14    15    2
    15    15    16    1
    16     3    17    1
    17    17    18    2
    18    18    19    1
    19    19    20    2
    20    20    21    1
    21    21    22    1
    22    22    23    1
    23    22    24    1
    24    22    25    1
    25    20    26    1
    26    26    27    2
    27    16     7    2
    28    27    17    1
    29    16    10    1
@<TRIPOS>SUBSTRUCTURE
     1 RES1        1 GROUP             0 ****  ****    0  
@<TRIPOS>MOLECULE
ligand_63
    27    29     1     0     0
SMALL
NO_CHARGES
****
Generated from the CSD

@<TRIPOS>ATOM
     1 C1       3.3240  -1.8380   8.5855   C.3       1 RES1   0.0000
     2 C2       4.1489  -0.9851   9.5199   C.3       1 RES1   0.0000
     3 C3       4.9280   0.0847   8.7765   C.3       1 RES1   0.0000
     4 N4       5.5457   0.9987   9.7057   N.am      1 RES1   0.0000
     5 C5       6.1068   2.1642   9.2566   C.2       1 RES1   0.0000
     6 O6       6.1319   2.5179   8.0867   O.2       1 RES1   0.0000
     7 C7       6.6869   2.9748  10.2957   C.2       1 RES1   0.0000
     8 C8       7.2622   2.5237  11.5093   C.2       1 RES1   0.0000
     9 N9       7.7129   3.5287  12.2622   N.2       1 RES1   0.0000
    10 N10      7.4189   4.6128  11.5298   N.pl3     1 RES1   0.0000
    11 C11      7.7546   5.8491  12.0180   C.2       1 RES1   0.0000
    12 C12      7.3731   6.8489  11.0111   C.2       1 RES1   0.0000
    13 C13      7.6793   8.2631  11.3283   C.3       1 RES1   0.0000
    14 C14      6.7645   6.5441   9.8590   C.2       1 RES1   0.0000
    15 N15      6.4548   5.3389   9.4907   N.2       1 RES1   0.0000
    16 C16      6.8040   4.3471  10.3390   C.2       1 RES1   0.0000
    17 C17      5.9411  -0.5951   7.9115   C.2       1 RES1   0.0000
    18 C18      7.2450  -0.7171   8.3448   C.2       1 RES1   0.0000
    19 C19      8.1873  -1.3340   7.5527   C.2       1 RES1   0.0000
    20 C20      7.8126  -1.8348   6.3232   C.2       1 RES1   0.0000
    21 O21      8.7595  -2.4464   5.5219   O.3       1 RES1   0.0000
    22 C22      9.3654  -1.4854   4.6614   C.3       1 RES1   0.0000
    23 F23      9.9900  -0.4791   5.3291   F         1 RES1   0.0000
    24 F24      8.4681  -0.9359   3.8083   F         1 RES1   0.0000
    25 F25     10.2934  -2.1551   3.9353   F         1 RES1   0.0000
    26 C26      6.5165  -1.7157   5.8738   C.2       1 RES1   0.0000
    27 C27      5.5860  -1.0958   6.6764   C.2       1 RES1   0.0000
@<TRIPOS>BOND
     1     1     2    1
     2     3     2    1
     3     3     4    1
     4     4     5   am
     5     5     6    2
     6     5     7    1
     7     7     8    1
     8     8     9    2
     9     9    10    1
    10    10    11    1
    11    11    12    2
    12    12    13    1
    13    12    14    1
    14    14    15    2
    15    15    16    1
    16     3    17    1
    17    17    18    2
    18    18    19    1
    19    19    20    2
    20    20    21    1
    21    21    22    1
    22    22    23    1
    23    22    24    1
    24    22    25    1
    25    20    26    1
    26    26    27    2
    27    16     7    2
    28    27    17    1
    29    16    10    1
@<TRIPOS>SUBSTRUCTURE
     1 RES1        1 GROUP             0 ****  ****    0  
@<TRIPOS>MOLECULE
ligand_64
    27    29     1     0     0
SMALL
NO_CHARGES
****
Generated from the CSD

@<TRIPOS>ATOM
     1 C1       4.5397   0.8035  11.1619   C.3       1 RES1   0.0000
     2 C2       5.5354   0.2580  10.1659   C.3       1 RES1   0.0000
     3 C3       4.9029   0.0020   8.8099   C.3       1 RES1   0.0000
     4 N4       4.4085   1.2320   8.2417   N.am      1 RES1   0.0000
     5 C5       3.3502   1.2140   7.3729   C.2       1 RES1   0.0000
     6 O6       2.7593   0.2043   7.0183   O.2       1 RES1   0.0000
     7 C7       2.9670   2.5144   6.8878   C.2       1 RES1   0.0000
     8 C8       3.5591   3.7579   7.2198   C.2       1 RES1   0.0000
     9 N9       2.9707   4.7824   6.5998   N.2       1 RES1   0.0000
    10 N10      2.0058   4.1895   5.8818   N.pl3     1 RES1   0.0000
    11 C11      1.1898   4.9690   5.1035   C.2       1 RES1   0.0000
    12 C12      0.2637   4.0785   4.3904   C.2       1 RES1   0.0000
    13 C13     -0.6945   4.7212   3.4612   C.3       1 RES1   0.0000
    14 C14      0.2414   2.7506   4.5528   C.2       1 RES1   0.0000
    15 N15      1.0375   2.0955   5.3410   N.2       1 RES1   0.0000
    16 C16      1.9524   2.8304   6.0104   C.2       1 RES1   0.0000
    17 C17      5.9294  -0.6406   7.9324   C.2       1 RES1   0.0000
    18 C18      5.5744  -1.6941   7.1158   C.2       1 RES1   0.0000
    19 C19      6.5137  -2.2980   6.3102   C.2       1 RES1   0.0000
    20 C20      7.8128  -1.8346   6.3233   C.2       1 RES1   0.0000
    21 O21      8.7600  -2.4458   5.5220   O.3       1 RES1   0.0000
    22 C22      9.1824  -1.5514   4.4960   C.3       1 RES1   0.0000
    23 F23      9.8034  -0.4387   4.9703   F         1 RES1   0.0000
    24 F24      8.1495  -1.1594   3.7121   F         1 RES1   0.0000
    25 F25     10.0652  -2.2384   3.7308   F         1 RES1   0.0000
    26 C26      8.1844  -0.7879   7.1372   C.2       1 RES1   0.0000
    27 C27      7.2347  -0.1949   7.9376   C.2       1 RES1   0.0000
@<TRIPOS>BOND
     1     1     2    1
     2     3     2    1
     3     3     4    1
     4     4     5   am
     5     5     6    2
     6     5     7    1
     7     7     8    1
     8     8     9    2
     9     9    10    1
    10    10    11    1
    11    11    12    2
    12    12    13    1
    13    12    14    1
    14    14    15    2
    15    15    16    1
    16     3    17    1
    17    17    18    2
    18    18    19    1
    19    19    20    2
    20    20    21    1
    21    21    22    1
    22    22    23    1
    23    22    24    1
    24    22    25    1
    25    20    26    1
    26    26    27    2
    27    16     7    2
    28    27    17    1
    29    16    10    1
@<TRIPOS>SUBSTRUCTURE
     1 RES1        1 GROUP             0 ****  ****    0  
@<TRIPOS>MOLECULE
ligand_65
    27    29     1     0     0
SMALL
NO_CHARGES
****
Generated from the CSD

@<TRIPOS>ATOM
     1 C1       2.4405   0.5661   8.8592   C.3       1 RES1   0.0000
     2 C2       3.5524  -0.0860   8.0721   C.3       1 RES1   0.0000
     3 C3       4.8861  -0.0003   8.7918   C.3       1 RES1   0.0000
     4 N4       4.8053  -0.6349  10.0845   N.am      1 RES1   0.0000
     5 C5       5.3772  -0.0443  11.1795   C.2       1 RES1   0.0000
     6 O6       5.9776   1.0203  11.1609   O.2       1 RES1   0.0000
     7 C7       5.2168  -0.7914  12.4000   C.2       1 RES1   0.0000
     8 C8       5.1086  -2.1978  12.5320   C.2       1 RES1   0.0000
     9 N9       4.9686  -2.5794  13.8028   N.2       1 RES1   0.0000
    10 N10      4.9829  -1.4177  14.4724   N.pl3     1 RES1   0.0000
    11 C11      4.8597  -1.4421  15.8375   C.2       1 RES1   0.0000
    12 C12      4.9562  -0.0585  16.3225   C.2       1 RES1   0.0000
    13 C13      4.8780   0.1397  17.7885   C.3       1 RES1   0.0000
    14 C14      5.0929   1.0005  15.5162   C.2       1 RES1   0.0000
    15 N15      5.1707   0.9311  14.2227   N.2       1 RES1   0.0000
    16 C16      5.1303  -0.3089  13.6879   C.2       1 RES1   0.0000
    17 C17      5.9237  -0.6391   7.9247   C.2       1 RES1   0.0000
    18 C18      5.5633  -1.1899   6.7124   C.2       1 RES1   0.0000
    19 C19      6.5095  -1.7877   5.9103   C.2       1 RES1   0.0000
    20 C20      7.8234  -1.8248   6.3286   C.2       1 RES1   0.0000
    21 O21      8.7737  -2.4331   5.5289   O.3       1 RES1   0.0000
    22 C22      9.3249  -1.4855   4.6183   C.3       1 RES1   0.0000
    23 F23      9.9290  -0.4334   5.2323   F         1 RES1   0.0000
    24 F24      8.3890  -1.0002   3.7677   F         1 RES1   0.0000
    25 F25     10.2588  -2.1501   3.8950   F         1 RES1   0.0000
    26 C26      8.1981  -1.2849   7.5386   C.2       1 RES1   0.0000
    27 C27      7.2410  -0.6915   8.3299   C.2       1 RES1   0.0000
@<TRIPOS>BOND
     1     1     2    1
     2     3     2    1
     3     3     4    1
     4     4     5   am
     5     5     6    2
     6     5     7    1
     7     7     8    1
     8     8     9    2
     9     9    10    1
    10    10    11    1
    11    11    12    2
    12    12    13    1
    13    12    14    1
    14    14    15    2
    15    15    16    1
    16     3    17    1
    17    17    18    2
    18    18    19    1
    19    19    20    2
    20    20    21    1
    21    21    22    1
    22    22    23    1
    23    22    24    1
    24    22    25    1
    25    20    26    1
    26    26    27    2
    27    16     7    2
    28    27    17    1
    29    16    10    1
@<TRIPOS>SUBSTRUCTURE
     1 RES1        1 GROUP             0 ****  ****    0  
@<TRIPOS>MOLECULE
ligand_66
    27    29     1     0     0
SMALL
NO_CHARGES
****
Generated from the CSD

@<TRIPOS>ATOM
     1 C1       2.4441   0.5805   8.8665   C.3       1 RES1   0.0000
     2 C2       3.5498  -0.0779   8.0759   C.3       1 RES1   0.0000
     3 C3       4.8861  -0.0003   8.7918   C.3       1 RES1   0.0000
     4 N4       4.8053  -0.6349  10.0845   N.am      1 RES1   0.0000
     5 C5       4.9540   0.1056  11.2267   C.2       1 RES1   0.0000
     6 O6       5.1572   1.3107  11.2522   O.2       1 RES1   0.0000
     7 C7       4.8507  -0.6614  12.4409   C.2       1 RES1   0.0000
     8 C8       4.9643  -0.1786  13.7680   C.2       1 RES1   0.0000
     9 N9       4.8194  -1.1464  14.6748   N.2       1 RES1   0.0000
    10 N10      4.6199  -2.2393  13.9239   N.pl3     1 RES1   0.0000
    11 C11      4.4273  -3.4433  14.5502   C.2       1 RES1   0.0000
    12 C12      4.1842  -4.4558  13.5134   C.2       1 RES1   0.0000
    13 C13      3.9185  -5.8362  13.9807   C.3       1 RES1   0.0000
    14 C14      4.2070  -4.1921  12.2018   C.2       1 RES1   0.0000
    15 N15      4.4301  -3.0187  11.6943   N.2       1 RES1   0.0000
    16 C16      4.6261  -2.0143  12.5763   C.2       1 RES1   0.0000
    17 C17      5.9174  -0.6449   7.9215   C.2       1 RES1   0.0000
    18 C18      5.5503  -1.1931   6.7100   C.2       1 RES1   0.0000
    19 C19      6.4906  -1.7961   5.9050   C.2       1 RES1   0.0000
    20 C20      7.8055  -1.8411   6.3195   C.2       1 RES1   0.0000
    21 O21      8.7499  -2.4547   5.5168   O.3       1 RES1   0.0000
    22 C22      9.3040  -1.5100   4.6049   C.3       1 RES1   0.0000
    23 F23      9.9161  -0.4618   5.2175   F         1 RES1   0.0000
    24 F24      8.3685  -1.0190   3.7573   F         1 RES1   0.0000
    25 F25     10.2318  -2.1798   3.8787   F         1 RES1   0.0000
    26 C26      8.1869  -1.3039   7.5286   C.2       1 RES1   0.0000
    27 C27      7.2356  -0.7052   8.3228   C.2       1 RES1   0.0000
@<TRIPOS>BOND
     1     1     2    1
     2     3     2    1
     3     3     4    1
     4     4     5   am
     5     5     6    2
     6     5     7    1
     7     7     8    1
     8     8     9    2
     9     9    10    1
    10    10    11    1
    11    11    12    2
    12    12    13    1
    13    12    14    1
    14    14    15    2
    15    15    16    1
    16     3    17    1
    17    17    18    2
    18    18    19    1
    19    19    20    2
    20    20    21    1
    21    21    22    1
    22    22    23    1
    23    22    24    1
    24    22    25    1
    25    20    26    1
    26    26    27    2
    27    16     7    2
    28    27    17    1
    29    16    10    1
@<TRIPOS>SUBSTRUCTURE
     1 RES1        1 GROUP             0 ****  ****    0  
@<TRIPOS>MOLECULE
ligand_67
    27    29     1     0     0
SMALL
NO_CHARGES
****
Generated from the CSD

@<TRIPOS>ATOM
     1 C1       4.6717   1.2471  10.9877   C.3       1 RES1   0.0000
     2 C2       5.6276   0.5737  10.0317   C.3       1 RES1   0.0000
     3 C3       4.9280   0.0847   8.7765   C.3       1 RES1   0.0000
     4 N4       4.2912   1.1828   8.0916   N.am      1 RES1   0.0000
     5 C5       2.9273   1.2273   7.9788   C.2       1 RES1   0.0000
     6 O6       2.1649   0.3834   8.4270   O.2       1 RES1   0.0000
     7 C7       2.4344   2.3795   7.2698   C.2       1 RES1   0.0000
     8 C8       1.0818   2.6970   6.9923   C.2       1 RES1   0.0000
     9 N9       0.9569   3.8391   6.3140   N.2       1 RES1   0.0000
    10 N10      2.2269   4.2405   6.1581   N.pl3     1 RES1   0.0000
    11 C11      2.4706   5.4115   5.4884   C.2       1 RES1   0.0000
    12 C12      3.9214   5.6438   5.5022   C.2       1 RES1   0.0000
    13 C13      4.4027   6.8850   4.8523   C.3       1 RES1   0.0000
    14 C14      4.8013   4.7970   6.0490   C.2       1 RES1   0.0000
    15 N15      4.4799   3.6872   6.6398   N.2       1 RES1   0.0000
    16 C16      3.1598   3.4089   6.7102   C.2       1 RES1   0.0000
    17 C17      5.9436  -0.5929   7.9127   C.2       1 RES1   0.0000
    18 C18      7.2599  -0.6580   8.3200   C.2       1 RES1   0.0000
    19 C19      8.2043  -1.2724   7.5285   C.2       1 RES1   0.0000
    20 C20      7.8194  -1.8282   6.3261   C.2       1 RES1   0.0000
    21 O21      8.7681  -2.4375   5.5251   O.3       1 RES1   0.0000
    22 C22      9.3235  -1.4889   4.6180   C.3       1 RES1   0.0000
    23 F23      9.9295  -0.4402   5.2359   F         1 RES1   0.0000
    24 F24      8.3906  -0.9988   3.7671   F         1 RES1   0.0000
    25 F25     10.2568  -2.1542   3.8947   F         1 RES1   0.0000
    26 C26      6.5106  -1.7663   5.9026   C.2       1 RES1   0.0000
    27 C27      5.5782  -1.1481   6.7042   C.2       1 RES1   0.0000
@<TRIPOS>BOND
     1     1     2    1
     2     3     2    1
     3     3     4    1
     4     4     5   am
     5     5     6    2
     6     5     7    1
     7     7     8    1
     8     8     9    2
     9     9    10    1
    10    10    11    1
    11    11    12    2
    12    12    13    1
    13    12    14    1
    14    14    15    2
    15    15    16    1
    16     3    17    1
    17    17    18    2
    18    18    19    1
    19    19    20    2
    20    20    21    1
    21    21    22    1
    22    22    23    1
    23    22    24    1
    24    22    25    1
    25    20    26    1
    26    26    27    2
    27    16     7    2
    28    27    17    1
    29    16    10    1
@<TRIPOS>SUBSTRUCTURE
     1 RES1        1 GROUP             0 ****  ****    0  
@<TRIPOS>MOLECULE
ligand_68
    27    29     1     0     0
SMALL
NO_CHARGES
****
Generated from the CSD

@<TRIPOS>ATOM
     1 C1       3.5869  -0.3626  10.9101   C.3       1 RES1   0.0000
     2 C2       4.6640  -0.8972   9.9961   C.3       1 RES1   0.0000
     3 C3       4.8861  -0.0003   8.7918   C.3       1 RES1   0.0000
     4 N4       5.2861   1.3205   9.2113   N.am      1 RES1   0.0000
     5 C5       4.7512   2.4272   8.6080   C.2       1 RES1   0.0000
     6 O6       3.7482   2.4214   7.9093   O.2       1 RES1   0.0000
     7 C7       5.4785   3.6436   8.8627   C.2       1 RES1   0.0000
     8 C8       5.1709   4.9393   8.3792   C.2       1 RES1   0.0000
     9 N9       6.0436   5.8579   8.7972   N.2       1 RES1   0.0000
    10 N10      6.9038   5.1448   9.5386   N.pl3     1 RES1   0.0000
    11 C11      7.9532   5.7930  10.1368   C.2       1 RES1   0.0000
    12 C12      8.7044   4.8036  10.9216   C.2       1 RES1   0.0000
    13 C13      9.8731   5.3054  11.6812   C.3       1 RES1   0.0000
    14 C14      8.3935   3.5029  10.9650   C.2       1 RES1   0.0000
    15 N15      7.3921   2.9678  10.3366   N.2       1 RES1   0.0000
    16 C16      6.6187   3.8110   9.6182   C.2       1 RES1   0.0000
    17 C17      5.9181  -0.6411   7.9195   C.2       1 RES1   0.0000
    18 C18      5.5552  -1.1681   6.6974   C.2       1 RES1   0.0000
    19 C19      6.4960  -1.7674   5.8903   C.2       1 RES1   0.0000
    20 C20      7.8074  -1.8301   6.3136   C.2       1 RES1   0.0000
    21 O21      8.7523  -2.4401   5.5087   O.3       1 RES1   0.0000
    22 C22      9.3211  -1.4870   4.6148   C.3       1 RES1   0.0000
    23 F23      9.9379  -0.4532   5.2471   F         1 RES1   0.0000
    24 F24      8.3960  -0.9754   3.7679   F         1 RES1   0.0000
    25 F25     10.2483  -2.1542   3.8854   F         1 RES1   0.0000
    26 C26      8.1846  -1.3141   7.5333   C.2       1 RES1   0.0000
    27 C27      7.2327  -0.7188   8.3294   C.2       1 RES1   0.0000
@<TRIPOS>BOND
     1     1     2    1
     2     3     2    1
     3     3     4    1
     4     4     5   am
     5     5     6    2
     6     5     7    1
     7     7     8    1
     8     8     9    2
     9     9    10    1
    10    10    11    1
    11    11    12    2
    12    12    13    1
    13    12    14    1
    14    14    15    2
    15    15    16    1
    16     3    17    1
    17    17    18    2
    18    18    19    1
    19    19    20    2
    20    20    21    1
    21    21    22    1
    22    22    23    1
    23    22    24    1
    24    22    25    1
    25    20    26    1
    26    26    27    2
    27    16     7    2
    28    27    17    1
    29    16    10    1
@<TRIPOS>SUBSTRUCTURE
     1 RES1        1 GROUP             0 ****  ****    0  
@<TRIPOS>MOLECULE
ligand_69
    27    29     1     0     0
SMALL
NO_CHARGES
****
Generated from the CSD

@<TRIPOS>ATOM
     1 C1       3.4570   2.0572   8.9669   C.3       1 RES1   0.0000
     2 C2       4.4610   1.2988   8.1315   C.3       1 RES1   0.0000
     3 C3       4.8861  -0.0003   8.7918   C.3       1 RES1   0.0000
     4 N4       3.7471  -0.8619   8.9935   N.am      1 RES1   0.0000
     5 C5       3.5982  -1.5438  10.1715   C.2       1 RES1   0.0000
     6 O6       4.2074  -1.2932  11.2013   O.2       1 RES1   0.0000
     7 C7       2.6390  -2.6160  10.1118   C.2       1 RES1   0.0000
     8 C8       2.2717  -3.4923  11.1626   C.2       1 RES1   0.0000
     9 N9       1.3518  -4.3816  10.7844   N.2       1 RES1   0.0000
    10 N10      1.1414  -4.0723   9.4966   N.pl3     1 RES1   0.0000
    11 C11      0.2295  -4.8059   8.7829   C.2       1 RES1   0.0000
    12 C12      0.1532  -4.2359   7.4307   C.2       1 RES1   0.0000
    13 C13     -0.8067  -4.8673   6.4957   C.3       1 RES1   0.0000
    14 C14      0.9045  -3.2089   7.0171   C.2       1 RES1   0.0000
    15 N15      1.7715  -2.5902   7.7585   N.2       1 RES1   0.0000
    16 C16      1.8822  -3.0217   9.0340   C.2       1 RES1   0.0000
    17 C17      5.9217  -0.6442   7.9260   C.2       1 RES1   0.0000
    18 C18      5.5638  -1.1748   6.7040   C.2       1 RES1   0.0000
    19 C19      6.5080  -1.7771   5.9029   C.2       1 RES1   0.0000
    20 C20      7.8175  -1.8390   6.3321   C.2       1 RES1   0.0000
    21 O21      8.7657  -2.4519   5.5333   O.3       1 RES1   0.0000
    22 C22      9.3388  -1.5019   4.6390   C.3       1 RES1   0.0000
    23 F23      9.9532  -0.4664   5.2707   F         1 RES1   0.0000
    24 F24      8.4176  -0.9925   3.7864   F         1 RES1   0.0000
    25 F25     10.2688  -2.1717   3.9157   F         1 RES1   0.0000
    26 C26      8.1895  -1.3194   7.5518   C.2       1 RES1   0.0000
    27 C27      7.2344  -0.7213   8.3420   C.2       1 RES1   0.0000
@<TRIPOS>BOND
     1     1     2    1
     2     3     2    1
     3     3     4    1
     4     4     5   am
     5     5     6    2
     6     5     7    1
     7     7     8    1
     8     8     9    2
     9     9    10    1
    10    10    11    1
    11    11    12    2
    12    12    13    1
    13    12    14    1
    14    14    15    2
    15    15    16    1
    16     3    17    1
    17    17    18    2
    18    18    19    1
    19    19    20    2
    20    20    21    1
    21    21    22    1
    22    22    23    1
    23    22    24    1
    24    22    25    1
    25    20    26    1
    26    26    27    2
    27    16     7    2
    28    27    17    1
    29    16    10    1
@<TRIPOS>SUBSTRUCTURE
     1 RES1        1 GROUP             0 ****  ****    0  
@<TRIPOS>MOLECULE
ligand_70
    27    29     1     0     0
SMALL
NO_CHARGES
****
Generated from the CSD

@<TRIPOS>ATOM
     1 C1       4.1080  -2.2271   9.6532   C.3       1 RES1   0.0000
     2 C2       4.8336  -0.9434   9.9800   C.3       1 RES1   0.0000
     3 C3       4.8861  -0.0003   8.7918   C.3       1 RES1   0.0000
     4 N4       5.2861   1.3205   9.2113   N.am      1 RES1   0.0000
     5 C5       6.2337   1.4765  10.1873   C.2       1 RES1   0.0000
     6 O6       6.7603   0.5578  10.7980   O.2       1 RES1   0.0000
     7 C7       6.5802   2.8483  10.4549   C.2       1 RES1   0.0000
     8 C8       7.5172   3.3222  11.4060   C.2       1 RES1   0.0000
     9 N9       7.6091   4.6532  11.4090   N.2       1 RES1   0.0000
    10 N10      6.7292   5.0207  10.4662   N.pl3     1 RES1   0.0000
    11 C11      6.5667   6.3558  10.2006   C.2       1 RES1   0.0000
    12 C12      5.5950   6.4815   9.1056   C.2       1 RES1   0.0000
    13 C13      5.2949   7.8543   8.6367   C.3       1 RES1   0.0000
    14 C14      4.9769   5.4376   8.5412   C.2       1 RES1   0.0000
    15 N15      5.1713   4.2002   8.8806   N.2       1 RES1   0.0000
    16 C16      6.0807   3.9845   9.8561   C.2       1 RES1   0.0000
    17 C17      5.8330  -0.5728   7.7858   C.2       1 RES1   0.0000
    18 C18      5.3548  -1.0439   6.5807   C.2       1 RES1   0.0000
    19 C19      6.2171  -1.5804   5.6510   C.2       1 RES1   0.0000
    20 C20      7.5660  -1.6365   5.9343   C.2       1 RES1   0.0000
    21 O21      8.4327  -2.1836   5.0058   O.3       1 RES1   0.0000
    22 C22      8.8911  -1.1736   4.1109   C.3       1 RES1   0.0000
    23 F23      9.5528  -0.1608   4.7315   F         1 RES1   0.0000
    24 F24      7.8756  -0.6391   3.3913   F         1 RES1   0.0000
    25 F25      9.7489  -1.7822   3.2562   F         1 RES1   0.0000
    26 C26      8.0583  -1.1760   7.1350   C.2       1 RES1   0.0000
    27 C27      7.1840  -0.6432   8.0548   C.2       1 RES1   0.0000
@<TRIPOS>BOND
     1     1     2    1
     2     3     2    1
     3     3     4    1
     4     4     5   am
     5     5     6    2
     6     5     7    1
     7     7     8    1
     8     8     9    2
     9     9    10    1
    10    10    11    1
    11    11    12    2
    12    12    13    1
    13    12    14    1
    14    14    15    2
    15    15    16    1
    16     3    17    1
    17    17    18    2
    18    18    19    1
    19    19    20    2
    20    20    21    1
    21    21    22    1
    22    22    23    1
    23    22    24    1
    24    22    25    1
    25    20    26    1
    26    26    27    2
    27    16     7    2
    28    27    17    1
    29    16    10    1
@<TRIPOS>SUBSTRUCTURE
     1 RES1        1 GROUP             0 ****  ****    0  
@<TRIPOS>MOLECULE
ligand_71
    27    29     1     0     0
SMALL
NO_CHARGES
****
Generated from the CSD

@<TRIPOS>ATOM
     1 C1       5.6411   2.3535   7.9701   C.3       1 RES1   0.0000
     2 C2       4.5591   1.3001   7.9452   C.3       1 RES1   0.0000
     3 C3       4.9280   0.0847   8.7765   C.3       1 RES1   0.0000
     4 N4       3.7706  -0.7468   8.9986   N.am      1 RES1   0.0000
     5 C5       2.8416  -0.9149   8.0067   C.2       1 RES1   0.0000
     6 O6       2.8797  -0.3609   6.9177   O.2       1 RES1   0.0000
     7 C7       1.7773  -1.8230   8.3472   C.2       1 RES1   0.0000
     8 C8       0.6765  -2.1910   7.5349   C.2       1 RES1   0.0000
     9 N9      -0.1371  -3.0559   8.1433   N.2       1 RES1   0.0000
    10 N10      0.4443  -3.2306   9.3390   N.pl3     1 RES1   0.0000
    11 C11     -0.1426  -4.0816  10.2393   C.2       1 RES1   0.0000
    12 C12      0.7117  -4.1315  11.4338   C.2       1 RES1   0.0000
    13 C13      0.2721  -5.0265  12.5294   C.3       1 RES1   0.0000
    14 C14      1.8304  -3.4109  11.5741   C.2       1 RES1   0.0000
    15 N15      2.2976  -2.6008  10.6743   N.2       1 RES1   0.0000
    16 C16      1.5965  -2.5197   9.5223   C.2       1 RES1   0.0000
    17 C17      6.0130  -0.6553   8.0611   C.2       1 RES1   0.0000
    18 C18      7.2847  -0.6968   8.5941   C.2       1 RES1   0.0000
    19 C19      8.2927  -1.3684   7.9394   C.2       1 RES1   0.0000
    20 C20      8.0165  -2.0052   6.7474   C.2       1 RES1   0.0000
    21 O21      9.0297  -2.6725   6.0833   O.3       1 RES1   0.0000
    22 C22      9.6774  -1.7916   5.1692   C.3       1 RES1   0.0000
    23 F23     10.2336  -0.7046   5.7674   F         1 RES1   0.0000
    24 F24      8.8333  -1.3585   4.2024   F         1 RES1   0.0000
    25 F25     10.6674  -2.5092   4.5846   F         1 RES1   0.0000
    26 C26      6.7538  -1.9682   6.1992   C.2       1 RES1   0.0000
    27 C27      5.7568  -1.2921   6.8648   C.2       1 RES1   0.0000
@<TRIPOS>BOND
     1     1     2    1
     2     3     2    1
     3     3     4    1
     4     4     5   am
     5     5     6    2
     6     5     7    1
     7     7     8    1
     8     8     9    2
     9     9    10    1
    10    10    11    1
    11    11    12    2
    12    12    13    1
    13    12    14    1
    14    14    15    2
    15    15    16    1
    16     3    17    1
    17    17    18    2
    18    18    19    1
    19    19    20    2
    20    20    21    1
    21    21    22    1
    22    22    23    1
    23    22    24    1
    24    22    25    1
    25    20    26    1
    26    26    27    2
    27    16     7    2
    28    27    17    1
    29    16    10    1
@<TRIPOS>SUBSTRUCTURE
     1 RES1        1 GROUP             0 ****  ****    0  
@<TRIPOS>MOLECULE
ligand_72
    27    29     1     0     0
SMALL
NO_CHARGES
****
Generated from the CSD

@<TRIPOS>ATOM
     1 C1       3.4304   0.9591   6.9843   C.3       1 RES1   0.0000
     2 C2       3.5498  -0.0779   8.0759   C.3       1 RES1   0.0000
     3 C3       4.8861  -0.0003   8.7918   C.3       1 RES1   0.0000
     4 N4       4.8053  -0.6349  10.0845   N.am      1 RES1   0.0000
     5 C5       4.9540   0.1056  11.2267   C.2       1 RES1   0.0000
     6 O6       5.1574   1.3107  11.2522   O.2       1 RES1   0.0000
     7 C7       4.8504  -0.6614  12.4409   C.2       1 RES1   0.0000
     8 C8       4.6131  -2.0536  12.5535   C.2       1 RES1   0.0000
     9 N9       4.5727  -2.4609  13.8234   N.2       1 RES1   0.0000
    10 N10      4.7786  -1.3291  14.5124   N.pl3     1 RES1   0.0000
    11 C11      4.8016  -1.3859  15.8819   C.2       1 RES1   0.0000
    12 C12      5.0916  -0.0354  16.3832   C.2       1 RES1   0.0000
    13 C13      5.1930   0.1213  17.8527   C.3       1 RES1   0.0000
    14 C14      5.2486   1.0306  15.5898   C.2       1 RES1   0.0000
    15 N15      5.1786   0.9962  14.2944   N.2       1 RES1   0.0000
    16 C16      4.9536  -0.2153  13.7406   C.2       1 RES1   0.0000
    17 C17      5.9174  -0.6449   7.9215   C.2       1 RES1   0.0000
    18 C18      5.5739  -1.0906   6.6620   C.2       1 RES1   0.0000
    19 C19      6.5138  -1.6928   5.8560   C.2       1 RES1   0.0000
    20 C20      7.8050  -1.8405   6.3184   C.2       1 RES1   0.0000
    21 O21      8.7484  -2.4536   5.5142   O.3       1 RES1   0.0000
    22 C22      9.3929  -1.4847   4.6915   C.3       1 RES1   0.0000
    23 F23     10.0342  -0.5159   5.3979   F         1 RES1   0.0000
    24 F24      8.5237  -0.8860   3.8424   F         1 RES1   0.0000
    25 F25     10.3134  -2.1578   3.9592   F         1 RES1   0.0000
    26 C26      8.1623  -1.4064   7.5754   C.2       1 RES1   0.0000
    27 C27      7.2116  -0.8072   8.3699   C.2       1 RES1   0.0000
@<TRIPOS>BOND
     1     1     2    1
     2     3     2    1
     3     3     4    1
     4     4     5   am
     5     5     6    2
     6     5     7    1
     7     7     8    1
     8     8     9    2
     9     9    10    1
    10    10    11    1
    11    11    12    2
    12    12    13    1
    13    12    14    1
    14    14    15    2
    15    15    16    1
    16     3    17    1
    17    17    18    2
    18    18    19    1
    19    19    20    2
    20    20    21    1
    21    21    22    1
    22    22    23    1
    23    22    24    1
    24    22    25    1
    25    20    26    1
    26    26    27    2
    27    16     7    2
    28    27    17    1
    29    16    10    1
@<TRIPOS>SUBSTRUCTURE
     1 RES1        1 GROUP             0 ****  ****    0  
@<TRIPOS>MOLECULE
ligand_73
    27    29     1     0     0
SMALL
NO_CHARGES
****
Generated from the CSD

@<TRIPOS>ATOM
     1 C1       5.0762  -1.9301  10.3874   C.3       1 RES1   0.0000
     2 C2       4.1518  -1.1155   9.5138   C.3       1 RES1   0.0000
     3 C3       4.8861  -0.0003   8.7918   C.3       1 RES1   0.0000
     4 N4       5.4767   0.9131   9.7391   N.am      1 RES1   0.0000
     5 C5       5.0599   2.2163   9.7925   C.2       1 RES1   0.0000
     6 O6       4.1926   2.6983   9.0786   O.2       1 RES1   0.0000
     7 C7       5.7386   3.0093  10.7844   C.2       1 RES1   0.0000
     8 C8       5.5291   4.3810  11.0702   C.2       1 RES1   0.0000
     9 N9       6.3204   4.8223  12.0496   N.2       1 RES1   0.0000
    10 N10      7.0320   3.7346  12.3790   N.pl3     1 RES1   0.0000
    11 C11      7.9638   3.8345  13.3795   C.2       1 RES1   0.0000
    12 C12      8.5589   2.5051  13.5742   C.2       1 RES1   0.0000
    13 C13      9.5787   2.3825  14.6416   C.3       1 RES1   0.0000
    14 C14      8.2370   1.4353  12.8379   C.2       1 RES1   0.0000
    15 N15      7.3585   1.4408  11.8828   N.2       1 RES1   0.0000
    16 C16      6.7291   2.6147  11.6574   C.2       1 RES1   0.0000
    17 C17      5.9170  -0.6216   7.9042   C.2       1 RES1   0.0000
    18 C18      5.5495  -1.1369   6.6785   C.2       1 RES1   0.0000
    19 C19      6.4894  -1.7183   5.8574   C.2       1 RES1   0.0000
    20 C20      7.8044  -1.7748   6.2702   C.2       1 RES1   0.0000
    21 O21      8.7485  -2.3669   5.4511   O.3       1 RES1   0.0000
    22 C22      9.3028  -1.3981   4.5650   C.3       1 RES1   0.0000
    23 F23      9.9152  -0.3669   5.2055   F         1 RES1   0.0000
    24 F24      8.3674  -0.8841   3.7309   F         1 RES1   0.0000
    25 F25     10.2303  -2.0483   3.8209   F         1 RES1   0.0000
    26 C26      8.1862  -1.2703   7.4932   C.2       1 RES1   0.0000
    27 C27      7.2353  -0.6929   8.3035   C.2       1 RES1   0.0000
@<TRIPOS>BOND
     1     1     2    1
     2     3     2    1
     3     3     4    1
     4     4     5   am
     5     5     6    2
     6     5     7    1
     7     7     8    1
     8     8     9    2
     9     9    10    1
    10    10    11    1
    11    11    12    2
    12    12    13    1
    13    12    14    1
    14    14    15    2
    15    15    16    1
    16     3    17    1
    17    17    18    2
    18    18    19    1
    19    19    20    2
    20    20    21    1
    21    21    22    1
    22    22    23    1
    23    22    24    1
    24    22    25    1
    25    20    26    1
    26    26    27    2
    27    16     7    2
    28    27    17    1
    29    16    10    1
@<TRIPOS>SUBSTRUCTURE
     1 RES1        1 GROUP             0 ****  ****    0  
@<TRIPOS>MOLECULE
ligand_74
    27    29     1     0     0
SMALL
NO_CHARGES
****
Generated from the CSD

@<TRIPOS>ATOM
     1 C1       4.7475   1.8909   7.1454   C.3       1 RES1   0.0000
     2 C2       5.0036   1.4984   8.5812   C.3       1 RES1   0.0000
     3 C3       4.8861  -0.0003   8.7918   C.3       1 RES1   0.0000
     4 N4       3.5565  -0.4545   8.4656   N.am      1 RES1   0.0000
     5 C5       2.7582  -1.0027   9.4337   C.2       1 RES1   0.0000
     6 O6       3.0839  -1.1483  10.6029   O.2       1 RES1   0.0000
     7 C7       1.4603  -1.4108   8.9623   C.2       1 RES1   0.0000
     8 C8       0.4254  -2.0093   9.7225   C.2       1 RES1   0.0000
     9 N9      -0.6586  -2.2687   8.9892   N.2       1 RES1   0.0000
    10 N10     -0.3088  -1.8404   7.7675   N.pl3     1 RES1   0.0000
    11 C11     -1.2133  -1.9571   6.7440   C.2       1 RES1   0.0000
    12 C12     -0.6067  -1.3744   5.5392   C.2       1 RES1   0.0000
    13 C13     -1.4367  -1.3696   4.3122   C.3       1 RES1   0.0000
    14 C14      0.6344  -0.8758   5.5027   C.2       1 RES1   0.0000
    15 N15      1.4374  -0.8345   6.5213   N.2       1 RES1   0.0000
    16 C16      0.9493  -1.3141   7.6862   C.2       1 RES1   0.0000
    17 C17      5.9232  -0.6705   7.9481   C.2       1 RES1   0.0000
    18 C18      5.5728  -1.2149   6.7300   C.2       1 RES1   0.0000
    19 C19      6.5183  -1.8413   5.9493   C.2       1 RES1   0.0000
    20 C20      7.8217  -1.9137   6.3950   C.2       1 RES1   0.0000
    21 O21      8.7711  -2.5508   5.6168   O.3       1 RES1   0.0000
    22 C22      9.3672  -1.6218   4.7153   C.3       1 RES1   0.0000
    23 F23      9.9876  -0.5850   5.3390   F         1 RES1   0.0000
    24 F24      8.4630  -1.1134   3.8443   F         1 RES1   0.0000
    25 F25     10.2969  -2.3144   4.0134   F         1 RES1   0.0000
    26 C26      8.1862  -1.3806   7.6111   C.2       1 RES1   0.0000
    27 C27      7.2299  -0.7583   8.3808   C.2       1 RES1   0.0000
@<TRIPOS>BOND
     1     1     2    1
     2     3     2    1
     3     3     4    1
     4     4     5   am
     5     5     6    2
     6     5     7    1
     7     7     8    1
     8     8     9    2
     9     9    10    1
    10    10    11    1
    11    11    12    2
    12    12    13    1
    13    12    14    1
    14    14    15    2
    15    15    16    1
    16     3    17    1
    17    17    18    2
    18    18    19    1
    19    19    20    2
    20    20    21    1
    21    21    22    1
    22    22    23    1
    23    22    24    1
    24    22    25    1
    25    20    26    1
    26    26    27    2
    27    16     7    2
    28    27    17    1
    29    16    10    1
@<TRIPOS>SUBSTRUCTURE
     1 RES1        1 GROUP             0 ****  ****    0  
@<TRIPOS>MOLECULE
ligand_75
    27    29     1     0     0
SMALL
NO_CHARGES
****
Generated from the CSD

@<TRIPOS>ATOM
     1 C1       5.9296  -1.0328  10.8292   C.3       1 RES1   0.0000
     2 C2       4.6771  -0.9010   9.9956   C.3       1 RES1   0.0000
     3 C3       4.8861  -0.0003   8.7918   C.3       1 RES1   0.0000
     4 N4       5.2861   1.3205   9.2113   N.am      1 RES1   0.0000
     5 C5       5.3249   2.3488   8.3079   C.2       1 RES1   0.0000
     6 O6       5.0382   2.2450   7.1241   O.2       1 RES1   0.0000
     7 C7       5.7418   3.6075   8.8691   C.2       1 RES1   0.0000
     8 C8       5.8819   4.8415   8.1874   C.2       1 RES1   0.0000
     9 N9       6.2877   5.8241   8.9937   N.2       1 RES1   0.0000
    10 N10      6.4090   5.2125  10.1809   N.pl3     1 RES1   0.0000
    11 C11      6.8166   5.9487  11.2630   C.2       1 RES1   0.0000
    12 C12      6.8178   5.0626  12.4351   C.2       1 RES1   0.0000
    13 C13      7.2015   5.6720  13.7297   C.3       1 RES1   0.0000
    14 C14      6.5096   3.7617  12.3796   C.2       1 RES1   0.0000
    15 N15      6.1620   3.1369  11.2966   N.2       1 RES1   0.0000
    16 C16      6.0948   3.8830  10.1723   C.2       1 RES1   0.0000
    17 C17      5.9122  -0.6359   7.9088   C.2       1 RES1   0.0000
    18 C18      5.5228  -1.2701   6.7473   C.2       1 RES1   0.0000
    19 C19      6.4587  -1.8655   5.9315   C.2       1 RES1   0.0000
    20 C20      7.7913  -1.8160   6.2844   C.2       1 RES1   0.0000
    21 O21      8.7320  -2.4215   5.4713   O.3       1 RES1   0.0000
    22 C22      9.1901  -1.5008   4.4847   C.3       1 RES1   0.0000
    23 F23      9.7687  -0.3882   5.0103   F         1 RES1   0.0000
    24 F24      8.1911  -1.1094   3.6579   F         1 RES1   0.0000
    25 F25     10.1209  -2.1590   3.7517   F         1 RES1   0.0000
    26 C26      8.1955  -1.1919   7.4434   C.2       1 RES1   0.0000
    27 C27      7.2483  -0.6021   8.2492   C.2       1 RES1   0.0000
@<TRIPOS>BOND
     1     1     2    1
     2     3     2    1
     3     3     4    1
     4     4     5   am
     5     5     6    2
     6     5     7    1
     7     7     8    1
     8     8     9    2
     9     9    10    1
    10    10    11    1
    11    11    12    2
    12    12    13    1
    13    12    14    1
    14    14    15    2
    15    15    16    1
    16     3    17    1
    17    17    18    2
    18    18    19    1
    19    19    20    2
    20    20    21    1
    21    21    22    1
    22    22    23    1
    23    22    24    1
    24    22    25    1
    25    20    26    1
    26    26    27    2
    27    16     7    2
    28    27    17    1
    29    16    10    1
@<TRIPOS>SUBSTRUCTURE
     1 RES1        1 GROUP             0 ****  ****    0  
@<TRIPOS>MOLECULE
ligand_76
    27    29     1     0     0
SMALL
NO_CHARGES
****
Generated from the CSD

@<TRIPOS>ATOM
     1 C1       3.8699   1.1266   6.7513   C.3       1 RES1   0.0000
     2 C2       4.5309   1.3769   8.0861   C.3       1 RES1   0.0000
     3 C3       4.9280   0.0847   8.7765   C.3       1 RES1   0.0000
     4 N4       3.7706  -0.7468   8.9986   N.am      1 RES1   0.0000
     5 C5       3.8628  -1.8597   9.7910   C.2       1 RES1   0.0000
     6 O6       4.8831  -2.2299  10.3532   O.2       1 RES1   0.0000
     7 C7       2.6293  -2.5910   9.9215   C.2       1 RES1   0.0000
     8 C8       2.4147  -3.7769  10.6663   C.2       1 RES1   0.0000
     9 N9       1.1546  -4.2076  10.5837   N.2       1 RES1   0.0000
    10 N10      0.5749  -3.2999   9.7849   N.pl3     1 RES1   0.0000
    11 C11     -0.7552  -3.4403   9.4842   C.2       1 RES1   0.0000
    12 C12     -1.1492  -2.3004   8.6448   C.2       1 RES1   0.0000
    13 C13     -2.5696  -2.2401   8.2285   C.3       1 RES1   0.0000
    14 C14     -0.2984  -1.3500   8.2407   C.2       1 RES1   0.0000
    15 N15      0.9611  -1.3142   8.5512   N.2       1 RES1   0.0000
    16 C16      1.4061  -2.3043   9.3554   C.2       1 RES1   0.0000
    17 C17      5.9485  -0.6018   7.9257   C.2       1 RES1   0.0000
    18 C18      7.2787  -0.5752   8.2902   C.2       1 RES1   0.0000
    19 C19      8.2273  -1.1971   7.5096   C.2       1 RES1   0.0000
    20 C20      7.8331  -1.8528   6.3618   C.2       1 RES1   0.0000
    21 O21      8.7853  -2.4700   5.5713   O.3       1 RES1   0.0000
    22 C22      9.2635  -1.5613   4.5831   C.3       1 RES1   0.0000
    23 F23      9.8353  -0.4443   5.1069   F         1 RES1   0.0000
    24 F24      8.2806  -1.1767   3.7341   F         1 RES1   0.0000
    25 F25     10.2057  -2.2296   3.8743   F         1 RES1   0.0000
    26 C26      6.5101  -1.8833   5.9811   C.2       1 RES1   0.0000
    27 C27      5.5735  -1.2564   6.7711   C.2       1 RES1   0.0000
@<TRIPOS>BOND
     1     1     2    1
     2     3     2    1
     3     3     4    1
     4     4     5   am
     5     5     6    2
     6     5     7    1
     7     7     8    1
     8     8     9    2
     9     9    10    1
    10    10    11    1
    11    11    12    2
    12    12    13    1
    13    12    14    1
    14    14    15    2
    15    15    16    1
    16     3    17    1
    17    17    18    2
    18    18    19    1
    19    19    20    2
    20    20    21    1
    21    21    22    1
    22    22    23    1
    23    22    24    1
    24    22    25    1
    25    20    26    1
    26    26    27    2
    27    16     7    2
    28    27    17    1
    29    16    10    1
@<TRIPOS>SUBSTRUCTURE
     1 RES1        1 GROUP             0 ****  ****    0  
@<TRIPOS>MOLECULE
ligand_77
    27    29     1     0     0
SMALL
NO_CHARGES
****
Generated from the CSD

@<TRIPOS>ATOM
     1 C1       4.1123   0.1107  11.1783   C.3       1 RES1   0.0000
     2 C2       5.1708  -0.3984  10.2287   C.3       1 RES1   0.0000
     3 C3       4.8861  -0.0003   8.7918   C.3       1 RES1   0.0000
     4 N4       4.8894   1.4355   8.6543   N.am      1 RES1   0.0000
     5 C5       3.9292   2.0585   7.9027   C.2       1 RES1   0.0000
     6 O6       3.0281   1.4827   7.3104   O.2       1 RES1   0.0000
     7 C7       4.0587   3.4918   7.8563   C.2       1 RES1   0.0000
     8 C8       5.2558   4.2442   7.9458   C.2       1 RES1   0.0000
     9 N9       5.0369   5.5581   7.8693   N.2       1 RES1   0.0000
    10 N10      3.7049   5.6372   7.7371   N.pl3     1 RES1   0.0000
    11 C11      3.1257   6.8748   7.6268   C.2       1 RES1   0.0000
    12 C12      1.6807   6.6804   7.4442   C.2       1 RES1   0.0000
    13 C13      0.8615   7.9025   7.2715   C.3       1 RES1   0.0000
    14 C14      1.0899   5.4798   7.4424   C.2       1 RES1   0.0000
    15 N15      1.7188   4.3538   7.5857   N.2       1 RES1   0.0000
    16 C16      3.0607   4.4324   7.7210   C.2       1 RES1   0.0000
    17 C17      5.9164  -0.6430   7.9189   C.2       1 RES1   0.0000
    18 C18      5.5434  -1.2137   6.7197   C.2       1 RES1   0.0000
    19 C19      6.4828  -1.8151   5.9126   C.2       1 RES1   0.0000
    20 C20      7.8028  -1.8358   6.3124   C.2       1 RES1   0.0000
    21 O21      8.7467  -2.4478   5.5077   O.3       1 RES1   0.0000
    22 C22      9.2769  -1.5087   4.5760   C.3       1 RES1   0.0000
    23 F23      9.8811  -0.4433   5.1663   F         1 RES1   0.0000
    24 F24      8.3249  -1.0431   3.7324   F         1 RES1   0.0000
    25 F25     10.2057  -2.1760   3.8487   F         1 RES1   0.0000
    26 C26      8.1904  -1.2759   7.5093   C.2       1 RES1   0.0000
    27 C27      7.2398  -0.6791   8.3058   C.2       1 RES1   0.0000
@<TRIPOS>BOND
     1     1     2    1
     2     3     2    1
     3     3     4    1
     4     4     5   am
     5     5     6    2
     6     5     7    1
     7     7     8    1
     8     8     9    2
     9     9    10    1
    10    10    11    1
    11    11    12    2
    12    12    13    1
    13    12    14    1
    14    14    15    2
    15    15    16    1
    16     3    17    1
    17    17    18    2
    18    18    19    1
    19    19    20    2
    20    20    21    1
    21    21    22    1
    22    22    23    1
    23    22    24    1
    24    22    25    1
    25    20    26    1
    26    26    27    2
    27    16     7    2
    28    27    17    1
    29    16    10    1
@<TRIPOS>SUBSTRUCTURE
     1 RES1        1 GROUP             0 ****  ****    0  
@<TRIPOS>MOLECULE
ligand_78
    27    29     1     0     0
SMALL
NO_CHARGES
****
Generated from the CSD

@<TRIPOS>ATOM
     1 C1       3.0901  -0.6632  10.4170   C.3       1 RES1   0.0000
     2 C2       4.1998  -1.1460   9.5133   C.3       1 RES1   0.0000
     3 C3       4.8861  -0.0003   8.7918   C.3       1 RES1   0.0000
     4 N4       5.4767   0.9131   9.7391   N.am      1 RES1   0.0000
     5 C5       4.7558   1.9761  10.2137   C.2       1 RES1   0.0000
     6 O6       3.6066   2.2370   9.8887   O.2       1 RES1   0.0000
     7 C7       5.4709   2.7958  11.1570   C.2       1 RES1   0.0000
     8 C8       4.9598   3.3738  12.3452   C.2       1 RES1   0.0000
     9 N9       5.8803   4.0811  13.0028   N.2       1 RES1   0.0000
    10 N10      6.9692   3.9554  12.2305   N.pl3     1 RES1   0.0000
    11 C11      8.1294   4.5723  12.6212   C.2       1 RES1   0.0000
    12 C12      9.1695   4.2381  11.6385   C.2       1 RES1   0.0000
    13 C13     10.5234   4.7837  11.8910   C.3       1 RES1   0.0000
    14 C14      8.9463   3.4948  10.5486   C.2       1 RES1   0.0000
    15 N15      7.7987   2.9732  10.2401   N.2       1 RES1   0.0000
    16 C16      6.7889   3.1954  11.1096   C.2       1 RES1   0.0000
    17 C17      5.9099  -0.5797   7.8683   C.2       1 RES1   0.0000
    18 C18      5.5434  -0.9841   6.6014   C.2       1 RES1   0.0000
    19 C19      6.4765  -1.5263   5.7463   C.2       1 RES1   0.0000
    20 C20      7.7838  -1.6555   6.1674   C.2       1 RES1   0.0000
    21 O21      8.7207  -2.2087   5.3136   O.3       1 RES1   0.0000
    22 C22      9.3145  -1.1896   4.5137   C.3       1 RES1   0.0000
    23 F23      9.9487  -0.2317   5.2412   F         1 RES1   0.0000
    24 F24      8.4054  -0.5826   3.7138   F         1 RES1   0.0000
    25 F25     10.2321  -1.8062   3.7297   F         1 RES1   0.0000
    26 C26      8.1642  -1.2622   7.4310   C.2       1 RES1   0.0000
    27 C27      7.2201  -0.7228   8.2747   C.2       1 RES1   0.0000
@<TRIPOS>BOND
     1     1     2    1
     2     3     2    1
     3     3     4    1
     4     4     5   am
     5     5     6    2
     6     5     7    1
     7     7     8    1
     8     8     9    2
     9     9    10    1
    10    10    11    1
    11    11    12    2
    12    12    13    1
    13    12    14    1
    14    14    15    2
    15    15    16    1
    16     3    17    1
    17    17    18    2
    18    18    19    1
    19    19    20    2
    20    20    21    1
    21    21    22    1
    22    22    23    1
    23    22    24    1
    24    22    25    1
    25    20    26    1
    26    26    27    2
    27    16     7    2
    28    27    17    1
    29    16    10    1
@<TRIPOS>SUBSTRUCTURE
     1 RES1        1 GROUP             0 ****  ****    0  
@<TRIPOS>MOLECULE
ligand_79
    27    29     1     0     0
SMALL
NO_CHARGES
****
Generated from the CSD

@<TRIPOS>ATOM
     1 C1       5.8936  -1.0042  10.8614   C.3       1 RES1   0.0000
     2 C2       4.6603  -0.8961   9.9962   C.3       1 RES1   0.0000
     3 C3       4.8861  -0.0003   8.7918   C.3       1 RES1   0.0000
     4 N4       5.2861   1.3205   9.2113   N.am      1 RES1   0.0000
     5 C5       4.3409   2.2665   9.5055   C.2       1 RES1   0.0000
     6 O6       3.1336   2.0862   9.4409   O.2       1 RES1   0.0000
     7 C7       4.8871   3.5353   9.9115   C.2       1 RES1   0.0000
     8 C8       6.1097   3.7603  10.5911   C.2       1 RES1   0.0000
     9 N9       6.3307   5.0553  10.8239   N.2       1 RES1   0.0000
    10 N10      5.2487   5.6476  10.2980   N.pl3     1 RES1   0.0000
    11 C11      5.1480   7.0133  10.3626   C.2       1 RES1   0.0000
    12 C12      3.9089   7.4057   9.6772   C.2       1 RES1   0.0000
    13 C13      3.6200   8.8568   9.6038   C.3       1 RES1   0.0000
    14 C14      3.0484   6.5301   9.1451   C.2       1 RES1   0.0000
    15 N15      3.2114   5.2427   9.1580   N.2       1 RES1   0.0000
    16 C16      4.3464   4.7904   9.7345   C.2       1 RES1   0.0000
    17 C17      5.9198  -0.6425   7.9225   C.2       1 RES1   0.0000
    18 C18      5.5424  -1.2700   6.7534   C.2       1 RES1   0.0000
    19 C19      6.4852  -1.8715   5.9502   C.2       1 RES1   0.0000
    20 C20      7.8127  -1.8348   6.3233   C.2       1 RES1   0.0000
    21 O21      8.7602  -2.4465   5.5228   O.3       1 RES1   0.0000
    22 C22      9.2414  -1.5271   4.5459   C.3       1 RES1   0.0000
    23 F23      9.8218  -0.4212   5.0834   F         1 RES1   0.0000
    24 F24      8.2585  -1.1245   3.7052   F         1 RES1   0.0000
    25 F25     10.1772  -2.1916   3.8251   F         1 RES1   0.0000
    26 C26      8.2048  -1.2177   7.4901   C.2       1 RES1   0.0000
    27 C27      7.2508  -0.6216   8.2832   C.2       1 RES1   0.0000
@<TRIPOS>BOND
     1     1     2    1
     2     3     2    1
     3     3     4    1
     4     4     5   am
     5     5     6    2
     6     5     7    1
     7     7     8    1
     8     8     9    2
     9     9    10    1
    10    10    11    1
    11    11    12    2
    12    12    13    1
    13    12    14    1
    14    14    15    2
    15    15    16    1
    16     3    17    1
    17    17    18    2
    18    18    19    1
    19    19    20    2
    20    20    21    1
    21    21    22    1
    22    22    23    1
    23    22    24    1
    24    22    25    1
    25    20    26    1
    26    26    27    2
    27    16     7    2
    28    27    17    1
    29    16    10    1
@<TRIPOS>SUBSTRUCTURE
     1 RES1        1 GROUP             0 ****  ****    0  
@<TRIPOS>MOLECULE
ligand_80
    27    29     1     0     0
SMALL
NO_CHARGES
****
Generated from the CSD

@<TRIPOS>ATOM
     1 C1       3.8294   1.1474   6.7840   C.3       1 RES1   0.0000
     2 C2       4.5285   1.3844   8.1017   C.3       1 RES1   0.0000
     3 C3       4.9280   0.0847   8.7765   C.3       1 RES1   0.0000
     4 N4       3.7706  -0.7468   8.9986   N.am      1 RES1   0.0000
     5 C5       3.0243  -0.6002  10.1372   C.2       1 RES1   0.0000
     6 O6       3.2610   0.2071  11.0241   O.2       1 RES1   0.0000
     7 C7       1.8997  -1.4954  10.2212   C.2       1 RES1   0.0000
     8 C8       1.1470  -2.0240   9.1435   C.2       1 RES1   0.0000
     9 N9       0.1646  -2.8271   9.5557   N.2       1 RES1   0.0000
    10 N10      0.2919  -2.8028  10.8904   N.pl3     1 RES1   0.0000
    11 C11     -0.5794  -3.5405  11.6492   C.2       1 RES1   0.0000
    12 C12     -0.1946  -3.3810  13.0584   C.2       1 RES1   0.0000
    13 C13     -0.9962  -4.1277  14.0556   C.3       1 RES1   0.0000
    14 C14      0.8119  -2.5997  13.4668   C.2       1 RES1   0.0000
    15 N15      1.5705  -1.9077  12.6732   N.2       1 RES1   0.0000
    16 C16      1.3149  -2.0235  11.3517   C.2       1 RES1   0.0000
    17 C17      5.9412  -0.5953   7.9117   C.2       1 RES1   0.0000
    18 C18      7.2725  -0.5840   8.2727   C.2       1 RES1   0.0000
    19 C19      8.2144  -1.1999   7.4794   C.2       1 RES1   0.0000
    20 C20      7.8122  -1.8343   6.3224   C.2       1 RES1   0.0000
    21 O21      8.7578  -2.4455   5.5192   O.3       1 RES1   0.0000
    22 C22      9.2396  -1.5244   4.5443   C.3       1 RES1   0.0000
    23 F23      9.8208  -0.4201   5.0842   F         1 RES1   0.0000
    24 F24      8.2570  -1.1193   3.7045   F         1 RES1   0.0000
    25 F25     10.1749  -2.1880   3.8221   F         1 RES1   0.0000
    26 C26      6.4880  -1.8494   5.9452   C.2       1 RES1   0.0000
    27 C27      5.5582  -1.2286   6.7479   C.2       1 RES1   0.0000
@<TRIPOS>BOND
     1     1     2    1
     2     3     2    1
     3     3     4    1
     4     4     5   am
     5     5     6    2
     6     5     7    1
     7     7     8    1
     8     8     9    2
     9     9    10    1
    10    10    11    1
    11    11    12    2
    12    12    13    1
    13    12    14    1
    14    14    15    2
    15    15    16    1
    16     3    17    1
    17    17    18    2
    18    18    19    1
    19    19    20    2
    20    20    21    1
    21    21    22    1
    22    22    23    1
    23    22    24    1
    24    22    25    1
    25    20    26    1
    26    26    27    2
    27    16     7    2
    28    27    17    1
    29    16    10    1
@<TRIPOS>SUBSTRUCTURE
     1 RES1        1 GROUP             0 ****  ****    0  
@<TRIPOS>MOLECULE
ligand_81
    27    29     1     0     0
SMALL
NO_CHARGES
****
Generated from the CSD

@<TRIPOS>ATOM
     1 C1       2.4440   0.5804   8.8664   C.3       1 RES1   0.0000
     2 C2       3.5498  -0.0780   8.0759   C.3       1 RES1   0.0000
     3 C3       4.8861  -0.0003   8.7918   C.3       1 RES1   0.0000
     4 N4       4.8053  -0.6349  10.0845   N.am      1 RES1   0.0000
     5 C5       4.9540   0.1056  11.2267   C.2       1 RES1   0.0000
     6 O6       5.1588   1.3105  11.2521   O.2       1 RES1   0.0000
     7 C7       4.8486  -0.6611  12.4409   C.2       1 RES1   0.0000
     8 C8       4.0740  -1.8290  12.6485   C.2       1 RES1   0.0000
     9 N9       4.1923  -2.3030  13.8901   N.2       1 RES1   0.0000
    10 N10      5.0351  -1.4348  14.4679   N.pl3     1 RES1   0.0000
    11 C11      5.3848  -1.6287  15.7792   C.2       1 RES1   0.0000
    12 C12      6.3458  -0.5802  16.1482   C.2       1 RES1   0.0000
    13 C13      6.8809  -0.6240  17.5288   C.3       1 RES1   0.0000
    14 C14      6.7347   0.3931  15.3164   C.2       1 RES1   0.0000
    15 N15      6.3244   0.5173  14.0915   N.2       1 RES1   0.0000
    16 C16      5.4657  -0.4280  13.6508   C.2       1 RES1   0.0000
    17 C17      5.9174  -0.6449   7.9215   C.2       1 RES1   0.0000
    18 C18      5.5504  -1.1931   6.7100   C.2       1 RES1   0.0000
    19 C19      6.4907  -1.7961   5.9050   C.2       1 RES1   0.0000
    20 C20      7.8055  -1.8411   6.3195   C.2       1 RES1   0.0000
    21 O21      8.7500  -2.4546   5.5168   O.3       1 RES1   0.0000
    22 C22      9.3041  -1.5099   4.6050   C.3       1 RES1   0.0000
    23 F23      9.9162  -0.4616   5.2176   F         1 RES1   0.0000
    24 F24      8.3686  -1.0189   3.7573   F         1 RES1   0.0000
    25 F25     10.2320  -2.1797   3.8788   F         1 RES1   0.0000
    26 C26      8.1869  -1.3038   7.5286   C.2       1 RES1   0.0000
    27 C27      7.2356  -0.7051   8.3229   C.2       1 RES1   0.0000
@<TRIPOS>BOND
     1     1     2    1
     2     3     2    1
     3     3     4    1
     4     4     5   am
     5     5     6    2
     6     5     7    1
     7     7     8    1
     8     8     9    2
     9     9    10    1
    10    10    11    1
    11    11    12    2
    12    12    13    1
    13    12    14    1
    14    14    15    2
    15    15    16    1
    16     3    17    1
    17    17    18    2
    18    18    19    1
    19    19    20    2
    20    20    21    1
    21    21    22    1
    22    22    23    1
    23    22    24    1
    24    22    25    1
    25    20    26    1
    26    26    27    2
    27    16     7    2
    28    27    17    1
    29    16    10    1
@<TRIPOS>SUBSTRUCTURE
     1 RES1        1 GROUP             0 ****  ****    0  
@<TRIPOS>MOLECULE
ligand_82
    27    29     1     0     0
SMALL
NO_CHARGES
****
Generated from the CSD

@<TRIPOS>ATOM
     1 C1       5.9811  -1.0214  10.8339   C.3       1 RES1   0.0000
     2 C2       5.5321   0.2574  10.1675   C.3       1 RES1   0.0000
     3 C3       4.9029   0.0020   8.8099   C.3       1 RES1   0.0000
     4 N4       4.4085   1.2320   8.2417   N.am      1 RES1   0.0000
     5 C5       3.0656   1.4077   8.0400   C.2       1 RES1   0.0000
     6 O6       2.2080   0.5797   8.3107   O.2       1 RES1   0.0000
     7 C7       2.7202   2.6822   7.4658   C.2       1 RES1   0.0000
     8 C8       3.6083   3.7276   7.1113   C.2       1 RES1   0.0000
     9 N9       2.9721   4.7834   6.6009   N.2       1 RES1   0.0000
    10 N10      1.6848   4.4094   6.6372   N.pl3     1 RES1   0.0000
    11 C11      0.7323   5.2794   6.1735   C.2       1 RES1   0.0000
    12 C12     -0.5735   4.6135   6.2770   C.2       1 RES1   0.0000
    13 C13     -1.7490   5.3752   5.7948   C.3       1 RES1   0.0000
    14 C14     -0.7409   3.3883   6.7880   C.2       1 RES1   0.0000
    15 N15      0.2229   2.6432   7.2354   N.2       1 RES1   0.0000
    16 C16      1.4681   3.1593   7.1440   C.2       1 RES1   0.0000
    17 C17      5.9321  -0.6387   7.9342   C.2       1 RES1   0.0000
    18 C18      5.5867  -1.7103   7.1371   C.2       1 RES1   0.0000
    19 C19      6.5286  -2.3125   6.3334   C.2       1 RES1   0.0000
    20 C20      7.8206  -1.8292   6.3285   C.2       1 RES1   0.0000
    21 O21      8.7705  -2.4386   5.5290   O.3       1 RES1   0.0000
    22 C22      9.1711  -1.5541   4.4858   C.3       1 RES1   0.0000
    23 F23      9.7791  -0.4250   4.9377   F         1 RES1   0.0000
    24 F24      8.1262  -1.1900   3.7046   F         1 RES1   0.0000
    25 F25     10.0581  -2.2397   3.7241   F         1 RES1   0.0000
    26 C26      8.1826  -0.7643   7.1228   C.2       1 RES1   0.0000
    27 C27      7.2303  -0.1732   7.9216   C.2       1 RES1   0.0000
@<TRIPOS>BOND
     1     1     2    1
     2     3     2    1
     3     3     4    1
     4     4     5   am
     5     5     6    2
     6     5     7    1
     7     7     8    1
     8     8     9    2
     9     9    10    1
    10    10    11    1
    11    11    12    2
    12    12    13    1
    13    12    14    1
    14    14    15    2
    15    15    16    1
    16     3    17    1
    17    17    18    2
    18    18    19    1
    19    19    20    2
    20    20    21    1
    21    21    22    1
    22    22    23    1
    23    22    24    1
    24    22    25    1
    25    20    26    1
    26    26    27    2
    27    16     7    2
    28    27    17    1
    29    16    10    1
@<TRIPOS>SUBSTRUCTURE
     1 RES1        1 GROUP             0 ****  ****    0  
@<TRIPOS>MOLECULE
ligand_83
    27    29     1     0     0
SMALL
NO_CHARGES
****
Generated from the CSD

@<TRIPOS>ATOM
     1 C1       3.8562   1.0907   6.7146   C.3       1 RES1   0.0000
     2 C2       3.6394   0.2421   7.9451   C.3       1 RES1   0.0000
     3 C3       4.9112   0.0825   8.7583   C.3       1 RES1   0.0000
     4 N4       4.6490  -0.6589   9.9675   N.am      1 RES1   0.0000
     5 C5       4.7876  -0.0566  11.1894   C.2       1 RES1   0.0000
     6 O6       5.1280   1.1055  11.3568   O.2       1 RES1   0.0000
     7 C7       4.4938  -0.9182  12.3050   C.2       1 RES1   0.0000
     8 C8       4.0865  -2.2742  12.2523   C.2       1 RES1   0.0000
     9 N9       3.8928  -2.7939  13.4657   N.2       1 RES1   0.0000
    10 N10      4.1716  -1.7685  14.2836   N.pl3     1 RES1   0.0000
    11 C11      4.0734  -1.9597  15.6375   C.2       1 RES1   0.0000
    12 C12      4.4767  -0.7109  16.2985   C.2       1 RES1   0.0000
    13 C13      4.4727  -0.7107  17.7799   C.3       1 RES1   0.0000
    14 C14      4.8232   0.3987  15.6358   C.2       1 RES1   0.0000
    15 N15      4.8581   0.4985  14.3424   N.2       1 RES1   0.0000
    16 C16      4.5397  -0.6162  13.6487   C.2       1 RES1   0.0000
    17 C17      5.9288  -0.5990   7.9001   C.2       1 RES1   0.0000
    18 C18      7.2317  -0.1460   7.8861   C.2       1 RES1   0.0000
    19 C19      8.1745  -0.7612   7.0933   C.2       1 RES1   0.0000
    20 C20      7.8043  -1.8399   6.3173   C.2       1 RES1   0.0000
    21 O21      8.7474  -2.4534   5.5130   O.3       1 RES1   0.0000
    22 C22      9.1395  -1.5742   4.4622   C.3       1 RES1   0.0000
    23 F23      9.7550  -0.4448   4.9031   F         1 RES1   0.0000
    24 F24      8.0875  -1.2104   3.6903   F         1 RES1   0.0000
    25 F25     10.0167  -2.2652   3.6941   F         1 RES1   0.0000
    26 C26      6.5066  -2.3004   6.3156   C.2       1 RES1   0.0000
    27 C27      5.5751  -1.6746   7.1125   C.2       1 RES1   0.0000
@<TRIPOS>BOND
     1     1     2    1
     2     3     2    1
     3     3     4    1
     4     4     5   am
     5     5     6    2
     6     5     7    1
     7     7     8    1
     8     8     9    2
     9     9    10    1
    10    10    11    1
    11    11    12    2
    12    12    13    1
    13    12    14    1
    14    14    15    2
    15    15    16    1
    16     3    17    1
    17    17    18    2
    18    18    19    1
    19    19    20    2
    20    20    21    1
    21    21    22    1
    22    22    23    1
    23    22    24    1
    24    22    25    1
    25    20    26    1
    26    26    27    2
    27    16     7    2
    28    27    17    1
    29    16    10    1
@<TRIPOS>SUBSTRUCTURE
     1 RES1        1 GROUP             0 ****  ****    0  
@<TRIPOS>MOLECULE
ligand_84
    27    29     1     0     0
SMALL
NO_CHARGES
****
Generated from the CSD

@<TRIPOS>ATOM
     1 C1       5.8321   2.2730   8.2982   C.3       1 RES1   0.0000
     2 C2       5.4477   1.2844   9.3734   C.3       1 RES1   0.0000
     3 C3       4.8861  -0.0003   8.7918   C.3       1 RES1   0.0000
     4 N4       3.6671   0.2628   8.0670   N.am      1 RES1   0.0000
     5 C5       2.6953  -0.6980   7.9805   C.2       1 RES1   0.0000
     6 O6       2.7699  -1.8093   8.4841   O.2       1 RES1   0.0000
     7 C7       1.5362  -0.2941   7.2277   C.2       1 RES1   0.0000
     8 C8       1.3195   0.9574   6.6001   C.2       1 RES1   0.0000
     9 N9       0.1399   1.0170   5.9795   N.2       1 RES1   0.0000
    10 N10     -0.3904  -0.1913   6.2180   N.pl3     1 RES1   0.0000
    11 C11     -1.6306  -0.4790   5.7096   C.2       1 RES1   0.0000
    12 C12     -1.9527  -1.8671   6.0680   C.2       1 RES1   0.0000
    13 C13     -3.2495  -2.3954   5.5845   C.3       1 RES1   0.0000
    14 C14     -1.1520  -2.6460   6.8045   C.2       1 RES1   0.0000
    15 N15      0.0003  -2.2765   7.2733   N.2       1 RES1   0.0000
    16 C16      0.3985  -1.0241   6.9600   C.2       1 RES1   0.0000
    17 C17      5.9325  -0.6090   7.9137   C.2       1 RES1   0.0000
    18 C18      5.5937  -1.0729   6.6595   C.2       1 RES1   0.0000
    19 C19      6.5479  -1.6424   5.8465   C.2       1 RES1   0.0000
    20 C20      7.8483  -1.7388   6.2964   C.2       1 RES1   0.0000
    21 O21      8.8064  -2.3190   5.4852   O.3       1 RES1   0.0000
    22 C22      9.4049  -1.3300   4.6518   C.3       1 RES1   0.0000
    23 F23     10.0159  -0.3342   5.3474   F         1 RES1   0.0000
    24 F24      8.5048  -0.7688   3.8093   F         1 RES1   0.0000
    25 F25     10.3430  -1.9708   3.9127   F         1 RES1   0.0000
    26 C26      8.2013  -1.2858   7.5480   C.2       1 RES1   0.0000
    27 C27      7.2363  -0.7198   8.3497   C.2       1 RES1   0.0000
@<TRIPOS>BOND
     1     1     2    1
     2     3     2    1
     3     3     4    1
     4     4     5   am
     5     5     6    2
     6     5     7    1
     7     7     8    1
     8     8     9    2
     9     9    10    1
    10    10    11    1
    11    11    12    2
    12    12    13    1
    13    12    14    1
    14    14    15    2
    15    15    16    1
    16     3    17    1
    17    17    18    2
    18    18    19    1
    19    19    20    2
    20    20    21    1
    21    21    22    1
    22    22    23    1
    23    22    24    1
    24    22    25    1
    25    20    26    1
    26    26    27    2
    27    16     7    2
    28    27    17    1
    29    16    10    1
@<TRIPOS>SUBSTRUCTURE
     1 RES1        1 GROUP             0 ****  ****    0  
@<TRIPOS>MOLECULE
ligand_85
    27    29     1     0     0
SMALL
NO_CHARGES
****
Generated from the CSD

@<TRIPOS>ATOM
     1 C1       3.8843  -2.1255   9.3528   C.3       1 RES1   0.0000
     2 C2       3.6535  -0.7395   8.7987   C.3       1 RES1   0.0000
     3 C3       4.9280   0.0847   8.7765   C.3       1 RES1   0.0000
     4 N4       5.4210   0.2906  10.1162   N.am      1 RES1   0.0000
     5 C5       6.1325   1.4196  10.4233   C.2       1 RES1   0.0000
     6 O6       6.4006   2.3095   9.6293   O.2       1 RES1   0.0000
     7 C7       6.5587   1.4890  11.7969   C.2       1 RES1   0.0000
     8 C8       6.3131   0.5361  12.8162   C.2       1 RES1   0.0000
     9 N9       6.8442   0.8955  13.9862   N.2       1 RES1   0.0000
    10 N10      7.4196   2.0747  13.7094   N.pl3     1 RES1   0.0000
    11 C11      8.0754   2.7398  14.7128   C.2       1 RES1   0.0000
    12 C12      8.6514   3.9639  14.1393   C.2       1 RES1   0.0000
    13 C13      9.4367   4.8226  15.0561   C.3       1 RES1   0.0000
    14 C14      8.4877   4.3314  12.8632   C.2       1 RES1   0.0000
    15 N15      7.8192   3.6493  11.9845   N.2       1 RES1   0.0000
    16 C16      7.2848   2.4849  12.4132   C.2       1 RES1   0.0000
    17 C17      5.9271  -0.6280   7.9217   C.2       1 RES1   0.0000
    18 C18      7.2245  -0.7832   8.3637   C.2       1 RES1   0.0000
    19 C19      8.1541  -1.4305   7.5810   C.2       1 RES1   0.0000
    20 C20      7.7732  -1.9281   6.3521   C.2       1 RES1   0.0000
    21 O21      8.7076  -2.5704   5.5602   O.3       1 RES1   0.0000
    22 C22      9.3449  -1.6316   4.6979   C.3       1 RES1   0.0000
    23 F23      9.9931  -0.6389   5.3636   F         1 RES1   0.0000
    24 F24      8.4683  -1.0627   3.8362   F         1 RES1   0.0000
    25 F25     10.2584  -2.3310   3.9814   F         1 RES1   0.0000
    26 C26      6.4835  -1.7761   5.8941   C.2       1 RES1   0.0000
    27 C27      5.5657  -1.1259   6.6873   C.2       1 RES1   0.0000
@<TRIPOS>BOND
     1     1     2    1
     2     3     2    1
     3     3     4    1
     4     4     5   am
     5     5     6    2
     6     5     7    1
     7     7     8    1
     8     8     9    2
     9     9    10    1
    10    10    11    1
    11    11    12    2
    12    12    13    1
    13    12    14    1
    14    14    15    2
    15    15    16    1
    16     3    17    1
    17    17    18    2
    18    18    19    1
    19    19    20    2
    20    20    21    1
    21    21    22    1
    22    22    23    1
    23    22    24    1
    24    22    25    1
    25    20    26    1
    26    26    27    2
    27    16     7    2
    28    27    17    1
    29    16    10    1
@<TRIPOS>SUBSTRUCTURE
     1 RES1        1 GROUP             0 ****  ****    0  
@<TRIPOS>MOLECULE
ligand_86
    27    29     1     0     0
SMALL
NO_CHARGES
****
Generated from the CSD

@<TRIPOS>ATOM
     1 C1       2.4704   0.6749   8.9133   C.3       1 RES1   0.0000
     2 C2       3.5345  -0.0245   8.1012   C.3       1 RES1   0.0000
     3 C3       4.8861  -0.0003   8.7918   C.3       1 RES1   0.0000
     4 N4       4.8053  -0.6349  10.0845   N.am      1 RES1   0.0000
     5 C5       5.6181  -0.2233  11.1067   C.2       1 RES1   0.0000
     6 O6       6.4297   0.6872  11.0258   O.2       1 RES1   0.0000
     7 C7       5.4446  -0.9643  12.3291   C.2       1 RES1   0.0000
     8 C8       5.4271  -0.4449  13.6471   C.2       1 RES1   0.0000
     9 N9       5.2461  -1.3956  14.5654   N.2       1 RES1   0.0000
    10 N10      5.1544  -2.5139  13.8312   N.pl3     1 RES1   0.0000
    11 C11      4.9588  -3.7095  14.4727   C.2       1 RES1   0.0000
    12 C12      4.8443  -4.7563  13.4479   C.2       1 RES1   0.0000
    13 C13      4.5963  -6.1350  13.9298   C.3       1 RES1   0.0000
    14 C14      4.9661  -4.5239  12.1359   C.2       1 RES1   0.0000
    15 N15      5.1833  -3.3548  11.6161   N.2       1 RES1   0.0000
    16 C16      5.2642  -2.3218  12.4830   C.2       1 RES1   0.0000
    17 C17      5.8752  -0.6817   7.9008   C.2       1 RES1   0.0000
    18 C18      5.4641  -1.2137   6.6962   C.2       1 RES1   0.0000
    19 C19      6.3651  -1.8502   5.8723   C.2       1 RES1   0.0000
    20 C20      7.6853  -1.9453   6.2609   C.2       1 RES1   0.0000
    21 O21      8.5901  -2.5925   5.4392   O.3       1 RES1   0.0000
    22 C22      9.1613  -1.6677   4.5176   C.3       1 RES1   0.0000
    23 F23      9.8242  -0.6442   5.1190   F         1 RES1   0.0000
    24 F24      8.2285  -1.1405   3.6889   F         1 RES1   0.0000
    25 F25     10.0489  -2.3707   3.7726   F         1 RES1   0.0000
    26 C26      8.1102  -1.4247   7.4628   C.2       1 RES1   0.0000
    27 C27      7.1978  -0.7921   8.2761   C.2       1 RES1   0.0000
@<TRIPOS>BOND
     1     1     2    1
     2     3     2    1
     3     3     4    1
     4     4     5   am
     5     5     6    2
     6     5     7    1
     7     7     8    1
     8     8     9    2
     9     9    10    1
    10    10    11    1
    11    11    12    2
    12    12    13    1
    13    12    14    1
    14    14    15    2
    15    15    16    1
    16     3    17    1
    17    17    18    2
    18    18    19    1
    19    19    20    2
    20    20    21    1
    21    21    22    1
    22    22    23    1
    23    22    24    1
    24    22    25    1
    25    20    26    1
    26    26    27    2
    27    16     7    2
    28    27    17    1
    29    16    10    1
@<TRIPOS>SUBSTRUCTURE
     1 RES1        1 GROUP             0 ****  ****    0  
@<TRIPOS>MOLECULE
ligand_87
    27    29     1     0     0
SMALL
NO_CHARGES
****
Generated from the CSD

@<TRIPOS>ATOM
     1 C1       2.4704   0.6749   8.9133   C.3       1 RES1   0.0000
     2 C2       3.5345  -0.0245   8.1012   C.3       1 RES1   0.0000
     3 C3       4.8861  -0.0003   8.7918   C.3       1 RES1   0.0000
     4 N4       4.8053  -0.6349  10.0845   N.am      1 RES1   0.0000
     5 C5       5.6181  -0.2233  11.1067   C.2       1 RES1   0.0000
     6 O6       6.4297   0.6872  11.0258   O.2       1 RES1   0.0000
     7 C7       5.4446  -0.9643  12.3291   C.2       1 RES1   0.0000
     8 C8       6.4619  -1.4129  13.2072   C.2       1 RES1   0.0000
     9 N9       5.9715  -2.0743  14.2570   N.2       1 RES1   0.0000
    10 N10      4.6482  -2.0490  14.0412   N.pl3     1 RES1   0.0000
    11 C11      3.8201  -2.6517  14.9522   C.2       1 RES1   0.0000
    12 C12      2.4348  -2.4382  14.5110   C.2       1 RES1   0.0000
    13 C13      1.3677  -2.9879  15.3791   C.3       1 RES1   0.0000
    14 C14      2.1081  -1.7988  13.3820   C.2       1 RES1   0.0000
    15 N15      2.9672  -1.2831  12.5573   N.2       1 RES1   0.0000
    16 C16      4.2684  -1.3969  12.9023   C.2       1 RES1   0.0000
    17 C17      5.8752  -0.6817   7.9008   C.2       1 RES1   0.0000
    18 C18      5.4641  -1.2137   6.6962   C.2       1 RES1   0.0000
    19 C19      6.3651  -1.8502   5.8723   C.2       1 RES1   0.0000
    20 C20      7.6853  -1.9453   6.2609   C.2       1 RES1   0.0000
    21 O21      8.5901  -2.5925   5.4392   O.3       1 RES1   0.0000
    22 C22      9.1613  -1.6677   4.5176   C.3       1 RES1   0.0000
    23 F23      9.8242  -0.6442   5.1190   F         1 RES1   0.0000
    24 F24      8.2285  -1.1405   3.6889   F         1 RES1   0.0000
    25 F25     10.0489  -2.3707   3.7726   F         1 RES1   0.0000
    26 C26      8.1102  -1.4247   7.4628   C.2       1 RES1   0.0000
    27 C27      7.1978  -0.7921   8.2761   C.2       1 RES1   0.0000
@<TRIPOS>BOND
     1     1     2    1
     2     3     2    1
     3     3     4    1
     4     4     5   am
     5     5     6    2
     6     5     7    1
     7     7     8    1
     8     8     9    2
     9     9    10    1
    10    10    11    1
    11    11    12    2
    12    12    13    1
    13    12    14    1
    14    14    15    2
    15    15    16    1
    16     3    17    1
    17    17    18    2
    18    18    19    1
    19    19    20    2
    20    20    21    1
    21    21    22    1
    22    22    23    1
    23    22    24    1
    24    22    25    1
    25    20    26    1
    26    26    27    2
    27    16     7    2
    28    27    17    1
    29    16    10    1
@<TRIPOS>SUBSTRUCTURE
     1 RES1        1 GROUP             0 ****  ****    0  
@<TRIPOS>MOLECULE
ligand_88
    27    29     1     0     0
SMALL
NO_CHARGES
****
Generated from the CSD

@<TRIPOS>ATOM
     1 C1       4.5756   1.1977  10.9998   C.3       1 RES1   0.0000
     2 C2       5.5761   0.5633  10.0630   C.3       1 RES1   0.0000
     3 C3       4.9280   0.0847   8.7765   C.3       1 RES1   0.0000
     4 N4       4.2912   1.1828   8.0916   N.am      1 RES1   0.0000
     5 C5       3.1796   0.9643   7.3225   C.2       1 RES1   0.0000
     6 O6       2.6416  -0.1229   7.1717   O.2       1 RES1   0.0000
     7 C7       2.6689   2.1473   6.6798   C.2       1 RES1   0.0000
     8 C8       1.3097   2.5171   6.5280   C.2       1 RES1   0.0000
     9 N9       1.1676   3.6765   5.8834   N.2       1 RES1   0.0000
    10 N10      2.4329   4.0368   5.6235   N.pl3     1 RES1   0.0000
    11 C11      2.6596   5.2123   4.9555   C.2       1 RES1   0.0000
    12 C12      4.1136   5.3938   4.8456   C.2       1 RES1   0.0000
    13 C13      4.5811   6.6307   4.1778   C.3       1 RES1   0.0000
    14 C14      5.0065   4.5059   5.2981   C.2       1 RES1   0.0000
    15 N15      4.6977   3.3959   5.8953   N.2       1 RES1   0.0000
    16 C16      3.3795   3.1622   6.0767   C.2       1 RES1   0.0000
    17 C17      5.9850  -0.5556   7.9342   C.2       1 RES1   0.0000
    18 C18      7.2888  -0.6003   8.3825   C.2       1 RES1   0.0000
    19 C19      8.2709  -1.1802   7.6111   C.2       1 RES1   0.0000
    20 C20      7.9367  -1.7219   6.3874   C.2       1 RES1   0.0000
    21 O21      8.9233  -2.2964   5.6068   O.3       1 RES1   0.0000
    22 C22      9.4868  -1.3201   4.7349   C.3       1 RES1   0.0000
    23 F23     10.0499  -0.2703   5.3904   F         1 RES1   0.0000
    24 F24      8.5710  -0.8342   3.8631   F         1 RES1   0.0000
    25 F25     10.4568  -1.9522   4.0304   F         1 RES1   0.0000
    26 C26      6.6410  -1.6799   5.9231   C.2       1 RES1   0.0000
    27 C27      5.6703  -1.0962   6.7049   C.2       1 RES1   0.0000
@<TRIPOS>BOND
     1     1     2    1
     2     3     2    1
     3     3     4    1
     4     4     5   am
     5     5     6    2
     6     5     7    1
     7     7     8    1
     8     8     9    2
     9     9    10    1
    10    10    11    1
    11    11    12    2
    12    12    13    1
    13    12    14    1
    14    14    15    2
    15    15    16    1
    16     3    17    1
    17    17    18    2
    18    18    19    1
    19    19    20    2
    20    20    21    1
    21    21    22    1
    22    22    23    1
    23    22    24    1
    24    22    25    1
    25    20    26    1
    26    26    27    2
    27    16     7    2
    28    27    17    1
    29    16    10    1
@<TRIPOS>SUBSTRUCTURE
     1 RES1        1 GROUP             0 ****  ****    0  
@<TRIPOS>MOLECULE
ligand_89
    27    29     1     0     0
SMALL
NO_CHARGES
****
Generated from the CSD

@<TRIPOS>ATOM
     1 C1       4.5756   1.1977  10.9998   C.3       1 RES1   0.0000
     2 C2       5.5761   0.5633  10.0630   C.3       1 RES1   0.0000
     3 C3       4.9280   0.0847   8.7765   C.3       1 RES1   0.0000
     4 N4       4.2912   1.1828   8.0916   N.am      1 RES1   0.0000
     5 C5       3.1796   0.9643   7.3225   C.2       1 RES1   0.0000
     6 O6       2.6416  -0.1229   7.1717   O.2       1 RES1   0.0000
     7 C7       2.6689   2.1473   6.6798   C.2       1 RES1   0.0000
     8 C8       2.1791   2.2550   5.3548   C.2       1 RES1   0.0000
     9 N9       1.7773   3.4929   5.0608   N.2       1 RES1   0.0000
    10 N10      2.0168   4.1675   6.1947   N.pl3     1 RES1   0.0000
    11 C11      1.7109   5.5029   6.2444   C.2       1 RES1   0.0000
    12 C12      2.0193   5.9849   7.5977   C.2       1 RES1   0.0000
    13 C13      1.7304   7.4105   7.8783   C.3       1 RES1   0.0000
    14 C14      2.5491   5.2143   8.5549   C.2       1 RES1   0.0000
    15 N15      2.8372   3.9576   8.4077   N.2       1 RES1   0.0000
    16 C16      2.5501   3.4163   7.2036   C.2       1 RES1   0.0000
    17 C17      5.9850  -0.5556   7.9342   C.2       1 RES1   0.0000
    18 C18      7.2888  -0.6003   8.3825   C.2       1 RES1   0.0000
    19 C19      8.2709  -1.1802   7.6111   C.2       1 RES1   0.0000
    20 C20      7.9367  -1.7219   6.3874   C.2       1 RES1   0.0000
    21 O21      8.9233  -2.2964   5.6068   O.3       1 RES1   0.0000
    22 C22      9.4868  -1.3201   4.7349   C.3       1 RES1   0.0000
    23 F23     10.0499  -0.2703   5.3904   F         1 RES1   0.0000
    24 F24      8.5710  -0.8342   3.8631   F         1 RES1   0.0000
    25 F25     10.4568  -1.9522   4.0304   F         1 RES1   0.0000
    26 C26      6.6410  -1.6799   5.9231   C.2       1 RES1   0.0000
    27 C27      5.6703  -1.0962   6.7049   C.2       1 RES1   0.0000
@<TRIPOS>BOND
     1     1     2    1
     2     3     2    1
     3     3     4    1
     4     4     5   am
     5     5     6    2
     6     5     7    1
     7     7     8    1
     8     8     9    2
     9     9    10    1
    10    10    11    1
    11    11    12    2
    12    12    13    1
    13    12    14    1
    14    14    15    2
    15    15    16    1
    16     3    17    1
    17    17    18    2
    18    18    19    1
    19    19    20    2
    20    20    21    1
    21    21    22    1
    22    22    23    1
    23    22    24    1
    24    22    25    1
    25    20    26    1
    26    26    27    2
    27    16     7    2
    28    27    17    1
    29    16    10    1
@<TRIPOS>SUBSTRUCTURE
     1 RES1        1 GROUP             0 ****  ****    0  
@<TRIPOS>MOLECULE
ligand_90
    27    29     1     0     0
SMALL
NO_CHARGES
****
Generated from the CSD

@<TRIPOS>ATOM
     1 C1       3.9152  -0.3984  11.0733   C.3       1 RES1   0.0000
     2 C2       4.8110  -0.9377   9.9833   C.3       1 RES1   0.0000
     3 C3       4.8861  -0.0003   8.7918   C.3       1 RES1   0.0000
     4 N4       5.2861   1.3205   9.2113   N.am      1 RES1   0.0000
     5 C5       6.2337   1.4765  10.1873   C.2       1 RES1   0.0000
     6 O6       6.7627   0.5576  10.7957   O.2       1 RES1   0.0000
     7 C7       6.5770   2.8485  10.4579   C.2       1 RES1   0.0000
     8 C8       5.7350   3.9805  10.3291   C.2       1 RES1   0.0000
     9 N9       6.3553   5.1151  10.6580   N.2       1 RES1   0.0000
    10 N10      7.5876   4.7028  10.9890   N.pl3     1 RES1   0.0000
    11 C11      8.5094   5.6353  11.3889   C.2       1 RES1   0.0000
    12 C12      9.7465   4.9236  11.7386   C.2       1 RES1   0.0000
    13 C13     10.8732   5.7499  12.2308   C.3       1 RES1   0.0000
    14 C14      9.8971   3.5993  11.6199   C.2       1 RES1   0.0000
    15 N15      8.9724   2.7917  11.1996   N.2       1 RES1   0.0000
    16 C16      7.7834   3.3543  10.8911   C.2       1 RES1   0.0000
    17 C17      5.8454  -0.5820   7.8029   C.2       1 RES1   0.0000
    18 C18      5.3844  -1.0480   6.5891   C.2       1 RES1   0.0000
    19 C19      6.2581  -1.5929   5.6750   C.2       1 RES1   0.0000
    20 C20      7.6009  -1.6624   5.9827   C.2       1 RES1   0.0000
    21 O21      8.4789  -2.2180   5.0699   O.3       1 RES1   0.0000
    22 C22      8.9634  -1.2124   4.1838   C.3       1 RES1   0.0000
    23 F23      9.6238  -0.2063   4.8166   F         1 RES1   0.0000
    24 F24      7.9665  -0.6677   3.4461   F         1 RES1   0.0000
    25 F25      9.8305  -1.8293   3.3445   F         1 RES1   0.0000
    26 C26      8.0760  -1.2071   7.1923   C.2       1 RES1   0.0000
    27 C27      7.1904  -0.6659   8.0963   C.2       1 RES1   0.0000
@<TRIPOS>BOND
     1     1     2    1
     2     3     2    1
     3     3     4    1
     4     4     5   am
     5     5     6    2
     6     5     7    1
     7     7     8    1
     8     8     9    2
     9     9    10    1
    10    10    11    1
    11    11    12    2
    12    12    13    1
    13    12    14    1
    14    14    15    2
    15    15    16    1
    16     3    17    1
    17    17    18    2
    18    18    19    1
    19    19    20    2
    20    20    21    1
    21    21    22    1
    22    22    23    1
    23    22    24    1
    24    22    25    1
    25    20    26    1
    26    26    27    2
    27    16     7    2
    28    27    17    1
    29    16    10    1
@<TRIPOS>SUBSTRUCTURE
     1 RES1        1 GROUP             0 ****  ****    0  
@<TRIPOS>MOLECULE
ligand_91
    27    29     1     0     0
SMALL
NO_CHARGES
****
Generated from the CSD

@<TRIPOS>ATOM
     1 C1       3.6529  -0.3794  10.9543   C.3       1 RES1   0.0000
     2 C2       4.7105  -0.9042  10.0124   C.3       1 RES1   0.0000
     3 C3       4.9029   0.0020   8.8099   C.3       1 RES1   0.0000
     4 N4       5.3087   1.3208   9.2298   N.am      1 RES1   0.0000
     5 C5       4.4999   2.3997   8.9916   C.2       1 RES1   0.0000
     6 O6       3.4159   2.3450   8.4292   O.2       1 RES1   0.0000
     7 C7       5.0338   3.6497   9.4668   C.2       1 RES1   0.0000
     8 C8       5.8847   3.8454  10.5826   C.2       1 RES1   0.0000
     9 N9       6.2036   5.1288  10.7594   N.2       1 RES1   0.0000
    10 N10      5.5522   5.7440   9.7617   N.pl3     1 RES1   0.0000
    11 C11      5.6646   7.1050   9.6416   C.2       1 RES1   0.0000
    12 C12      4.9050   7.5157   8.4527   C.2       1 RES1   0.0000
    13 C13      4.9204   8.9590   8.1191   C.3       1 RES1   0.0000
    14 C14      4.2080   6.6658   7.6897   C.2       1 RES1   0.0000
    15 N15      4.1325   5.3872   7.8985   N.2       1 RES1   0.0000
    16 C16      4.8338   4.9116   8.9507   C.2       1 RES1   0.0000
    17 C17      5.9167  -0.6295   7.9099   C.2       1 RES1   0.0000
    18 C18      5.5398  -1.6422   7.0524   C.2       1 RES1   0.0000
    19 C19      6.4671  -2.2358   6.2256   C.2       1 RES1   0.0000
    20 C20      7.7765  -1.8032   6.2588   C.2       1 RES1   0.0000
    21 O21      8.7114  -2.4044   5.4360   O.3       1 RES1   0.0000
    22 C22      9.1568  -1.4810   4.4462   C.3       1 RES1   0.0000
    23 F23      9.8017  -0.4019   4.9643   F         1 RES1   0.0000
    24 F24      8.1352  -1.0355   3.6763   F         1 RES1   0.0000
    25 F25     10.0258  -2.1579   3.6565   F         1 RES1   0.0000
    26 C26      8.1698  -0.7976   7.1134   C.2       1 RES1   0.0000
    27 C27      7.2318  -0.2145   7.9346   C.2       1 RES1   0.0000
@<TRIPOS>BOND
     1     1     2    1
     2     3     2    1
     3     3     4    1
     4     4     5   am
     5     5     6    2
     6     5     7    1
     7     7     8    1
     8     8     9    2
     9     9    10    1
    10    10    11    1
    11    11    12    2
    12    12    13    1
    13    12    14    1
    14    14    15    2
    15    15    16    1
    16     3    17    1
    17    17    18    2
    18    18    19    1
    19    19    20    2
    20    20    21    1
    21    21    22    1
    22    22    23    1
    23    22    24    1
    24    22    25    1
    25    20    26    1
    26    26    27    2
    27    16     7    2
    28    27    17    1
    29    16    10    1
@<TRIPOS>SUBSTRUCTURE
     1 RES1        1 GROUP             0 ****  ****    0  
@<TRIPOS>MOLECULE
ligand_92
    27    29     1     0     0
SMALL
NO_CHARGES
****
Generated from the CSD

@<TRIPOS>ATOM
     1 C1       3.4701   2.0603   8.9394   C.3       1 RES1   0.0000
     2 C2       4.4814   1.2892   8.1246   C.3       1 RES1   0.0000
     3 C3       4.9029   0.0020   8.8099   C.3       1 RES1   0.0000
     4 N4       3.7633  -0.8576   9.0172   N.am      1 RES1   0.0000
     5 C5       3.3656  -1.1813  10.2868   C.2       1 RES1   0.0000
     6 O6       3.9135  -0.7910  11.3075   O.2       1 RES1   0.0000
     7 C7       2.2146  -2.0449  10.3389   C.2       1 RES1   0.0000
     8 C8       1.1514  -2.1075   9.4047   C.2       1 RES1   0.0000
     9 N9       0.2335  -3.0160   9.7399   N.2       1 RES1   0.0000
    10 N10      0.7118  -3.5230  10.8855   N.pl3     1 RES1   0.0000
    11 C11     -0.0008  -4.5082  11.5185   C.2       1 RES1   0.0000
    12 C12      0.7584  -4.9188  12.7077   C.2       1 RES1   0.0000
    13 C13      0.1748  -6.0065  13.5269   C.3       1 RES1   0.0000
    14 C14      1.9145  -4.3564  13.0783   C.2       1 RES1   0.0000
    15 N15      2.5049  -3.4001  12.4294   N.2       1 RES1   0.0000
    16 C16      1.8974  -2.9832  11.2970   C.2       1 RES1   0.0000
    17 C17      5.9459  -0.6551   7.9631   C.2       1 RES1   0.0000
    18 C18      5.5957  -1.6866   7.1168   C.2       1 RES1   0.0000
    19 C19      6.5498  -2.3037   6.3391   C.2       1 RES1   0.0000
    20 C20      7.8591  -1.8756   6.4100   C.2       1 RES1   0.0000
    21 O21      8.8207  -2.5002   5.6367   O.3       1 RES1   0.0000
    22 C22      9.3065  -1.6026   4.6421   C.3       1 RES1   0.0000
    23 F23      9.9374  -0.5140   5.1576   F         1 RES1   0.0000
    24 F24      8.3160  -1.1717   3.8248   F         1 RES1   0.0000
    25 F25     10.2005  -2.3018   3.9013   F         1 RES1   0.0000
    26 C26      8.2258  -0.8513   7.2541   C.2       1 RES1   0.0000
    27 C27      7.2612  -0.2448   8.0261   C.2       1 RES1   0.0000
@<TRIPOS>BOND
     1     1     2    1
     2     3     2    1
     3     3     4    1
     4     4     5   am
     5     5     6    2
     6     5     7    1
     7     7     8    1
     8     8     9    2
     9     9    10    1
    10    10    11    1
    11    11    12    2
    12    12    13    1
    13    12    14    1
    14    14    15    2
    15    15    16    1
    16     3    17    1
    17    17    18    2
    18    18    19    1
    19    19    20    2
    20    20    21    1
    21    21    22    1
    22    22    23    1
    23    22    24    1
    24    22    25    1
    25    20    26    1
    26    26    27    2
    27    16     7    2
    28    27    17    1
    29    16    10    1
@<TRIPOS>SUBSTRUCTURE
     1 RES1        1 GROUP             0 ****  ****    0  
@<TRIPOS>MOLECULE
ligand_93
    27    29     1     0     0
SMALL
NO_CHARGES
****
Generated from the CSD

@<TRIPOS>ATOM
     1 C1       6.2328   1.0690  10.6218   C.3       1 RES1   0.0000
     2 C2       5.4707   1.2902   9.3367   C.3       1 RES1   0.0000
     3 C3       4.8861  -0.0003   8.7918   C.3       1 RES1   0.0000
     4 N4       3.6671   0.2628   8.0670   N.am      1 RES1   0.0000
     5 C5       2.5795  -0.5535   8.2277   C.2       1 RES1   0.0000
     6 O6       2.5464  -1.5310   8.9610   O.2       1 RES1   0.0000
     7 C7       1.4348  -0.1668   7.4444   C.2       1 RES1   0.0000
     8 C8       1.3367   0.9391   6.5644   C.2       1 RES1   0.0000
     9 N9       0.1372   1.0237   5.9865   N.2       1 RES1   0.0000
    10 N10     -0.5236  -0.0225   6.5033   N.pl3     1 RES1   0.0000
    11 C11     -1.8195  -0.2416   6.1134   C.2       1 RES1   0.0000
    12 C12     -2.2889  -1.4643   6.7794   C.2       1 RES1   0.0000
    13 C13     -3.6692  -1.9032   6.4688   C.3       1 RES1   0.0000
    14 C14     -1.5468  -2.1688   7.6416   C.2       1 RES1   0.0000
    15 N15     -0.3303  -1.8670   7.9779   N.2       1 RES1   0.0000
    16 C16      0.2004  -0.7763   7.3831   C.2       1 RES1   0.0000
    17 C17      5.9179  -0.6477   7.9242   C.2       1 RES1   0.0000
    18 C18      5.5643  -1.1406   6.6852   C.2       1 RES1   0.0000
    19 C19      6.5049  -1.7458   5.8822   C.2       1 RES1   0.0000
    20 C20      7.8067  -1.8488   6.3266   C.2       1 RES1   0.0000
    21 O21      8.7510  -2.4647   5.5256   O.3       1 RES1   0.0000
    22 C22      9.3580  -1.5075   4.6618   C.3       1 RES1   0.0000
    23 F23      9.9879  -0.5021   5.3261   F         1 RES1   0.0000
    24 F24      8.4605  -0.9564   3.8100   F         1 RES1   0.0000
    25 F25     10.2819  -2.1817   3.9346   F         1 RES1   0.0000
    26 C26      8.1743  -1.3672   7.5632   C.2       1 RES1   0.0000
    27 C27      7.2228  -0.7657   8.3551   C.2       1 RES1   0.0000
@<TRIPOS>BOND
     1     1     2    1
     2     3     2    1
     3     3     4    1
     4     4     5   am
     5     5     6    2
     6     5     7    1
     7     7     8    1
     8     8     9    2
     9     9    10    1
    10    10    11    1
    11    11    12    2
    12    12    13    1
    13    12    14    1
    14    14    15    2
    15    15    16    1
    16     3    17    1
    17    17    18    2
    18    18    19    1
    19    19    20    2
    20    20    21    1
    21    21    22    1
    22    22    23    1
    23    22    24    1
    24    22    25    1
    25    20    26    1
    26    26    27    2
    27    16     7    2
    28    27    17    1
    29    16    10    1
@<TRIPOS>SUBSTRUCTURE
     1 RES1        1 GROUP             0 ****  ****    0  
@<TRIPOS>MOLECULE
ligand_94
    27    29     1     0     0
SMALL
NO_CHARGES
****
Generated from the CSD

@<TRIPOS>ATOM
     1 C1       2.5445   0.8712   9.0444   C.3       1 RES1   0.0000
     2 C2       3.5078   0.1094   8.1652   C.3       1 RES1   0.0000
     3 C3       4.8861  -0.0003   8.7918   C.3       1 RES1   0.0000
     4 N4       4.8053  -0.6349  10.0845   N.am      1 RES1   0.0000
     5 C5       4.1917  -1.8517  10.2183   C.2       1 RES1   0.0000
     6 O6       3.7556  -2.5159   9.2894   O.2       1 RES1   0.0000
     7 C7       4.0920  -2.3121  11.5789   C.2       1 RES1   0.0000
     8 C8       4.5503  -1.6450  12.7417   C.2       1 RES1   0.0000
     9 N9       4.3063  -2.3388  13.8549   N.2       1 RES1   0.0000
    10 N10      3.7002  -3.4440  13.3975   N.pl3     1 RES1   0.0000
    11 C11      3.3010  -4.3975  14.2979   C.2       1 RES1   0.0000
    12 C12      2.6271  -5.4680  13.5502   C.2       1 RES1   0.0000
    13 C13      2.0849  -6.5948  14.3445   C.3       1 RES1   0.0000
    14 C14      2.4999  -5.4734  12.2183   C.2       1 RES1   0.0000
    15 N15      2.9396  -4.5354  11.4366   N.2       1 RES1   0.0000
    16 C16      3.5408  -3.4874  12.0413   C.2       1 RES1   0.0000
    17 C17      5.7636  -0.7651   7.8528   C.2       1 RES1   0.0000
    18 C18      5.2542  -1.2268   6.6568   C.2       1 RES1   0.0000
    19 C19      6.0514  -1.9390   5.7890   C.2       1 RES1   0.0000
    20 C20      7.3672  -2.1811   6.1250   C.2       1 RES1   0.0000
    21 O21      8.1671  -2.9044   5.2591   O.3       1 RES1   0.0000
    22 C22      8.7995  -2.0276   4.3306   C.3       1 RES1   0.0000
    23 F23      9.5895  -1.0921   4.9219   F         1 RES1   0.0000
    24 F24      7.8986  -1.3882   3.5468   F         1 RES1   0.0000
    25 F25      9.5792  -2.8059   3.5412   F         1 RES1   0.0000
    26 C26      7.8890  -1.7323   7.3176   C.2       1 RES1   0.0000
    27 C27      7.0796  -1.0225   8.1752   C.2       1 RES1   0.0000
@<TRIPOS>BOND
     1     1     2    1
     2     3     2    1
     3     3     4    1
     4     4     5   am
     5     5     6    2
     6     5     7    1
     7     7     8    1
     8     8     9    2
     9     9    10    1
    10    10    11    1
    11    11    12    2
    12    12    13    1
    13    12    14    1
    14    14    15    2
    15    15    16    1
    16     3    17    1
    17    17    18    2
    18    18    19    1
    19    19    20    2
    20    20    21    1
    21    21    22    1
    22    22    23    1
    23    22    24    1
    24    22    25    1
    25    20    26    1
    26    26    27    2
    27    16     7    2
    28    27    17    1
    29    16    10    1
@<TRIPOS>SUBSTRUCTURE
     1 RES1        1 GROUP             0 ****  ****    0  
@<TRIPOS>MOLECULE
ligand_95
    27    29     1     0     0
SMALL
NO_CHARGES
****
Generated from the CSD

@<TRIPOS>ATOM
     1 C1       4.3481   1.1004  10.9987   C.3       1 RES1   0.0000
     2 C2       5.4459   0.5307  10.1318   C.3       1 RES1   0.0000
     3 C3       4.9280   0.0847   8.7765   C.3       1 RES1   0.0000
     4 N4       4.2912   1.1828   8.0916   N.am      1 RES1   0.0000
     5 C5       4.9601   2.3638   7.9109   C.2       1 RES1   0.0000
     6 O6       6.1268   2.5562   8.2209   O.2       1 RES1   0.0000
     7 C7       4.1653   3.4022   7.3081   C.2       1 RES1   0.0000
     8 C8       2.8098   3.3145   6.9054   C.2       1 RES1   0.0000
     9 N9       2.3617   4.4554   6.3785   N.2       1 RES1   0.0000
    10 N10      3.4318   5.2610   6.4429   N.pl3     1 RES1   0.0000
    11 C11      3.3194   6.5449   5.9758   C.2       1 RES1   0.0000
    12 C12      4.6032   7.2215   6.2068   C.2       1 RES1   0.0000
    13 C13      4.6889   8.6431   5.7992   C.3       1 RES1   0.0000
    14 C14      5.6715   6.6189   6.7415   C.2       1 RES1   0.0000
    15 N15      5.6964   5.3808   7.1295   N.2       1 RES1   0.0000
    16 C16      4.5444   4.6886   6.9915   C.2       1 RES1   0.0000
    17 C17      6.0806  -0.4618   7.9957   C.2       1 RES1   0.0000
    18 C18      7.3412  -0.4855   8.5552   C.2       1 RES1   0.0000
    19 C19      8.4106  -0.9789   7.8418   C.2       1 RES1   0.0000
    20 C20      8.2073  -1.4555   6.5634   C.2       1 RES1   0.0000
    21 O21      9.2817  -1.9428   5.8416   O.3       1 RES1   0.0000
    22 C22      9.8763  -0.8936   5.0823   C.3       1 RES1   0.0000
    23 F23     10.3350   0.1337   5.8459   F         1 RES1   0.0000
    24 F24      9.0197  -0.3891   4.1623   F         1 RES1   0.0000
    25 F25     10.9300  -1.4439   4.4313   F         1 RES1   0.0000
    26 C26      6.9563  -1.4332   5.9886   C.2       1 RES1   0.0000
    27 C27      5.8973  -0.9361   6.7136   C.2       1 RES1   0.0000
@<TRIPOS>BOND
     1     1     2    1
     2     3     2    1
     3     3     4    1
     4     4     5   am
     5     5     6    2
     6     5     7    1
     7     7     8    1
     8     8     9    2
     9     9    10    1
    10    10    11    1
    11    11    12    2
    12    12    13    1
    13    12    14    1
    14    14    15    2
    15    15    16    1
    16     3    17    1
    17    17    18    2
    18    18    19    1
    19    19    20    2
    20    20    21    1
    21    21    22    1
    22    22    23    1
    23    22    24    1
    24    22    25    1
    25    20    26    1
    26    26    27    2
    27    16     7    2
    28    27    17    1
    29    16    10    1
@<TRIPOS>SUBSTRUCTURE
     1 RES1        1 GROUP             0 ****  ****    0  
@<TRIPOS>MOLECULE
ligand_96
    27    29     1     0     0
SMALL
NO_CHARGES
****
Generated from the CSD

@<TRIPOS>ATOM
     1 C1       4.4663   1.9685  10.2931   C.3       1 RES1   0.0000
     2 C2       5.4487   1.2847   9.3719   C.3       1 RES1   0.0000
     3 C3       4.8861  -0.0003   8.7918   C.3       1 RES1   0.0000
     4 N4       3.6671   0.2628   8.0670   N.am      1 RES1   0.0000
     5 C5       2.6953  -0.6980   7.9805   C.2       1 RES1   0.0000
     6 O6       2.7703  -1.8097   8.4832   O.2       1 RES1   0.0000
     7 C7       1.5356  -0.2936   7.2288   C.2       1 RES1   0.0000
     8 C8       1.0148   1.0179   7.1026   C.2       1 RES1   0.0000
     9 N9      -0.0745   1.0600   6.3334   N.2       1 RES1   0.0000
    10 N10     -0.2456  -0.2217   5.9782   N.pl3     1 RES1   0.0000
    11 C11     -1.3003  -0.5451   5.1645   C.2       1 RES1   0.0000
    12 C12     -1.2303  -1.9867   4.8890   C.2       1 RES1   0.0000
    13 C13     -2.2705  -2.5444   3.9938   C.3       1 RES1   0.0000
    14 C14     -0.3007  -2.7955   5.4108   C.2       1 RES1   0.0000
    15 N15      0.6496  -2.4040   6.2031   N.2       1 RES1   0.0000
    16 C16      0.6881  -1.0826   6.4818   C.2       1 RES1   0.0000
    17 C17      5.9319  -0.6106   7.9141   C.2       1 RES1   0.0000
    18 C18      5.5949  -1.0653   6.6561   C.2       1 RES1   0.0000
    19 C19      6.5484  -1.6363   5.8434   C.2       1 RES1   0.0000
    20 C20      7.8465  -1.7434   6.2976   C.2       1 RES1   0.0000
    21 O21      8.8039  -2.3251   5.4865   O.3       1 RES1   0.0000
    22 C22      9.4118  -1.3352   4.6610   C.3       1 RES1   0.0000
    23 F23     10.0264  -0.3472   5.3645   F         1 RES1   0.0000
    24 F24      8.5184  -0.7635   3.8184   F         1 RES1   0.0000
    25 F25     10.3485  -1.9778   3.9218   F         1 RES1   0.0000
    26 C26      8.1977  -1.2998   7.5529   C.2       1 RES1   0.0000
    27 C27      7.2334  -0.7322   8.3543   C.2       1 RES1   0.0000
@<TRIPOS>BOND
     1     1     2    1
     2     3     2    1
     3     3     4    1
     4     4     5   am
     5     5     6    2
     6     5     7    1
     7     7     8    1
     8     8     9    2
     9     9    10    1
    10    10    11    1
    11    11    12    2
    12    12    13    1
    13    12    14    1
    14    14    15    2
    15    15    16    1
    16     3    17    1
    17    17    18    2
    18    18    19    1
    19    19    20    2
    20    20    21    1
    21    21    22    1
    22    22    23    1
    23    22    24    1
    24    22    25    1
    25    20    26    1
    26    26    27    2
    27    16     7    2
    28    27    17    1
    29    16    10    1
@<TRIPOS>SUBSTRUCTURE
     1 RES1        1 GROUP             0 ****  ****    0  
@<TRIPOS>MOLECULE
ligand_97
    27    29     1     0     0
SMALL
NO_CHARGES
****
Generated from the CSD

@<TRIPOS>ATOM
     1 C1       2.5716  -0.0908   9.6268   C.3       1 RES1   0.0000
     2 C2       3.6545  -0.7410   8.7986   C.3       1 RES1   0.0000
     3 C3       4.9280   0.0847   8.7765   C.3       1 RES1   0.0000
     4 N4       5.4210   0.2906  10.1162   N.am      1 RES1   0.0000
     5 C5       6.1325   1.4196  10.4233   C.2       1 RES1   0.0000
     6 O6       6.4015   2.3090   9.6291   O.2       1 RES1   0.0000
     7 C7       6.5575   1.4897  11.7972   C.2       1 RES1   0.0000
     8 C8       5.8970   0.9413  12.9242   C.2       1 RES1   0.0000
     9 N9       6.5508   1.1805  14.0624   N.2       1 RES1   0.0000
    10 N10      7.6191   1.8826  13.6575   N.pl3     1 RES1   0.0000
    11 C11      8.5272   2.3007  14.5954   C.2       1 RES1   0.0000
    12 C12      9.6138   2.9952  13.8911   C.2       1 RES1   0.0000
    13 C13     10.7274   3.5055  14.7241   C.3       1 RES1   0.0000
    14 C14      9.6304   3.1928  12.5678   C.2       1 RES1   0.0000
    15 N15      8.7047   2.7855  11.7547   N.2       1 RES1   0.0000
    16 C16      7.6814   2.1002  12.3102   C.2       1 RES1   0.0000
    17 C17      5.9278  -0.6264   7.9212   C.2       1 RES1   0.0000
    18 C18      7.2226  -0.7903   8.3679   C.2       1 RES1   0.0000
    19 C19      8.1529  -1.4363   7.5848   C.2       1 RES1   0.0000
    20 C20      7.7752  -1.9237   6.3508   C.2       1 RES1   0.0000
    21 O21      8.7104  -2.5645   5.5586   O.3       1 RES1   0.0000
    22 C22      9.3555  -1.6226   4.7056   C.3       1 RES1   0.0000
    23 F23     10.0050  -0.6373   5.3810   F         1 RES1   0.0000
    24 F24      8.4852  -1.0439   3.8440   F         1 RES1   0.0000
    25 F25     10.2692  -2.3209   3.9883   F         1 RES1   0.0000
    26 C26      6.4883  -1.7629   5.8882   C.2       1 RES1   0.0000
    27 C27      5.5698  -1.1142   6.6818   C.2       1 RES1   0.0000
@<TRIPOS>BOND
     1     1     2    1
     2     3     2    1
     3     3     4    1
     4     4     5   am
     5     5     6    2
     6     5     7    1
     7     7     8    1
     8     8     9    2
     9     9    10    1
    10    10    11    1
    11    11    12    2
    12    12    13    1
    13    12    14    1
    14    14    15    2
    15    15    16    1
    16     3    17    1
    17    17    18    2
    18    18    19    1
    19    19    20    2
    20    20    21    1
    21    21    22    1
    22    22    23    1
    23    22    24    1
    24    22    25    1
    25    20    26    1
    26    26    27    2
    27    16     7    2
    28    27    17    1
    29    16    10    1
@<TRIPOS>SUBSTRUCTURE
     1 RES1        1 GROUP             0 ****  ****    0  
@<TRIPOS>MOLECULE
ligand_98
    27    29     1     0     0
SMALL
NO_CHARGES
****
Generated from the CSD

@<TRIPOS>ATOM
     1 C1       5.8936  -1.0042  10.8614   C.3       1 RES1   0.0000
     2 C2       4.6603  -0.8961   9.9962   C.3       1 RES1   0.0000
     3 C3       4.8861  -0.0003   8.7918   C.3       1 RES1   0.0000
     4 N4       5.2861   1.3205   9.2113   N.am      1 RES1   0.0000
     5 C5       4.3409   2.2665   9.5055   C.2       1 RES1   0.0000
     6 O6       3.1336   2.0857   9.4423   O.2       1 RES1   0.0000
     7 C7       4.8871   3.5359   9.9097   C.2       1 RES1   0.0000
     8 C8       4.4153   4.3767  10.9478   C.2       1 RES1   0.0000
     9 N9       5.1427   5.4883  11.0714   N.2       1 RES1   0.0000
    10 N10      6.0689   5.3539  10.1110   N.pl3     1 RES1   0.0000
    11 C11      7.0051   6.3430   9.9550   C.2       1 RES1   0.0000
    12 C12      7.9207   5.9304   8.8824   C.2       1 RES1   0.0000
    13 C13      9.0379   6.8517   8.5701   C.3       1 RES1   0.0000
    14 C14      7.7818   4.7961   8.1864   C.2       1 RES1   0.0000
    15 N15      6.8392   3.9263   8.3839   N.2       1 RES1   0.0000
    16 C16      5.9702   4.2036   9.3805   C.2       1 RES1   0.0000
    17 C17      5.9198  -0.6425   7.9225   C.2       1 RES1   0.0000
    18 C18      5.5424  -1.2700   6.7534   C.2       1 RES1   0.0000
    19 C19      6.4852  -1.8715   5.9502   C.2       1 RES1   0.0000
    20 C20      7.8127  -1.8348   6.3233   C.2       1 RES1   0.0000
    21 O21      8.7602  -2.4465   5.5228   O.3       1 RES1   0.0000
    22 C22      9.2414  -1.5271   4.5459   C.3       1 RES1   0.0000
    23 F23      9.8218  -0.4212   5.0834   F         1 RES1   0.0000
    24 F24      8.2585  -1.1245   3.7052   F         1 RES1   0.0000
    25 F25     10.1772  -2.1916   3.8251   F         1 RES1   0.0000
    26 C26      8.2048  -1.2177   7.4901   C.2       1 RES1   0.0000
    27 C27      7.2508  -0.6216   8.2832   C.2       1 RES1   0.0000
@<TRIPOS>BOND
     1     1     2    1
     2     3     2    1
     3     3     4    1
     4     4     5   am
     5     5     6    2
     6     5     7    1
     7     7     8    1
     8     8     9    2
     9     9    10    1
    10    10    11    1
    11    11    12    2
    12    12    13    1
    13    12    14    1
    14    14    15    2
    15    15    16    1
    16     3    17    1
    17    17    18    2
    18    18    19    1
    19    19    20    2
    20    20    21    1
    21    21    22    1
    22    22    23    1
    23    22    24    1
    24    22    25    1
    25    20    26    1
    26    26    27    2
    27    16     7    2
    28    27    17    1
    29    16    10    1
@<TRIPOS>SUBSTRUCTURE
     1 RES1        1 GROUP             0 ****  ****    0  
@<TRIPOS>MOLECULE
ligand_99
    27    29     1     0     0
SMALL
NO_CHARGES
****
Generated from the CSD

@<TRIPOS>ATOM
     1 C1       2.4441   0.5805   8.8665   C.3       1 RES1   0.0000
     2 C2       3.5498  -0.0779   8.0759   C.3       1 RES1   0.0000
     3 C3       4.8861  -0.0003   8.7918   C.3       1 RES1   0.0000
     4 N4       4.8053  -0.6349  10.0845   N.am      1 RES1   0.0000
     5 C5       4.9540   0.1056  11.2267   C.2       1 RES1   0.0000
     6 O6       5.1573   1.3107  11.2522   O.2       1 RES1   0.0000
     7 C7       4.8506  -0.6614  12.4409   C.2       1 RES1   0.0000
     8 C8       5.6523  -0.5339  13.6021   C.2       1 RES1   0.0000
     9 N9       5.3017  -1.3955  14.5585   N.2       1 RES1   0.0000
    10 N10      4.2847  -2.0698  14.0024   N.pl3     1 RES1   0.0000
    11 C11      3.6712  -3.0561  14.7305   C.2       1 RES1   0.0000
    12 C12      2.5708  -3.5953  13.9196   C.2       1 RES1   0.0000
    13 C13      1.7496  -4.6621  14.5377   C.3       1 RES1   0.0000
    14 C14      2.2976  -3.1841  12.6760   C.2       1 RES1   0.0000
    15 N15      2.9566  -2.2583  12.0492   N.2       1 RES1   0.0000
    16 C16      3.9650  -1.6757  12.7339   C.2       1 RES1   0.0000
    17 C17      5.9174  -0.6449   7.9215   C.2       1 RES1   0.0000
    18 C18      5.5503  -1.1931   6.7100   C.2       1 RES1   0.0000
    19 C19      6.4906  -1.7961   5.9050   C.2       1 RES1   0.0000
    20 C20      7.8055  -1.8411   6.3195   C.2       1 RES1   0.0000
    21 O21      8.7499  -2.4547   5.5168   O.3       1 RES1   0.0000
    22 C22      9.3040  -1.5100   4.6049   C.3       1 RES1   0.0000
    23 F23      9.9161  -0.4618   5.2175   F         1 RES1   0.0000
    24 F24      8.3685  -1.0190   3.7573   F         1 RES1   0.0000
    25 F25     10.2318  -2.1798   3.8787   F         1 RES1   0.0000
    26 C26      8.1869  -1.3039   7.5286   C.2       1 RES1   0.0000
    27 C27      7.2356  -0.7052   8.3228   C.2       1 RES1   0.0000
@<TRIPOS>BOND
     1     1     2    1
     2     3     2    1
     3     3     4    1
     4     4     5   am
     5     5     6    2
     6     5     7    1
     7     7     8    1
     8     8     9    2
     9     9    10    1
    10    10    11    1
    11    11    12    2
    12    12    13    1
    13    12    14    1
    14    14    15    2
    15    15    16    1
    16     3    17    1
    17    17    18    2
    18    18    19    1
    19    19    20    2
    20    20    21    1
    21    21    22    1
    22    22    23    1
    23    22    24    1
    24    22    25    1
    25    20    26    1
    26    26    27    2
    27    16     7    2
    28    27    17    1
    29    16    10    1
@<TRIPOS>SUBSTRUCTURE
     1 RES1        1 GROUP             0 ****  ****    0  
