@<TRIPOS>MOLECULE
native
    23    25     1     0     0
SMALL
NO_CHARGES
****
Generated from the CSD

@<TRIPOS>ATOM
     1 N1       1.0920   8.8410  13.0810   N.pl3     1 RES1   0.0000
     2 C2      -0.1290   8.6680  13.6850   C.2       1 RES1   0.0000
     3 N3      -0.5370   9.5710  14.5560   N.2       1 RES1   0.0000
     4 C4      -1.7240   9.3850  15.1360   C.2       1 RES1   0.0000
     5 N5      -2.5880   8.3860  14.9790   N.2       1 RES1   0.0000
     6 C6      -2.1190   7.5100  14.0890   C.2       1 RES1   0.0000
     7 C7      -0.9250   7.5600  13.4110   C.2       1 RES1   0.0000
     8 N8      -0.7820   6.4440  12.5980   N.2       1 RES1   0.0000
     9 C9      -1.8660   5.7570  12.8100   C.2       1 RES1   0.0000
    10 N10     -2.7230   6.3490  13.6850   N.pl3     1 RES1   0.0000
    11 C11     -4.0420   5.8540  14.1020   C.3       1 RES1   0.0000
    12 O12     -3.8630   4.7360  14.9670   O.3       1 RES1   0.0000
    13 C13     -4.7580   3.7160  14.5640   C.3       1 RES1   0.0000
    14 C14     -4.1760   2.3760  14.9810   C.3       1 RES1   0.0000
    15 O15     -4.3330   2.1480  16.3910   O.3       1 RES1   0.0000
    16 S16     -5.5440   1.2180  16.8770   S.o2      1 RES1   0.0000
    17 N17     -5.2670  -0.1970  16.2610   N.3       1 RES1   0.0000
    18 O18     -5.3280   1.2630  18.2760   O.2       1 RES1   0.0000
    19 O19     -6.7480   1.7370  16.3490   O.2       1 RES1   0.0000
    20 C20     -4.8530   3.8940  13.0790   C.3       1 RES1   0.0000
    21 O21     -5.9970   3.2370  12.5050   O.3       1 RES1   0.0000
    22 C22     -4.9630   5.3950  12.9640   C.3       1 RES1   0.0000
    23 O23     -6.3040   5.8180  13.1910   O.3       1 RES1   0.0000
@<TRIPOS>BOND
     1     1     2    1
     2     2     3    2
     3     3     4    1
     4     4     5    2
     5     5     6    1
     6     6     7    2
     7     7     8    1
     8     8     9    2
     9     9    10    1
    10    11    10    1
    11    11    12    1
    12    12    13    1
    13    13    14    1
    14    14    15    1
    15    15    16    1
    16    16    17    1
    17    16    18    2
    18    16    19    2
    19    13    20    1
    20    20    21    1
    21    20    22    1
    22    22    23    1
    23     7     2    1
    24    22    11    1
    25    10     6    1
@<TRIPOS>SUBSTRUCTURE
     1 RES1        1 GROUP             0 ****  ****    0  
@<TRIPOS>MOLECULE
ligand_0
    23    25     1     0     0
SMALL
NO_CHARGES
****
Generated from the CSD

@<TRIPOS>ATOM
     1 N1       1.0920   8.8410  13.0810   N.pl3     1 RES1   0.0000
     2 C2      -0.1290   8.6680  13.6850   C.2       1 RES1   0.0000
     3 N3      -0.5370   9.5710  14.5560   N.2       1 RES1   0.0000
     4 C4      -1.7240   9.3850  15.1360   C.2       1 RES1   0.0000
     5 N5      -2.5880   8.3860  14.9790   N.2       1 RES1   0.0000
     6 C6      -2.1190   7.5100  14.0890   C.2       1 RES1   0.0000
     7 C7      -0.9250   7.5600  13.4110   C.2       1 RES1   0.0000
     8 N8      -0.7820   6.4440  12.5980   N.2       1 RES1   0.0000
     9 C9      -1.8660   5.7570  12.8100   C.2       1 RES1   0.0000
    10 N10     -2.7230   6.3490  13.6850   N.pl3     1 RES1   0.0000
    11 C11     -4.0420   5.8540  14.1020   C.3       1 RES1   0.0000
    12 O12     -5.0123   6.6636  13.4289   O.3       1 RES1   0.0000
    13 C13     -6.0988   7.0079  14.3330   C.3       1 RES1   0.0000
    14 C14     -6.4455   8.4601  14.0515   C.3       1 RES1   0.0000
    15 O15     -5.3661   9.3392  14.4078   O.3       1 RES1   0.0000
    16 S16     -5.5634  10.9123  14.1758   S.o2      1 RES1   0.0000
    17 N17     -5.6599  11.1041  12.6226   N.3       1 RES1   0.0000
    18 O18     -6.8051  11.0929  14.8325   O.2       1 RES1   0.0000
    19 O19     -4.4209  11.5848  14.6659   O.2       1 RES1   0.0000
    20 C20     -5.5879   6.7782  15.7300   C.3       1 RES1   0.0000
    21 O21     -6.6493   6.1537  16.4738   O.3       1 RES1   0.0000
    22 C22     -4.3481   5.9034  15.5657   C.3       1 RES1   0.0000
    23 O23     -4.6578   4.6041  16.0605   O.3       1 RES1   0.0000
@<TRIPOS>BOND
     1     1     2    1
     2     2     3    2
     3     3     4    1
     4     4     5    2
     5     5     6    1
     6     6     7    2
     7     7     8    1
     8     8     9    2
     9     9    10    1
    10    11    10    1
    11    11    12    1
    12    12    13    1
    13    13    14    1
    14    14    15    1
    15    15    16    1
    16    16    17    1
    17    16    18    2
    18    16    19    2
    19    13    20    1
    20    20    21    1
    21    20    22    1
    22    22    23    1
    23     7     2    1
    24    22    11    1
    25    10     6    1
@<TRIPOS>SUBSTRUCTURE
     1 RES1        1 GROUP             0 ****  ****    0  
@<TRIPOS>MOLECULE
ligand_1
    23    25     1     0     0
SMALL
NO_CHARGES
****
Generated from the CSD

@<TRIPOS>ATOM
     1 N1       1.0920   8.8410  13.0810   N.pl3     1 RES1   0.0000
     2 C2      -0.1290   8.6680  13.6850   C.2       1 RES1   0.0000
     3 N3      -0.5370   9.5710  14.5560   N.2       1 RES1   0.0000
     4 C4      -1.7240   9.3850  15.1360   C.2       1 RES1   0.0000
     5 N5      -2.5880   8.3860  14.9790   N.2       1 RES1   0.0000
     6 C6      -2.1190   7.5100  14.0890   C.2       1 RES1   0.0000
     7 C7      -0.9250   7.5600  13.4110   C.2       1 RES1   0.0000
     8 N8      -0.7820   6.4440  12.5980   N.2       1 RES1   0.0000
     9 C9      -1.8660   5.7570  12.8100   C.2       1 RES1   0.0000
    10 N10     -2.7230   6.3490  13.6850   N.pl3     1 RES1   0.0000
    11 C11     -4.0420   5.8540  14.1020   C.3       1 RES1   0.0000
    12 O12     -5.0123   6.6636  13.4289   O.3       1 RES1   0.0000
    13 C13     -6.0988   7.0079  14.3330   C.3       1 RES1   0.0000
    14 C14     -6.4455   8.4601  14.0515   C.3       1 RES1   0.0000
    15 O15     -5.3661   9.3392  14.4078   O.3       1 RES1   0.0000
    16 S16     -5.5634  10.9123  14.1758   S.o2      1 RES1   0.0000
    17 N17     -6.6987  11.3489  15.1651   N.3       1 RES1   0.0000
    18 O18     -4.2821  11.3703  14.5690   O.2       1 RES1   0.0000
    19 O19     -5.9900  11.1193  12.8443   O.2       1 RES1   0.0000
    20 C20     -5.5879   6.7782  15.7300   C.3       1 RES1   0.0000
    21 O21     -6.6493   6.1537  16.4738   O.3       1 RES1   0.0000
    22 C22     -4.3481   5.9034  15.5657   C.3       1 RES1   0.0000
    23 O23     -4.6578   4.6041  16.0605   O.3       1 RES1   0.0000
@<TRIPOS>BOND
     1     1     2    1
     2     2     3    2
     3     3     4    1
     4     4     5    2
     5     5     6    1
     6     6     7    2
     7     7     8    1
     8     8     9    2
     9     9    10    1
    10    11    10    1
    11    11    12    1
    12    12    13    1
    13    13    14    1
    14    14    15    1
    15    15    16    1
    16    16    17    1
    17    16    18    2
    18    16    19    2
    19    13    20    1
    20    20    21    1
    21    20    22    1
    22    22    23    1
    23     7     2    1
    24    22    11    1
    25    10     6    1
@<TRIPOS>SUBSTRUCTURE
     1 RES1        1 GROUP             0 ****  ****    0  
@<TRIPOS>MOLECULE
ligand_2
    23    25     1     0     0
SMALL
NO_CHARGES
****
Generated from the CSD

@<TRIPOS>ATOM
     1 N1       1.0920   8.8410  13.0810   N.pl3     1 RES1   0.0000
     2 C2      -0.1290   8.6680  13.6850   C.2       1 RES1   0.0000
     3 N3      -0.5370   9.5710  14.5560   N.2       1 RES1   0.0000
     4 C4      -1.7240   9.3850  15.1360   C.2       1 RES1   0.0000
     5 N5      -2.5880   8.3860  14.9790   N.2       1 RES1   0.0000
     6 C6      -2.1190   7.5100  14.0890   C.2       1 RES1   0.0000
     7 C7      -0.9250   7.5600  13.4110   C.2       1 RES1   0.0000
     8 N8      -0.7820   6.4440  12.5980   N.2       1 RES1   0.0000
     9 C9      -1.8660   5.7570  12.8100   C.2       1 RES1   0.0000
    10 N10     -2.7230   6.3490  13.6850   N.pl3     1 RES1   0.0000
    11 C11     -4.0420   5.8540  14.1020   C.3       1 RES1   0.0000
    12 O12     -5.0123   6.6636  13.4289   O.3       1 RES1   0.0000
    13 C13     -6.0988   7.0079  14.3330   C.3       1 RES1   0.0000
    14 C14     -6.4455   8.4601  14.0515   C.3       1 RES1   0.0000
    15 O15     -6.9040   8.6413  12.7018   O.3       1 RES1   0.0000
    16 S16     -7.3140  10.1179  12.2337   S.o2      1 RES1   0.0000
    17 N17     -8.5809  10.4948  13.0771   N.3       1 RES1   0.0000
    18 O18     -6.1533  10.8227  12.6361   O.2       1 RES1   0.0000
    19 O19     -7.6533  10.0757  10.8623   O.2       1 RES1   0.0000
    20 C20     -5.5879   6.7782  15.7300   C.3       1 RES1   0.0000
    21 O21     -6.6493   6.1537  16.4738   O.3       1 RES1   0.0000
    22 C22     -4.3481   5.9034  15.5657   C.3       1 RES1   0.0000
    23 O23     -4.6578   4.6041  16.0605   O.3       1 RES1   0.0000
@<TRIPOS>BOND
     1     1     2    1
     2     2     3    2
     3     3     4    1
     4     4     5    2
     5     5     6    1
     6     6     7    2
     7     7     8    1
     8     8     9    2
     9     9    10    1
    10    11    10    1
    11    11    12    1
    12    12    13    1
    13    13    14    1
    14    14    15    1
    15    15    16    1
    16    16    17    1
    17    16    18    2
    18    16    19    2
    19    13    20    1
    20    20    21    1
    21    20    22    1
    22    22    23    1
    23     7     2    1
    24    22    11    1
    25    10     6    1
@<TRIPOS>SUBSTRUCTURE
     1 RES1        1 GROUP             0 ****  ****    0  
@<TRIPOS>MOLECULE
ligand_3
    23    25     1     0     0
SMALL
NO_CHARGES
****
Generated from the CSD

@<TRIPOS>ATOM
     1 N1       1.0920   8.8410  13.0810   N.pl3     1 RES1   0.0000
     2 C2      -0.1290   8.6680  13.6850   C.2       1 RES1   0.0000
     3 N3      -0.5370   9.5710  14.5560   N.2       1 RES1   0.0000
     4 C4      -1.7240   9.3850  15.1360   C.2       1 RES1   0.0000
     5 N5      -2.5880   8.3860  14.9790   N.2       1 RES1   0.0000
     6 C6      -2.1190   7.5100  14.0890   C.2       1 RES1   0.0000
     7 C7      -0.9250   7.5600  13.4110   C.2       1 RES1   0.0000
     8 N8      -0.7820   6.4440  12.5980   N.2       1 RES1   0.0000
     9 C9      -1.8660   5.7570  12.8100   C.2       1 RES1   0.0000
    10 N10     -2.7230   6.3490  13.6850   N.pl3     1 RES1   0.0000
    11 C11     -4.0420   5.8540  14.1020   C.3       1 RES1   0.0000
    12 O12     -5.0123   6.6636  13.4289   O.3       1 RES1   0.0000
    13 C13     -6.0988   7.0079  14.3330   C.3       1 RES1   0.0000
    14 C14     -6.4455   8.4601  14.0515   C.3       1 RES1   0.0000
    15 O15     -6.9040   8.6413  12.7018   O.3       1 RES1   0.0000
    16 S16     -7.3140  10.1179  12.2337   S.o2      1 RES1   0.0000
    17 N17     -5.9884  10.9550  12.2581   N.3       1 RES1   0.0000
    18 O18     -7.7625   9.8322  10.9211   O.2       1 RES1   0.0000
    19 O19     -8.2269  10.6490  13.1731   O.2       1 RES1   0.0000
    20 C20     -5.5879   6.7782  15.7300   C.3       1 RES1   0.0000
    21 O21     -6.6493   6.1537  16.4738   O.3       1 RES1   0.0000
    22 C22     -4.3481   5.9034  15.5657   C.3       1 RES1   0.0000
    23 O23     -4.6578   4.6041  16.0605   O.3       1 RES1   0.0000
@<TRIPOS>BOND
     1     1     2    1
     2     2     3    2
     3     3     4    1
     4     4     5    2
     5     5     6    1
     6     6     7    2
     7     7     8    1
     8     8     9    2
     9     9    10    1
    10    11    10    1
    11    11    12    1
    12    12    13    1
    13    13    14    1
    14    14    15    1
    15    15    16    1
    16    16    17    1
    17    16    18    2
    18    16    19    2
    19    13    20    1
    20    20    21    1
    21    20    22    1
    22    22    23    1
    23     7     2    1
    24    22    11    1
    25    10     6    1
@<TRIPOS>SUBSTRUCTURE
     1 RES1        1 GROUP             0 ****  ****    0  
@<TRIPOS>MOLECULE
ligand_4
    23    25     1     0     0
SMALL
NO_CHARGES
****
Generated from the CSD

@<TRIPOS>ATOM
     1 N1       1.1174   8.8128  13.1277   N.pl3     1 RES1   0.0000
     2 C2      -0.0959   8.6297  13.7442   C.2       1 RES1   0.0000
     3 N3      -0.4763   9.4981  14.6616   N.2       1 RES1   0.0000
     4 C4      -1.6561   9.3026  15.2529   C.2       1 RES1   0.0000
     5 N5      -2.5370   8.3237  15.0663   N.2       1 RES1   0.0000
     6 C6      -2.0956   7.4822  14.1301   C.2       1 RES1   0.0000
     7 C7      -0.9123   7.5462  13.4346   C.2       1 RES1   0.0000
     8 N8      -0.7990   6.4660  12.5702   N.2       1 RES1   0.0000
     9 C9      -1.8893   5.7852  12.7698   C.2       1 RES1   0.0000
    10 N10     -2.7230   6.3490  13.6850   N.pl3     1 RES1   0.0000
    11 C11     -4.0420   5.8540  14.1020   C.3       1 RES1   0.0000
    12 O12     -5.0123   6.6636  13.4289   O.3       1 RES1   0.0000
    13 C13     -6.0988   7.0079  14.3330   C.3       1 RES1   0.0000
    14 C14     -6.4455   8.4601  14.0515   C.3       1 RES1   0.0000
    15 O15     -5.3759   9.3413  14.4310   O.3       1 RES1   0.0000
    16 S16     -5.5744  10.9148  14.2021   S.o2      1 RES1   0.0000
    17 N17     -4.2614  11.5901  14.7296   N.3       1 RES1   0.0000
    18 O18     -5.6769  10.9356  12.7896   O.2       1 RES1   0.0000
    19 O19     -6.6738  11.3459  14.9788   O.2       1 RES1   0.0000
    20 C20     -5.5879   6.7782  15.7300   C.3       1 RES1   0.0000
    21 O21     -6.6493   6.1537  16.4738   O.3       1 RES1   0.0000
    22 C22     -4.3481   5.9034  15.5657   C.3       1 RES1   0.0000
    23 O23     -4.6578   4.6041  16.0605   O.3       1 RES1   0.0000
@<TRIPOS>BOND
     1     1     2    1
     2     2     3    2
     3     3     4    1
     4     4     5    2
     5     5     6    1
     6     6     7    2
     7     7     8    1
     8     8     9    2
     9     9    10    1
    10    11    10    1
    11    11    12    1
    12    12    13    1
    13    13    14    1
    14    14    15    1
    15    15    16    1
    16    16    17    1
    17    16    18    2
    18    16    19    2
    19    13    20    1
    20    20    21    1
    21    20    22    1
    22    22    23    1
    23     7     2    1
    24    22    11    1
    25    10     6    1
@<TRIPOS>SUBSTRUCTURE
     1 RES1        1 GROUP             0 ****  ****    0  
@<TRIPOS>MOLECULE
ligand_5
    23    25     1     0     0
SMALL
NO_CHARGES
****
Generated from the CSD

@<TRIPOS>ATOM
     1 N1       1.0601   8.8735  13.0188   N.pl3     1 RES1   0.0000
     2 C2      -0.1707   8.7125  13.6059   C.2       1 RES1   0.0000
     3 N3      -0.6136   9.6561  14.4146   N.2       1 RES1   0.0000
     4 C4      -1.8097   9.4813  14.9793   C.2       1 RES1   0.0000
     5 N5      -2.6523   8.4589  14.8620   N.2       1 RES1   0.0000
     6 C6      -2.1485   7.5424  14.0340   C.2       1 RES1   0.0000
     7 C7      -0.9409   7.5759  13.3795   C.2       1 RES1   0.0000
     8 N8      -0.7604   6.4181  12.6354   N.2       1 RES1   0.0000
     9 C9      -1.8366   5.7241  12.8638   C.2       1 RES1   0.0000
    10 N10     -2.7230   6.3490  13.6850   N.pl3     1 RES1   0.0000
    11 C11     -4.0420   5.8540  14.1020   C.3       1 RES1   0.0000
    12 O12     -5.0292   6.6193  13.4660   O.3       1 RES1   0.0000
    13 C13     -6.1702   6.7864  14.3391   C.3       1 RES1   0.0000
    14 C14     -6.4629   8.2652  14.5278   C.3       1 RES1   0.0000
    15 O15     -5.4091   8.9242  15.2489   O.3       1 RES1   0.0000
    16 S16     -5.7894  10.1878  16.1579   S.o2      1 RES1   0.0000
    17 N17     -6.3172  11.2815  15.1661   N.3       1 RES1   0.0000
    18 O18     -6.8180   9.6116  16.9427   O.2       1 RES1   0.0000
    19 O19     -4.6158  10.6521  16.7942   O.2       1 RES1   0.0000
    20 C20     -5.8238   6.0306  15.6194   C.3       1 RES1   0.0000
    21 O21     -6.3577   4.6970  15.5403   O.3       1 RES1   0.0000
    22 C22     -4.3078   5.9928  15.5955   C.3       1 RES1   0.0000
    23 O23     -3.7545   4.8661  16.2687   O.3       1 RES1   0.0000
@<TRIPOS>BOND
     1     1     2    1
     2     2     3    2
     3     3     4    1
     4     4     5    2
     5     5     6    1
     6     6     7    2
     7     7     8    1
     8     8     9    2
     9     9    10    1
    10    11    10    1
    11    11    12    1
    12    12    13    1
    13    13    14    1
    14    14    15    1
    15    15    16    1
    16    16    17    1
    17    16    18    2
    18    16    19    2
    19    13    20    1
    20    20    21    1
    21    20    22    1
    22    22    23    1
    23     7     2    1
    24    22    11    1
    25    10     6    1
@<TRIPOS>SUBSTRUCTURE
     1 RES1        1 GROUP             0 ****  ****    0  
@<TRIPOS>MOLECULE
ligand_6
    23    25     1     0     0
SMALL
NO_CHARGES
****
Generated from the CSD

@<TRIPOS>ATOM
     1 N1       1.0602   8.8735  13.0189   N.pl3     1 RES1   0.0000
     2 C2      -0.1706   8.7124  13.6061   C.2       1 RES1   0.0000
     3 N3      -0.6134   9.6559  14.4150   N.2       1 RES1   0.0000
     4 C4      -1.8095   9.4811  14.9797   C.2       1 RES1   0.0000
     5 N5      -2.6522   8.4587  14.8623   N.2       1 RES1   0.0000
     6 C6      -2.1485   7.5423  14.0342   C.2       1 RES1   0.0000
     7 C7      -0.9409   7.5758  13.3796   C.2       1 RES1   0.0000
     8 N8      -0.7605   6.4181  12.6353   N.2       1 RES1   0.0000
     9 C9      -1.8367   5.7242  12.8637   C.2       1 RES1   0.0000
    10 N10     -2.7230   6.3490  13.6850   N.pl3     1 RES1   0.0000
    11 C11     -4.0420   5.8540  14.1020   C.3       1 RES1   0.0000
    12 O12     -5.0292   6.6193  13.4660   O.3       1 RES1   0.0000
    13 C13     -6.1702   6.7864  14.3391   C.3       1 RES1   0.0000
    14 C14     -6.4629   8.2652  14.5278   C.3       1 RES1   0.0000
    15 O15     -5.4089   8.9243  15.2486   O.3       1 RES1   0.0000
    16 S16     -5.7892  10.1874  16.1584   S.o2      1 RES1   0.0000
    17 N17     -6.6902   9.6247  17.3117   N.3       1 RES1   0.0000
    18 O18     -4.4952  10.5575  16.5993   O.2       1 RES1   0.0000
    19 O19     -6.5359  11.0962  15.3746   O.2       1 RES1   0.0000
    20 C20     -5.8238   6.0306  15.6194   C.3       1 RES1   0.0000
    21 O21     -6.3577   4.6970  15.5403   O.3       1 RES1   0.0000
    22 C22     -4.3078   5.9928  15.5955   C.3       1 RES1   0.0000
    23 O23     -3.7545   4.8661  16.2687   O.3       1 RES1   0.0000
@<TRIPOS>BOND
     1     1     2    1
     2     2     3    2
     3     3     4    1
     4     4     5    2
     5     5     6    1
     6     6     7    2
     7     7     8    1
     8     8     9    2
     9     9    10    1
    10    11    10    1
    11    11    12    1
    12    12    13    1
    13    13    14    1
    14    14    15    1
    15    15    16    1
    16    16    17    1
    17    16    18    2
    18    16    19    2
    19    13    20    1
    20    20    21    1
    21    20    22    1
    22    22    23    1
    23     7     2    1
    24    22    11    1
    25    10     6    1
@<TRIPOS>SUBSTRUCTURE
     1 RES1        1 GROUP             0 ****  ****    0  
@<TRIPOS>MOLECULE
ligand_7
    23    25     1     0     0
SMALL
NO_CHARGES
****
Generated from the CSD

@<TRIPOS>ATOM
     1 N1       1.0879   8.8454  13.0732   N.pl3     1 RES1   0.0000
     2 C2      -0.1344   8.6740  13.6751   C.2       1 RES1   0.0000
     3 N3      -0.5468   9.5824  14.5384   N.2       1 RES1   0.0000
     4 C4      -1.7350   9.3979  15.1165   C.2       1 RES1   0.0000
     5 N5      -2.5963   8.3957  14.9644   N.2       1 RES1   0.0000
     6 C6      -2.1228   7.5143  14.0821   C.2       1 RES1   0.0000
     7 C7      -0.9270   7.5621  13.4071   C.2       1 RES1   0.0000
     8 N8      -0.7792   6.4406  12.6027   N.2       1 RES1   0.0000
     9 C9      -1.8622   5.7526  12.8167   C.2       1 RES1   0.0000
    10 N10     -2.7230   6.3490  13.6850   N.pl3     1 RES1   0.0000
    11 C11     -4.0420   5.8540  14.1020   C.3       1 RES1   0.0000
    12 O12     -5.0292   6.6193  13.4660   O.3       1 RES1   0.0000
    13 C13     -6.1702   6.7864  14.3391   C.3       1 RES1   0.0000
    14 C14     -6.4629   8.2652  14.5278   C.3       1 RES1   0.0000
    15 O15     -5.4300   8.9153  15.2863   O.3       1 RES1   0.0000
    16 S16     -5.1725  10.4762  15.0315   S.o2      1 RES1   0.0000
    17 N17     -4.5698  10.5774  13.5876   N.3       1 RES1   0.0000
    18 O18     -6.5051  10.9498  15.1080   O.2       1 RES1   0.0000
    19 O19     -4.2238  10.9340  15.9740   O.2       1 RES1   0.0000
    20 C20     -5.8238   6.0306  15.6194   C.3       1 RES1   0.0000
    21 O21     -6.3577   4.6970  15.5403   O.3       1 RES1   0.0000
    22 C22     -4.3078   5.9928  15.5955   C.3       1 RES1   0.0000
    23 O23     -3.7545   4.8661  16.2687   O.3       1 RES1   0.0000
@<TRIPOS>BOND
     1     1     2    1
     2     2     3    2
     3     3     4    1
     4     4     5    2
     5     5     6    1
     6     6     7    2
     7     7     8    1
     8     8     9    2
     9     9    10    1
    10    11    10    1
    11    11    12    1
    12    12    13    1
    13    13    14    1
    14    14    15    1
    15    15    16    1
    16    16    17    1
    17    16    18    2
    18    16    19    2
    19    13    20    1
    20    20    21    1
    21    20    22    1
    22    22    23    1
    23     7     2    1
    24    22    11    1
    25    10     6    1
@<TRIPOS>SUBSTRUCTURE
     1 RES1        1 GROUP             0 ****  ****    0  
@<TRIPOS>MOLECULE
ligand_8
    23    25     1     0     0
SMALL
NO_CHARGES
****
Generated from the CSD

@<TRIPOS>ATOM
     1 N1       1.0984   8.8340  13.0931   N.pl3     1 RES1   0.0000
     2 C2      -0.1206   8.6585  13.7003   C.2       1 RES1   0.0000
     3 N3      -0.5216   9.5529  14.5834   N.2       1 RES1   0.0000
     4 C4      -1.7067   9.3646  15.1663   C.2       1 RES1   0.0000
     5 N5      -2.5750   8.3705  15.0016   N.2       1 RES1   0.0000
     6 C6      -2.1130   7.5031  14.0996   C.2       1 RES1   0.0000
     7 C7      -0.9218   7.5566  13.4171   C.2       1 RES1   0.0000
     8 N8      -0.7863   6.4495  12.5908   N.2       1 RES1   0.0000
     9 C9      -1.8719   5.7640  12.7996   C.2       1 RES1   0.0000
    10 N10     -2.7230   6.3490  13.6850   N.pl3     1 RES1   0.0000
    11 C11     -4.0420   5.8540  14.1020   C.3       1 RES1   0.0000
    12 O12     -5.0292   6.6193  13.4660   O.3       1 RES1   0.0000
    13 C13     -6.1702   6.7864  14.3391   C.3       1 RES1   0.0000
    14 C14     -6.4629   8.2652  14.5278   C.3       1 RES1   0.0000
    15 O15     -5.4654   8.9010  15.3436   O.3       1 RES1   0.0000
    16 S16     -5.2023  10.4677  15.1339   S.o2      1 RES1   0.0000
    17 N17     -6.5586  11.1760  15.4759   N.3       1 RES1   0.0000
    18 O18     -4.2078  10.6731  16.1213   O.2       1 RES1   0.0000
    19 O19     -4.8807  10.6907  13.7758   O.2       1 RES1   0.0000
    20 C20     -5.8238   6.0306  15.6194   C.3       1 RES1   0.0000
    21 O21     -6.3577   4.6970  15.5403   O.3       1 RES1   0.0000
    22 C22     -4.3078   5.9928  15.5955   C.3       1 RES1   0.0000
    23 O23     -3.7545   4.8661  16.2687   O.3       1 RES1   0.0000
@<TRIPOS>BOND
     1     1     2    1
     2     2     3    2
     3     3     4    1
     4     4     5    2
     5     5     6    1
     6     6     7    2
     7     7     8    1
     8     8     9    2
     9     9    10    1
    10    11    10    1
    11    11    12    1
    12    12    13    1
    13    13    14    1
    14    14    15    1
    15    15    16    1
    16    16    17    1
    17    16    18    2
    18    16    19    2
    19    13    20    1
    20    20    21    1
    21    20    22    1
    22    22    23    1
    23     7     2    1
    24    22    11    1
    25    10     6    1
@<TRIPOS>SUBSTRUCTURE
     1 RES1        1 GROUP             0 ****  ****    0  
@<TRIPOS>MOLECULE
ligand_9
    23    25     1     0     0
SMALL
NO_CHARGES
****
Generated from the CSD

@<TRIPOS>ATOM
     1 N1       1.0920   8.8410  13.0810   N.pl3     1 RES1   0.0000
     2 C2      -0.1290   8.6680  13.6850   C.2       1 RES1   0.0000
     3 N3      -0.5370   9.5710  14.5560   N.2       1 RES1   0.0000
     4 C4      -1.7240   9.3850  15.1360   C.2       1 RES1   0.0000
     5 N5      -2.5880   8.3860  14.9790   N.2       1 RES1   0.0000
     6 C6      -2.1190   7.5100  14.0890   C.2       1 RES1   0.0000
     7 C7      -0.9250   7.5600  13.4110   C.2       1 RES1   0.0000
     8 N8      -0.7820   6.4440  12.5980   N.2       1 RES1   0.0000
     9 C9      -1.8660   5.7570  12.8100   C.2       1 RES1   0.0000
    10 N10     -2.7230   6.3490  13.6850   N.pl3     1 RES1   0.0000
    11 C11     -4.0420   5.8540  14.1020   C.3       1 RES1   0.0000
    12 O12     -4.1264   4.4956  13.6574   O.3       1 RES1   0.0000
    13 C13     -5.4438   4.2258  13.1024   C.3       1 RES1   0.0000
    14 C14     -5.2210   3.3618  11.8728   C.3       1 RES1   0.0000
    15 O15     -4.5184   4.0782  10.8443   O.3       1 RES1   0.0000
    16 S16     -4.1985   3.3136   9.4729   S.o2      1 RES1   0.0000
    17 N17     -3.1868   2.1756   9.8467   N.3       1 RES1   0.0000
    18 O18     -5.4924   2.8242   9.1694   O.2       1 RES1   0.0000
    19 O19     -3.5808   4.2239   8.5854   O.2       1 RES1   0.0000
    20 C20     -6.0617   5.5615  12.7869   C.3       1 RES1   0.0000
    21 O21     -7.4413   5.4978  13.1902   O.3       1 RES1   0.0000
    22 C22     -5.2347   6.5809  13.5656   C.3       1 RES1   0.0000
    23 O23     -6.0404   7.0815  14.6281   O.3       1 RES1   0.0000
@<TRIPOS>BOND
     1     1     2    1
     2     2     3    2
     3     3     4    1
     4     4     5    2
     5     5     6    1
     6     6     7    2
     7     7     8    1
     8     8     9    2
     9     9    10    1
    10    11    10    1
    11    11    12    1
    12    12    13    1
    13    13    14    1
    14    14    15    1
    15    15    16    1
    16    16    17    1
    17    16    18    2
    18    16    19    2
    19    13    20    1
    20    20    21    1
    21    20    22    1
    22    22    23    1
    23     7     2    1
    24    22    11    1
    25    10     6    1
@<TRIPOS>SUBSTRUCTURE
     1 RES1        1 GROUP             0 ****  ****    0  
@<TRIPOS>MOLECULE
ligand_10
    23    25     1     0     0
SMALL
NO_CHARGES
****
Generated from the CSD

@<TRIPOS>ATOM
     1 N1       1.0920   8.8410  13.0810   N.pl3     1 RES1   0.0000
     2 C2      -0.1290   8.6680  13.6850   C.2       1 RES1   0.0000
     3 N3      -0.5370   9.5710  14.5560   N.2       1 RES1   0.0000
     4 C4      -1.7240   9.3850  15.1360   C.2       1 RES1   0.0000
     5 N5      -2.5880   8.3860  14.9790   N.2       1 RES1   0.0000
     6 C6      -2.1190   7.5100  14.0890   C.2       1 RES1   0.0000
     7 C7      -0.9250   7.5600  13.4110   C.2       1 RES1   0.0000
     8 N8      -0.7820   6.4440  12.5980   N.2       1 RES1   0.0000
     9 C9      -1.8660   5.7570  12.8100   C.2       1 RES1   0.0000
    10 N10     -2.7230   6.3490  13.6850   N.pl3     1 RES1   0.0000
    11 C11     -4.0420   5.8540  14.1020   C.3       1 RES1   0.0000
    12 O12     -4.1264   4.4956  13.6574   O.3       1 RES1   0.0000
    13 C13     -5.4438   4.2258  13.1024   C.3       1 RES1   0.0000
    14 C14     -5.2210   3.3618  11.8728   C.3       1 RES1   0.0000
    15 O15     -4.5184   4.0782  10.8443   O.3       1 RES1   0.0000
    16 S16     -4.1985   3.3136   9.4729   S.o2      1 RES1   0.0000
    17 N17     -5.5902   3.0376   8.8054   N.3       1 RES1   0.0000
    18 O18     -3.4581   4.3220   8.8089   O.2       1 RES1   0.0000
    19 O19     -3.5687   2.0861   9.7800   O.2       1 RES1   0.0000
    20 C20     -6.0617   5.5615  12.7869   C.3       1 RES1   0.0000
    21 O21     -7.4413   5.4978  13.1902   O.3       1 RES1   0.0000
    22 C22     -5.2347   6.5809  13.5656   C.3       1 RES1   0.0000
    23 O23     -6.0404   7.0815  14.6281   O.3       1 RES1   0.0000
@<TRIPOS>BOND
     1     1     2    1
     2     2     3    2
     3     3     4    1
     4     4     5    2
     5     5     6    1
     6     6     7    2
     7     7     8    1
     8     8     9    2
     9     9    10    1
    10    11    10    1
    11    11    12    1
    12    12    13    1
    13    13    14    1
    14    14    15    1
    15    15    16    1
    16    16    17    1
    17    16    18    2
    18    16    19    2
    19    13    20    1
    20    20    21    1
    21    20    22    1
    22    22    23    1
    23     7     2    1
    24    22    11    1
    25    10     6    1
@<TRIPOS>SUBSTRUCTURE
     1 RES1        1 GROUP             0 ****  ****    0  
@<TRIPOS>MOLECULE
ligand_11
    23    25     1     0     0
SMALL
NO_CHARGES
****
Generated from the CSD

@<TRIPOS>ATOM
     1 N1       1.0920   8.8410  13.0810   N.pl3     1 RES1   0.0000
     2 C2      -0.1290   8.6680  13.6850   C.2       1 RES1   0.0000
     3 N3      -0.5370   9.5710  14.5560   N.2       1 RES1   0.0000
     4 C4      -1.7240   9.3850  15.1360   C.2       1 RES1   0.0000
     5 N5      -2.5880   8.3860  14.9790   N.2       1 RES1   0.0000
     6 C6      -2.1190   7.5100  14.0890   C.2       1 RES1   0.0000
     7 C7      -0.9250   7.5600  13.4110   C.2       1 RES1   0.0000
     8 N8      -0.7820   6.4440  12.5980   N.2       1 RES1   0.0000
     9 C9      -1.8660   5.7570  12.8100   C.2       1 RES1   0.0000
    10 N10     -2.7230   6.3490  13.6850   N.pl3     1 RES1   0.0000
    11 C11     -4.0420   5.8540  14.1020   C.3       1 RES1   0.0000
    12 O12     -5.0123   6.6636  13.4289   O.3       1 RES1   0.0000
    13 C13     -6.0988   7.0079  14.3330   C.3       1 RES1   0.0000
    14 C14     -6.4455   8.4601  14.0515   C.3       1 RES1   0.0000
    15 O15     -7.6043   8.8790  14.7907   O.3       1 RES1   0.0000
    16 S16     -8.1111  10.3885  14.6116   S.o2      1 RES1   0.0000
    17 N17     -6.9791  11.2913  15.2131   N.3       1 RES1   0.0000
    18 O18     -8.1732  10.4494  13.1979   O.2       1 RES1   0.0000
    19 O19     -9.2980  10.5551  15.3608   O.2       1 RES1   0.0000
    20 C20     -5.5879   6.7782  15.7300   C.3       1 RES1   0.0000
    21 O21     -6.6493   6.1537  16.4738   O.3       1 RES1   0.0000
    22 C22     -4.3481   5.9034  15.5657   C.3       1 RES1   0.0000
    23 O23     -4.6578   4.6041  16.0605   O.3       1 RES1   0.0000
@<TRIPOS>BOND
     1     1     2    1
     2     2     3    2
     3     3     4    1
     4     4     5    2
     5     5     6    1
     6     6     7    2
     7     7     8    1
     8     8     9    2
     9     9    10    1
    10    11    10    1
    11    11    12    1
    12    12    13    1
    13    13    14    1
    14    14    15    1
    15    15    16    1
    16    16    17    1
    17    16    18    2
    18    16    19    2
    19    13    20    1
    20    20    21    1
    21    20    22    1
    22    22    23    1
    23     7     2    1
    24    22    11    1
    25    10     6    1
@<TRIPOS>SUBSTRUCTURE
     1 RES1        1 GROUP             0 ****  ****    0  
@<TRIPOS>MOLECULE
ligand_12
    23    25     1     0     0
SMALL
NO_CHARGES
****
Generated from the CSD

@<TRIPOS>ATOM
     1 N1       1.0920   8.8410  13.0810   N.pl3     1 RES1   0.0000
     2 C2      -0.1290   8.6680  13.6850   C.2       1 RES1   0.0000
     3 N3      -0.5370   9.5710  14.5560   N.2       1 RES1   0.0000
     4 C4      -1.7240   9.3850  15.1360   C.2       1 RES1   0.0000
     5 N5      -2.5880   8.3860  14.9790   N.2       1 RES1   0.0000
     6 C6      -2.1190   7.5100  14.0890   C.2       1 RES1   0.0000
     7 C7      -0.9250   7.5600  13.4110   C.2       1 RES1   0.0000
     8 N8      -0.7820   6.4440  12.5980   N.2       1 RES1   0.0000
     9 C9      -1.8660   5.7570  12.8100   C.2       1 RES1   0.0000
    10 N10     -2.7230   6.3490  13.6850   N.pl3     1 RES1   0.0000
    11 C11     -4.0420   5.8540  14.1020   C.3       1 RES1   0.0000
    12 O12     -5.0123   6.6636  13.4289   O.3       1 RES1   0.0000
    13 C13     -6.0988   7.0079  14.3330   C.3       1 RES1   0.0000
    14 C14     -6.4455   8.4601  14.0515   C.3       1 RES1   0.0000
    15 O15     -7.6043   8.8790  14.7907   O.3       1 RES1   0.0000
    16 S16     -8.1111  10.3885  14.6116   S.o2      1 RES1   0.0000
    17 N17     -8.5970  10.5002  13.1250   N.3       1 RES1   0.0000
    18 O18     -9.1783  10.3901  15.5427   O.2       1 RES1   0.0000
    19 O19     -7.0154  11.2571  14.8183   O.2       1 RES1   0.0000
    20 C20     -5.5879   6.7782  15.7300   C.3       1 RES1   0.0000
    21 O21     -6.6493   6.1537  16.4738   O.3       1 RES1   0.0000
    22 C22     -4.3481   5.9034  15.5657   C.3       1 RES1   0.0000
    23 O23     -4.6578   4.6041  16.0605   O.3       1 RES1   0.0000
@<TRIPOS>BOND
     1     1     2    1
     2     2     3    2
     3     3     4    1
     4     4     5    2
     5     5     6    1
     6     6     7    2
     7     7     8    1
     8     8     9    2
     9     9    10    1
    10    11    10    1
    11    11    12    1
    12    12    13    1
    13    13    14    1
    14    14    15    1
    15    15    16    1
    16    16    17    1
    17    16    18    2
    18    16    19    2
    19    13    20    1
    20    20    21    1
    21    20    22    1
    22    22    23    1
    23     7     2    1
    24    22    11    1
    25    10     6    1
@<TRIPOS>SUBSTRUCTURE
     1 RES1        1 GROUP             0 ****  ****    0  
@<TRIPOS>MOLECULE
ligand_13
    23    25     1     0     0
SMALL
NO_CHARGES
****
Generated from the CSD

@<TRIPOS>ATOM
     1 N1       1.0920   8.8410  13.0810   N.pl3     1 RES1   0.0000
     2 C2      -0.1290   8.6680  13.6850   C.2       1 RES1   0.0000
     3 N3      -0.5370   9.5710  14.5560   N.2       1 RES1   0.0000
     4 C4      -1.7240   9.3850  15.1360   C.2       1 RES1   0.0000
     5 N5      -2.5880   8.3860  14.9790   N.2       1 RES1   0.0000
     6 C6      -2.1190   7.5100  14.0890   C.2       1 RES1   0.0000
     7 C7      -0.9250   7.5600  13.4110   C.2       1 RES1   0.0000
     8 N8      -0.7820   6.4440  12.5980   N.2       1 RES1   0.0000
     9 C9      -1.8660   5.7570  12.8100   C.2       1 RES1   0.0000
    10 N10     -2.7230   6.3490  13.6850   N.pl3     1 RES1   0.0000
    11 C11     -4.0420   5.8540  14.1020   C.3       1 RES1   0.0000
    12 O12     -5.0123   6.6636  13.4289   O.3       1 RES1   0.0000
    13 C13     -6.0988   7.0079  14.3330   C.3       1 RES1   0.0000
    14 C14     -6.4455   8.4601  14.0515   C.3       1 RES1   0.0000
    15 O15     -6.9040   8.6413  12.7018   O.3       1 RES1   0.0000
    16 S16     -7.3140  10.1179  12.2337   S.o2      1 RES1   0.0000
    17 N17     -7.7622   9.9804  10.7376   N.3       1 RES1   0.0000
    18 O18     -8.3975  10.3516  13.1154   O.2       1 RES1   0.0000
    19 O19     -6.1716  10.9466  12.3117   O.2       1 RES1   0.0000
    20 C20     -5.5879   6.7782  15.7300   C.3       1 RES1   0.0000
    21 O21     -6.6493   6.1537  16.4738   O.3       1 RES1   0.0000
    22 C22     -4.3481   5.9034  15.5657   C.3       1 RES1   0.0000
    23 O23     -4.6578   4.6041  16.0605   O.3       1 RES1   0.0000
@<TRIPOS>BOND
     1     1     2    1
     2     2     3    2
     3     3     4    1
     4     4     5    2
     5     5     6    1
     6     6     7    2
     7     7     8    1
     8     8     9    2
     9     9    10    1
    10    11    10    1
    11    11    12    1
    12    12    13    1
    13    13    14    1
    14    14    15    1
    15    15    16    1
    16    16    17    1
    17    16    18    2
    18    16    19    2
    19    13    20    1
    20    20    21    1
    21    20    22    1
    22    22    23    1
    23     7     2    1
    24    22    11    1
    25    10     6    1
@<TRIPOS>SUBSTRUCTURE
     1 RES1        1 GROUP             0 ****  ****    0  
@<TRIPOS>MOLECULE
ligand_14
    23    25     1     0     0
SMALL
NO_CHARGES
****
Generated from the CSD

@<TRIPOS>ATOM
     1 N1       1.0920   8.8410  13.0810   N.pl3     1 RES1   0.0000
     2 C2      -0.1290   8.6680  13.6850   C.2       1 RES1   0.0000
     3 N3      -0.5370   9.5710  14.5560   N.2       1 RES1   0.0000
     4 C4      -1.7240   9.3850  15.1360   C.2       1 RES1   0.0000
     5 N5      -2.5880   8.3860  14.9790   N.2       1 RES1   0.0000
     6 C6      -2.1190   7.5100  14.0890   C.2       1 RES1   0.0000
     7 C7      -0.9250   7.5600  13.4110   C.2       1 RES1   0.0000
     8 N8      -0.7820   6.4440  12.5980   N.2       1 RES1   0.0000
     9 C9      -1.8660   5.7570  12.8100   C.2       1 RES1   0.0000
    10 N10     -2.7230   6.3490  13.6850   N.pl3     1 RES1   0.0000
    11 C11     -4.0420   5.8540  14.1020   C.3       1 RES1   0.0000
    12 O12     -3.8404   4.5262  14.5983   O.3       1 RES1   0.0000
    13 C13     -4.9004   3.6455  14.1322   C.3       1 RES1   0.0000
    14 C14     -4.2341   2.3294  13.7689   C.3       1 RES1   0.0000
    15 O15     -3.3478   2.4781  12.6477   O.3       1 RES1   0.0000
    16 S16     -2.5591   1.1831  12.1295   S.o2      1 RES1   0.0000
    17 N17     -1.5788   0.7904  13.2884   N.3       1 RES1   0.0000
    18 O18     -3.6453   0.2841  11.9966   O.2       1 RES1   0.0000
    19 O19     -1.8162   1.5401  10.9813   O.2       1 RES1   0.0000
    20 C20     -5.5457   4.3299  12.9573   C.3       1 RES1   0.0000
    21 O21     -6.9666   4.1439  13.0844   O.3       1 RES1   0.0000
    22 C22     -5.1008   5.7871  13.0469   C.3       1 RES1   0.0000
    23 O23     -6.2316   6.5703  13.4166   O.3       1 RES1   0.0000
@<TRIPOS>BOND
     1     1     2    1
     2     2     3    2
     3     3     4    1
     4     4     5    2
     5     5     6    1
     6     6     7    2
     7     7     8    1
     8     8     9    2
     9     9    10    1
    10    11    10    1
    11    11    12    1
    12    12    13    1
    13    13    14    1
    14    14    15    1
    15    15    16    1
    16    16    17    1
    17    16    18    2
    18    16    19    2
    19    13    20    1
    20    20    21    1
    21    20    22    1
    22    22    23    1
    23     7     2    1
    24    22    11    1
    25    10     6    1
@<TRIPOS>SUBSTRUCTURE
     1 RES1        1 GROUP             0 ****  ****    0  
@<TRIPOS>MOLECULE
ligand_15
    23    25     1     0     0
SMALL
NO_CHARGES
****
Generated from the CSD

@<TRIPOS>ATOM
     1 N1       1.0920   8.8410  13.0810   N.pl3     1 RES1   0.0000
     2 C2      -0.1290   8.6680  13.6850   C.2       1 RES1   0.0000
     3 N3      -0.5370   9.5710  14.5560   N.2       1 RES1   0.0000
     4 C4      -1.7240   9.3850  15.1360   C.2       1 RES1   0.0000
     5 N5      -2.5880   8.3860  14.9790   N.2       1 RES1   0.0000
     6 C6      -2.1190   7.5100  14.0890   C.2       1 RES1   0.0000
     7 C7      -0.9250   7.5600  13.4110   C.2       1 RES1   0.0000
     8 N8      -0.7820   6.4440  12.5980   N.2       1 RES1   0.0000
     9 C9      -1.8660   5.7570  12.8100   C.2       1 RES1   0.0000
    10 N10     -2.7230   6.3490  13.6850   N.pl3     1 RES1   0.0000
    11 C11     -4.0420   5.8540  14.1020   C.3       1 RES1   0.0000
    12 O12     -3.8404   4.5262  14.5983   O.3       1 RES1   0.0000
    13 C13     -4.9004   3.6455  14.1322   C.3       1 RES1   0.0000
    14 C14     -4.2341   2.3294  13.7689   C.3       1 RES1   0.0000
    15 O15     -3.3478   2.4781  12.6477   O.3       1 RES1   0.0000
    16 S16     -2.5591   1.1831  12.1295   S.o2      1 RES1   0.0000
    17 N17     -3.6563   0.2130  11.5696   N.3       1 RES1   0.0000
    18 O18     -1.7756   1.7775  11.1103   O.2       1 RES1   0.0000
    19 O19     -1.9123   0.5806  13.2324   O.2       1 RES1   0.0000
    20 C20     -5.5457   4.3299  12.9573   C.3       1 RES1   0.0000
    21 O21     -6.9666   4.1439  13.0844   O.3       1 RES1   0.0000
    22 C22     -5.1008   5.7871  13.0469   C.3       1 RES1   0.0000
    23 O23     -6.2316   6.5703  13.4166   O.3       1 RES1   0.0000
@<TRIPOS>BOND
     1     1     2    1
     2     2     3    2
     3     3     4    1
     4     4     5    2
     5     5     6    1
     6     6     7    2
     7     7     8    1
     8     8     9    2
     9     9    10    1
    10    11    10    1
    11    11    12    1
    12    12    13    1
    13    13    14    1
    14    14    15    1
    15    15    16    1
    16    16    17    1
    17    16    18    2
    18    16    19    2
    19    13    20    1
    20    20    21    1
    21    20    22    1
    22    22    23    1
    23     7     2    1
    24    22    11    1
    25    10     6    1
@<TRIPOS>SUBSTRUCTURE
     1 RES1        1 GROUP             0 ****  ****    0  
@<TRIPOS>MOLECULE
ligand_16
    23    25     1     0     0
SMALL
NO_CHARGES
****
Generated from the CSD

@<TRIPOS>ATOM
     1 N1       1.0553   8.8781  13.0090   N.pl3     1 RES1   0.0000
     2 C2      -0.1770   8.7188  13.5935   C.2       1 RES1   0.0000
     3 N3      -0.6252   9.6682  14.3925   N.2       1 RES1   0.0000
     4 C4      -1.8226   9.4951  14.9547   C.2       1 RES1   0.0000
     5 N5      -2.6621   8.4694  14.8436   N.2       1 RES1   0.0000
     6 C6      -2.1530   7.5470  14.0254   C.2       1 RES1   0.0000
     7 C7      -0.9433   7.5781  13.3746   C.2       1 RES1   0.0000
     8 N8      -0.7572   6.4143  12.6413   N.2       1 RES1   0.0000
     9 C9      -1.8322   5.7194  12.8722   C.2       1 RES1   0.0000
    10 N10     -2.7230   6.3490  13.6850   N.pl3     1 RES1   0.0000
    11 C11     -4.0420   5.8540  14.1020   C.3       1 RES1   0.0000
    12 O12     -5.0292   6.6193  13.4660   O.3       1 RES1   0.0000
    13 C13     -6.1702   6.7864  14.3391   C.3       1 RES1   0.0000
    14 C14     -6.4629   8.2652  14.5278   C.3       1 RES1   0.0000
    15 O15     -6.8011   8.8994  13.2835   O.3       1 RES1   0.0000
    16 S16     -6.4382  10.4495  13.1010   S.o2      1 RES1   0.0000
    17 N17     -7.2962  11.2153  14.1667   N.3       1 RES1   0.0000
    18 O18     -5.0607  10.4083  13.4273   O.2       1 RES1   0.0000
    19 O19     -6.8267  10.8512  11.8027   O.2       1 RES1   0.0000
    20 C20     -5.8238   6.0306  15.6194   C.3       1 RES1   0.0000
    21 O21     -6.3577   4.6970  15.5403   O.3       1 RES1   0.0000
    22 C22     -4.3078   5.9928  15.5955   C.3       1 RES1   0.0000
    23 O23     -3.7545   4.8661  16.2687   O.3       1 RES1   0.0000
@<TRIPOS>BOND
     1     1     2    1
     2     2     3    2
     3     3     4    1
     4     4     5    2
     5     5     6    1
     6     6     7    2
     7     7     8    1
     8     8     9    2
     9     9    10    1
    10    11    10    1
    11    11    12    1
    12    12    13    1
    13    13    14    1
    14    14    15    1
    15    15    16    1
    16    16    17    1
    17    16    18    2
    18    16    19    2
    19    13    20    1
    20    20    21    1
    21    20    22    1
    22    22    23    1
    23     7     2    1
    24    22    11    1
    25    10     6    1
@<TRIPOS>SUBSTRUCTURE
     1 RES1        1 GROUP             0 ****  ****    0  
@<TRIPOS>MOLECULE
ligand_17
    23    25     1     0     0
SMALL
NO_CHARGES
****
Generated from the CSD

@<TRIPOS>ATOM
     1 N1       1.0550   8.8784  13.0084   N.pl3     1 RES1   0.0000
     2 C2      -0.1774   8.7192  13.5927   C.2       1 RES1   0.0000
     3 N3      -0.6259   9.6690  14.3911   N.2       1 RES1   0.0000
     4 C4      -1.8234   9.4959  14.9532   C.2       1 RES1   0.0000
     5 N5      -2.6627   8.4700  14.8425   N.2       1 RES1   0.0000
     6 C6      -2.1533   7.5473  14.0249   C.2       1 RES1   0.0000
     7 C7      -0.9434   7.5783  13.3743   C.2       1 RES1   0.0000
     8 N8      -0.7570   6.4141  12.6417   N.2       1 RES1   0.0000
     9 C9      -1.8319   5.7191  12.8728   C.2       1 RES1   0.0000
    10 N10     -2.7230   6.3490  13.6850   N.pl3     1 RES1   0.0000
    11 C11     -4.0420   5.8540  14.1020   C.3       1 RES1   0.0000
    12 O12     -5.0292   6.6193  13.4660   O.3       1 RES1   0.0000
    13 C13     -6.1702   6.7864  14.3391   C.3       1 RES1   0.0000
    14 C14     -6.4629   8.2652  14.5278   C.3       1 RES1   0.0000
    15 O15     -6.8011   8.8994  13.2835   O.3       1 RES1   0.0000
    16 S16     -6.4373  10.4492  13.1006   S.o2      1 RES1   0.0000
    17 N17     -4.8710  10.5215  13.1047   N.3       1 RES1   0.0000
    18 O18     -6.9969  10.6722  11.8188   O.2       1 RES1   0.0000
    19 O19     -6.9473  11.1635  14.2085   O.2       1 RES1   0.0000
    20 C20     -5.8238   6.0306  15.6194   C.3       1 RES1   0.0000
    21 O21     -6.3577   4.6970  15.5403   O.3       1 RES1   0.0000
    22 C22     -4.3078   5.9928  15.5955   C.3       1 RES1   0.0000
    23 O23     -3.7545   4.8661  16.2687   O.3       1 RES1   0.0000
@<TRIPOS>BOND
     1     1     2    1
     2     2     3    2
     3     3     4    1
     4     4     5    2
     5     5     6    1
     6     6     7    2
     7     7     8    1
     8     8     9    2
     9     9    10    1
    10    11    10    1
    11    11    12    1
    12    12    13    1
    13    13    14    1
    14    14    15    1
    15    15    16    1
    16    16    17    1
    17    16    18    2
    18    16    19    2
    19    13    20    1
    20    20    21    1
    21    20    22    1
    22    22    23    1
    23     7     2    1
    24    22    11    1
    25    10     6    1
@<TRIPOS>SUBSTRUCTURE
     1 RES1        1 GROUP             0 ****  ****    0  
@<TRIPOS>MOLECULE
ligand_18
    23    25     1     0     0
SMALL
NO_CHARGES
****
Generated from the CSD

@<TRIPOS>ATOM
     1 N1       1.0550   8.8784  13.0085   N.pl3     1 RES1   0.0000
     2 C2      -0.1774   8.7192  13.5928   C.2       1 RES1   0.0000
     3 N3      -0.6258   9.6689  14.3912   N.2       1 RES1   0.0000
     4 C4      -1.8234   9.4959  14.9533   C.2       1 RES1   0.0000
     5 N5      -2.6626   8.4699  14.8426   N.2       1 RES1   0.0000
     6 C6      -2.1532   7.5472  14.0249   C.2       1 RES1   0.0000
     7 C7      -0.9434   7.5782  13.3743   C.2       1 RES1   0.0000
     8 N8      -0.7570   6.4141  12.6416   N.2       1 RES1   0.0000
     9 C9      -1.8320   5.7191  12.8727   C.2       1 RES1   0.0000
    10 N10     -2.7230   6.3490  13.6850   N.pl3     1 RES1   0.0000
    11 C11     -4.0420   5.8540  14.1020   C.3       1 RES1   0.0000
    12 O12     -5.0292   6.6193  13.4660   O.3       1 RES1   0.0000
    13 C13     -6.1702   6.7864  14.3391   C.3       1 RES1   0.0000
    14 C14     -6.4629   8.2652  14.5278   C.3       1 RES1   0.0000
    15 O15     -6.8011   8.8994  13.2835   O.3       1 RES1   0.0000
    16 S16     -7.8005  10.1515  13.3194   S.o2      1 RES1   0.0000
    17 N17     -9.1806   9.5802  13.7965   N.3       1 RES1   0.0000
    18 O18     -7.1573  10.9373  14.3066   O.2       1 RES1   0.0000
    19 O19     -7.9272  10.6620  12.0075   O.2       1 RES1   0.0000
    20 C20     -5.8238   6.0306  15.6194   C.3       1 RES1   0.0000
    21 O21     -6.3577   4.6970  15.5403   O.3       1 RES1   0.0000
    22 C22     -4.3078   5.9928  15.5955   C.3       1 RES1   0.0000
    23 O23     -3.7545   4.8661  16.2687   O.3       1 RES1   0.0000
@<TRIPOS>BOND
     1     1     2    1
     2     2     3    2
     3     3     4    1
     4     4     5    2
     5     5     6    1
     6     6     7    2
     7     7     8    1
     8     8     9    2
     9     9    10    1
    10    11    10    1
    11    11    12    1
    12    12    13    1
    13    13    14    1
    14    14    15    1
    15    15    16    1
    16    16    17    1
    17    16    18    2
    18    16    19    2
    19    13    20    1
    20    20    21    1
    21    20    22    1
    22    22    23    1
    23     7     2    1
    24    22    11    1
    25    10     6    1
@<TRIPOS>SUBSTRUCTURE
     1 RES1        1 GROUP             0 ****  ****    0  
@<TRIPOS>MOLECULE
ligand_19
    23    25     1     0     0
SMALL
NO_CHARGES
****
Generated from the CSD

@<TRIPOS>ATOM
     1 N1       1.0550   8.8784  13.0085   N.pl3     1 RES1   0.0000
     2 C2      -0.1774   8.7192  13.5928   C.2       1 RES1   0.0000
     3 N3      -0.6258   9.6689  14.3912   N.2       1 RES1   0.0000
     4 C4      -1.8234   9.4959  14.9533   C.2       1 RES1   0.0000
     5 N5      -2.6626   8.4699  14.8426   N.2       1 RES1   0.0000
     6 C6      -2.1532   7.5472  14.0249   C.2       1 RES1   0.0000
     7 C7      -0.9434   7.5782  13.3743   C.2       1 RES1   0.0000
     8 N8      -0.7570   6.4141  12.6416   N.2       1 RES1   0.0000
     9 C9      -1.8320   5.7191  12.8727   C.2       1 RES1   0.0000
    10 N10     -2.7230   6.3490  13.6850   N.pl3     1 RES1   0.0000
    11 C11     -4.0420   5.8540  14.1020   C.3       1 RES1   0.0000
    12 O12     -5.0292   6.6193  13.4660   O.3       1 RES1   0.0000
    13 C13     -6.1702   6.7864  14.3391   C.3       1 RES1   0.0000
    14 C14     -6.4629   8.2652  14.5278   C.3       1 RES1   0.0000
    15 O15     -6.8011   8.8994  13.2835   O.3       1 RES1   0.0000
    16 S16     -7.8005  10.1515  13.3194   S.o2      1 RES1   0.0000
    17 N17     -7.0331  11.2862  14.0822   N.3       1 RES1   0.0000
    18 O18     -7.9154  10.4003  11.9299   O.2       1 RES1   0.0000
    19 O19     -8.9530   9.7847  14.0509   O.2       1 RES1   0.0000
    20 C20     -5.8238   6.0306  15.6194   C.3       1 RES1   0.0000
    21 O21     -6.3577   4.6970  15.5403   O.3       1 RES1   0.0000
    22 C22     -4.3078   5.9928  15.5955   C.3       1 RES1   0.0000
    23 O23     -3.7545   4.8661  16.2687   O.3       1 RES1   0.0000
@<TRIPOS>BOND
     1     1     2    1
     2     2     3    2
     3     3     4    1
     4     4     5    2
     5     5     6    1
     6     6     7    2
     7     7     8    1
     8     8     9    2
     9     9    10    1
    10    11    10    1
    11    11    12    1
    12    12    13    1
    13    13    14    1
    14    14    15    1
    15    15    16    1
    16    16    17    1
    17    16    18    2
    18    16    19    2
    19    13    20    1
    20    20    21    1
    21    20    22    1
    22    22    23    1
    23     7     2    1
    24    22    11    1
    25    10     6    1
@<TRIPOS>SUBSTRUCTURE
     1 RES1        1 GROUP             0 ****  ****    0  
@<TRIPOS>MOLECULE
ligand_20
    23    25     1     0     0
SMALL
NO_CHARGES
****
Generated from the CSD

@<TRIPOS>ATOM
     1 N1       1.0518   8.8815  13.0018   N.pl3     1 RES1   0.0000
     2 C2      -0.1816   8.7234  13.5843   C.2       1 RES1   0.0000
     3 N3      -0.6337   9.6771  14.3760   N.2       1 RES1   0.0000
     4 C4      -1.8322   9.5051  14.9364   C.2       1 RES1   0.0000
     5 N5      -2.6692   8.4770  14.8300   N.2       1 RES1   0.0000
     6 C6      -2.1563   7.5503  14.0190   C.2       1 RES1   0.0000
     7 C7      -0.9451   7.5797  13.3710   C.2       1 RES1   0.0000
     8 N8      -0.7548   6.4116  12.6457   N.2       1 RES1   0.0000
     9 C9      -1.8289   5.7159  12.8785   C.2       1 RES1   0.0000
    10 N10     -2.7230   6.3490  13.6850   N.pl3     1 RES1   0.0000
    11 C11     -4.0420   5.8540  14.1020   C.3       1 RES1   0.0000
    12 O12     -5.0292   6.6193  13.4660   O.3       1 RES1   0.0000
    13 C13     -6.1702   6.7864  14.3391   C.3       1 RES1   0.0000
    14 C14     -6.4629   8.2652  14.5278   C.3       1 RES1   0.0000
    15 O15     -5.4426   8.9101  15.3075   O.3       1 RES1   0.0000
    16 S16     -5.8607  10.1661  16.2104   S.o2      1 RES1   0.0000
    17 N17     -4.5527  10.6107  16.9520   N.3       1 RES1   0.0000
    18 O18     -6.2513  11.0686  15.1912   O.2       1 RES1   0.0000
    19 O19     -6.8198   9.7389  17.1567   O.2       1 RES1   0.0000
    20 C20     -5.8238   6.0306  15.6194   C.3       1 RES1   0.0000
    21 O21     -6.3577   4.6970  15.5403   O.3       1 RES1   0.0000
    22 C22     -4.3078   5.9928  15.5955   C.3       1 RES1   0.0000
    23 O23     -3.7545   4.8661  16.2687   O.3       1 RES1   0.0000
@<TRIPOS>BOND
     1     1     2    1
     2     2     3    2
     3     3     4    1
     4     4     5    2
     5     5     6    1
     6     6     7    2
     7     7     8    1
     8     8     9    2
     9     9    10    1
    10    11    10    1
    11    11    12    1
    12    12    13    1
    13    13    14    1
    14    14    15    1
    15    15    16    1
    16    16    17    1
    17    16    18    2
    18    16    19    2
    19    13    20    1
    20    20    21    1
    21    20    22    1
    22    22    23    1
    23     7     2    1
    24    22    11    1
    25    10     6    1
@<TRIPOS>SUBSTRUCTURE
     1 RES1        1 GROUP             0 ****  ****    0  
@<TRIPOS>MOLECULE
ligand_21
    23    25     1     0     0
SMALL
NO_CHARGES
****
Generated from the CSD

@<TRIPOS>ATOM
     1 N1       1.0964   8.8363  13.0892   N.pl3     1 RES1   0.0000
     2 C2      -0.1233   8.6616  13.6954   C.2       1 RES1   0.0000
     3 N3      -0.5265   9.5588  14.5746   N.2       1 RES1   0.0000
     4 C4      -1.7123   9.3712  15.1566   C.2       1 RES1   0.0000
     5 N5      -2.5792   8.3755  14.9944   N.2       1 RES1   0.0000
     6 C6      -2.1150   7.5053  14.0962   C.2       1 RES1   0.0000
     7 C7      -0.9228   7.5577  13.4152   C.2       1 RES1   0.0000
     8 N8      -0.7849   6.4477  12.5931   N.2       1 RES1   0.0000
     9 C9      -1.8700   5.7617  12.8029   C.2       1 RES1   0.0000
    10 N10     -2.7230   6.3490  13.6850   N.pl3     1 RES1   0.0000
    11 C11     -4.0420   5.8540  14.1020   C.3       1 RES1   0.0000
    12 O12     -5.0292   6.6193  13.4660   O.3       1 RES1   0.0000
    13 C13     -6.1702   6.7864  14.3391   C.3       1 RES1   0.0000
    14 C14     -6.4629   8.2652  14.5278   C.3       1 RES1   0.0000
    15 O15     -5.4620   8.9023  15.3383   O.3       1 RES1   0.0000
    16 S16     -5.2001  10.4688  15.1253   S.o2      1 RES1   0.0000
    17 N17     -4.1565  10.8782  16.2215   N.3       1 RES1   0.0000
    18 O18     -4.6483  10.4395  13.8213   O.2       1 RES1   0.0000
    19 O19     -6.4132  11.1602  15.3445   O.2       1 RES1   0.0000
    20 C20     -5.8238   6.0306  15.6194   C.3       1 RES1   0.0000
    21 O21     -6.3577   4.6970  15.5403   O.3       1 RES1   0.0000
    22 C22     -4.3078   5.9928  15.5955   C.3       1 RES1   0.0000
    23 O23     -3.7545   4.8661  16.2687   O.3       1 RES1   0.0000
@<TRIPOS>BOND
     1     1     2    1
     2     2     3    2
     3     3     4    1
     4     4     5    2
     5     5     6    1
     6     6     7    2
     7     7     8    1
     8     8     9    2
     9     9    10    1
    10    11    10    1
    11    11    12    1
    12    12    13    1
    13    13    14    1
    14    14    15    1
    15    15    16    1
    16    16    17    1
    17    16    18    2
    18    16    19    2
    19    13    20    1
    20    20    21    1
    21    20    22    1
    22    22    23    1
    23     7     2    1
    24    22    11    1
    25    10     6    1
@<TRIPOS>SUBSTRUCTURE
     1 RES1        1 GROUP             0 ****  ****    0  
@<TRIPOS>MOLECULE
ligand_22
    23    25     1     0     0
SMALL
NO_CHARGES
****
Generated from the CSD

@<TRIPOS>ATOM
     1 N1       1.0920   8.8410  13.0810   N.pl3     1 RES1   0.0000
     2 C2      -0.1290   8.6680  13.6850   C.2       1 RES1   0.0000
     3 N3      -0.5370   9.5710  14.5560   N.2       1 RES1   0.0000
     4 C4      -1.7240   9.3850  15.1360   C.2       1 RES1   0.0000
     5 N5      -2.5880   8.3860  14.9790   N.2       1 RES1   0.0000
     6 C6      -2.1190   7.5100  14.0890   C.2       1 RES1   0.0000
     7 C7      -0.9250   7.5600  13.4110   C.2       1 RES1   0.0000
     8 N8      -0.7820   6.4440  12.5980   N.2       1 RES1   0.0000
     9 C9      -1.8660   5.7570  12.8100   C.2       1 RES1   0.0000
    10 N10     -2.7230   6.3490  13.6850   N.pl3     1 RES1   0.0000
    11 C11     -4.0420   5.8540  14.1020   C.3       1 RES1   0.0000
    12 O12     -4.1264   4.4956  13.6574   O.3       1 RES1   0.0000
    13 C13     -5.4438   4.2258  13.1024   C.3       1 RES1   0.0000
    14 C14     -5.2210   3.3618  11.8728   C.3       1 RES1   0.0000
    15 O15     -4.6068   2.1080  12.2128   O.3       1 RES1   0.0000
    16 S16     -4.2991   1.0708  11.0307   S.o2      1 RES1   0.0000
    17 N17     -5.6983   0.6262  10.4804   N.3       1 RES1   0.0000
    18 O18     -3.6031   1.9267  10.1425   O.2       1 RES1   0.0000
    19 O19     -3.6284  -0.0466  11.5777   O.2       1 RES1   0.0000
    20 C20     -6.0617   5.5615  12.7869   C.3       1 RES1   0.0000
    21 O21     -7.4413   5.4978  13.1902   O.3       1 RES1   0.0000
    22 C22     -5.2347   6.5809  13.5656   C.3       1 RES1   0.0000
    23 O23     -6.0404   7.0815  14.6281   O.3       1 RES1   0.0000
@<TRIPOS>BOND
     1     1     2    1
     2     2     3    2
     3     3     4    1
     4     4     5    2
     5     5     6    1
     6     6     7    2
     7     7     8    1
     8     8     9    2
     9     9    10    1
    10    11    10    1
    11    11    12    1
    12    12    13    1
    13    13    14    1
    14    14    15    1
    15    15    16    1
    16    16    17    1
    17    16    18    2
    18    16    19    2
    19    13    20    1
    20    20    21    1
    21    20    22    1
    22    22    23    1
    23     7     2    1
    24    22    11    1
    25    10     6    1
@<TRIPOS>SUBSTRUCTURE
     1 RES1        1 GROUP             0 ****  ****    0  
@<TRIPOS>MOLECULE
ligand_23
    23    25     1     0     0
SMALL
NO_CHARGES
****
Generated from the CSD

@<TRIPOS>ATOM
     1 N1       1.0920   8.8410  13.0810   N.pl3     1 RES1   0.0000
     2 C2      -0.1290   8.6680  13.6850   C.2       1 RES1   0.0000
     3 N3      -0.5370   9.5710  14.5560   N.2       1 RES1   0.0000
     4 C4      -1.7240   9.3850  15.1360   C.2       1 RES1   0.0000
     5 N5      -2.5880   8.3860  14.9790   N.2       1 RES1   0.0000
     6 C6      -2.1190   7.5100  14.0890   C.2       1 RES1   0.0000
     7 C7      -0.9250   7.5600  13.4110   C.2       1 RES1   0.0000
     8 N8      -0.7820   6.4440  12.5980   N.2       1 RES1   0.0000
     9 C9      -1.8660   5.7570  12.8100   C.2       1 RES1   0.0000
    10 N10     -2.7230   6.3490  13.6850   N.pl3     1 RES1   0.0000
    11 C11     -4.0420   5.8540  14.1020   C.3       1 RES1   0.0000
    12 O12     -4.1264   4.4956  13.6574   O.3       1 RES1   0.0000
    13 C13     -5.4438   4.2258  13.1024   C.3       1 RES1   0.0000
    14 C14     -5.2210   3.3618  11.8728   C.3       1 RES1   0.0000
    15 O15     -4.6068   2.1080  12.2128   O.3       1 RES1   0.0000
    16 S16     -4.2991   1.0708  11.0307   S.o2      1 RES1   0.0000
    17 N17     -3.2056   1.7547  10.1391   N.3       1 RES1   0.0000
    18 O18     -3.7931  -0.0105  11.7927   O.2       1 RES1   0.0000
    19 O19     -5.4798   0.8882  10.2756   O.2       1 RES1   0.0000
    20 C20     -6.0617   5.5615  12.7869   C.3       1 RES1   0.0000
    21 O21     -7.4413   5.4978  13.1902   O.3       1 RES1   0.0000
    22 C22     -5.2347   6.5809  13.5656   C.3       1 RES1   0.0000
    23 O23     -6.0404   7.0815  14.6281   O.3       1 RES1   0.0000
@<TRIPOS>BOND
     1     1     2    1
     2     2     3    2
     3     3     4    1
     4     4     5    2
     5     5     6    1
     6     6     7    2
     7     7     8    1
     8     8     9    2
     9     9    10    1
    10    11    10    1
    11    11    12    1
    12    12    13    1
    13    13    14    1
    14    14    15    1
    15    15    16    1
    16    16    17    1
    17    16    18    2
    18    16    19    2
    19    13    20    1
    20    20    21    1
    21    20    22    1
    22    22    23    1
    23     7     2    1
    24    22    11    1
    25    10     6    1
@<TRIPOS>SUBSTRUCTURE
     1 RES1        1 GROUP             0 ****  ****    0  
@<TRIPOS>MOLECULE
ligand_24
    23    25     1     0     0
SMALL
NO_CHARGES
****
Generated from the CSD

@<TRIPOS>ATOM
     1 N1       1.0920   8.8410  13.0810   N.pl3     1 RES1   0.0000
     2 C2      -0.1290   8.6680  13.6850   C.2       1 RES1   0.0000
     3 N3      -0.5370   9.5710  14.5560   N.2       1 RES1   0.0000
     4 C4      -1.7240   9.3850  15.1360   C.2       1 RES1   0.0000
     5 N5      -2.5880   8.3860  14.9790   N.2       1 RES1   0.0000
     6 C6      -2.1190   7.5100  14.0890   C.2       1 RES1   0.0000
     7 C7      -0.9250   7.5600  13.4110   C.2       1 RES1   0.0000
     8 N8      -0.7820   6.4440  12.5980   N.2       1 RES1   0.0000
     9 C9      -1.8660   5.7570  12.8100   C.2       1 RES1   0.0000
    10 N10     -2.7230   6.3490  13.6850   N.pl3     1 RES1   0.0000
    11 C11     -4.0420   5.8540  14.1020   C.3       1 RES1   0.0000
    12 O12     -4.1264   4.4956  13.6574   O.3       1 RES1   0.0000
    13 C13     -5.4438   4.2258  13.1024   C.3       1 RES1   0.0000
    14 C14     -5.2210   3.3618  11.8728   C.3       1 RES1   0.0000
    15 O15     -4.5184   4.0782  10.8443   O.3       1 RES1   0.0000
    16 S16     -4.1985   3.3136   9.4729   S.o2      1 RES1   0.0000
    17 N17     -3.4379   4.3504   8.5756   N.3       1 RES1   0.0000
    18 O18     -3.3559   2.2880   9.9667   O.2       1 RES1   0.0000
    19 O19     -5.4223   2.9634   8.8585   O.2       1 RES1   0.0000
    20 C20     -6.0617   5.5615  12.7869   C.3       1 RES1   0.0000
    21 O21     -7.4413   5.4978  13.1902   O.3       1 RES1   0.0000
    22 C22     -5.2347   6.5809  13.5656   C.3       1 RES1   0.0000
    23 O23     -6.0404   7.0815  14.6281   O.3       1 RES1   0.0000
@<TRIPOS>BOND
     1     1     2    1
     2     2     3    2
     3     3     4    1
     4     4     5    2
     5     5     6    1
     6     6     7    2
     7     7     8    1
     8     8     9    2
     9     9    10    1
    10    11    10    1
    11    11    12    1
    12    12    13    1
    13    13    14    1
    14    14    15    1
    15    15    16    1
    16    16    17    1
    17    16    18    2
    18    16    19    2
    19    13    20    1
    20    20    21    1
    21    20    22    1
    22    22    23    1
    23     7     2    1
    24    22    11    1
    25    10     6    1
@<TRIPOS>SUBSTRUCTURE
     1 RES1        1 GROUP             0 ****  ****    0  
@<TRIPOS>MOLECULE
ligand_25
    23    25     1     0     0
SMALL
NO_CHARGES
****
Generated from the CSD

@<TRIPOS>ATOM
     1 N1       1.0920   8.8410  13.0810   N.pl3     1 RES1   0.0000
     2 C2      -0.1290   8.6680  13.6850   C.2       1 RES1   0.0000
     3 N3      -0.5370   9.5710  14.5560   N.2       1 RES1   0.0000
     4 C4      -1.7240   9.3850  15.1360   C.2       1 RES1   0.0000
     5 N5      -2.5880   8.3860  14.9790   N.2       1 RES1   0.0000
     6 C6      -2.1190   7.5100  14.0890   C.2       1 RES1   0.0000
     7 C7      -0.9250   7.5600  13.4110   C.2       1 RES1   0.0000
     8 N8      -0.7820   6.4440  12.5980   N.2       1 RES1   0.0000
     9 C9      -1.8660   5.7570  12.8100   C.2       1 RES1   0.0000
    10 N10     -2.7230   6.3490  13.6850   N.pl3     1 RES1   0.0000
    11 C11     -4.0420   5.8540  14.1020   C.3       1 RES1   0.0000
    12 O12     -4.1720   4.5215  13.6871   O.3       1 RES1   0.0000
    13 C13     -5.5418   4.2472  13.3124   C.3       1 RES1   0.0000
    14 C14     -5.5912   3.7192  11.8887   C.3       1 RES1   0.0000
    15 O15     -5.1811   4.7181  10.9406   O.3       1 RES1   0.0000
    16 S16     -5.8138   4.6699   9.4692   S.o2      1 RES1   0.0000
    17 N17     -5.3237   3.3201   8.8398   N.3       1 RES1   0.0000
    18 O18     -7.1896   4.6549   9.8054   O.2       1 RES1   0.0000
    19 O19     -5.2988   5.7547   8.7238   O.2       1 RES1   0.0000
    20 C20     -6.3010   5.5516  13.5415   C.3       1 RES1   0.0000
    21 O21     -6.8880   5.5327  14.8549   O.3       1 RES1   0.0000
    22 C22     -5.2086   6.6012  13.4686   C.3       1 RES1   0.0000
    23 O23     -5.4838   7.7659  14.2410   O.3       1 RES1   0.0000
@<TRIPOS>BOND
     1     1     2    1
     2     2     3    2
     3     3     4    1
     4     4     5    2
     5     5     6    1
     6     6     7    2
     7     7     8    1
     8     8     9    2
     9     9    10    1
    10    11    10    1
    11    11    12    1
    12    12    13    1
    13    13    14    1
    14    14    15    1
    15    15    16    1
    16    16    17    1
    17    16    18    2
    18    16    19    2
    19    13    20    1
    20    20    21    1
    21    20    22    1
    22    22    23    1
    23     7     2    1
    24    22    11    1
    25    10     6    1
@<TRIPOS>SUBSTRUCTURE
     1 RES1        1 GROUP             0 ****  ****    0  
@<TRIPOS>MOLECULE
ligand_26
    23    25     1     0     0
SMALL
NO_CHARGES
****
Generated from the CSD

@<TRIPOS>ATOM
     1 N1       1.0920   8.8410  13.0810   N.pl3     1 RES1   0.0000
     2 C2      -0.1290   8.6680  13.6850   C.2       1 RES1   0.0000
     3 N3      -0.5370   9.5710  14.5560   N.2       1 RES1   0.0000
     4 C4      -1.7240   9.3850  15.1360   C.2       1 RES1   0.0000
     5 N5      -2.5880   8.3860  14.9790   N.2       1 RES1   0.0000
     6 C6      -2.1190   7.5100  14.0890   C.2       1 RES1   0.0000
     7 C7      -0.9250   7.5600  13.4110   C.2       1 RES1   0.0000
     8 N8      -0.7820   6.4440  12.5980   N.2       1 RES1   0.0000
     9 C9      -1.8660   5.7570  12.8100   C.2       1 RES1   0.0000
    10 N10     -2.7230   6.3490  13.6850   N.pl3     1 RES1   0.0000
    11 C11     -4.0420   5.8540  14.1020   C.3       1 RES1   0.0000
    12 O12     -4.1720   4.5215  13.6871   O.3       1 RES1   0.0000
    13 C13     -5.5418   4.2472  13.3124   C.3       1 RES1   0.0000
    14 C14     -5.5912   3.7192  11.8887   C.3       1 RES1   0.0000
    15 O15     -5.1811   4.7181  10.9406   O.3       1 RES1   0.0000
    16 S16     -5.8145   4.6705   9.4695   S.o2      1 RES1   0.0000
    17 N17     -7.3402   4.9817   9.6534   N.3       1 RES1   0.0000
    18 O18     -5.1014   5.7383   8.8720   O.2       1 RES1   0.0000
    19 O19     -5.6564   3.3636   8.9551   O.2       1 RES1   0.0000
    20 C20     -6.3010   5.5516  13.5415   C.3       1 RES1   0.0000
    21 O21     -6.8880   5.5327  14.8549   O.3       1 RES1   0.0000
    22 C22     -5.2086   6.6012  13.4686   C.3       1 RES1   0.0000
    23 O23     -5.4838   7.7659  14.2410   O.3       1 RES1   0.0000
@<TRIPOS>BOND
     1     1     2    1
     2     2     3    2
     3     3     4    1
     4     4     5    2
     5     5     6    1
     6     6     7    2
     7     7     8    1
     8     8     9    2
     9     9    10    1
    10    11    10    1
    11    11    12    1
    12    12    13    1
    13    13    14    1
    14    14    15    1
    15    15    16    1
    16    16    17    1
    17    16    18    2
    18    16    19    2
    19    13    20    1
    20    20    21    1
    21    20    22    1
    22    22    23    1
    23     7     2    1
    24    22    11    1
    25    10     6    1
@<TRIPOS>SUBSTRUCTURE
     1 RES1        1 GROUP             0 ****  ****    0  
@<TRIPOS>MOLECULE
ligand_27
    23    25     1     0     0
SMALL
NO_CHARGES
****
Generated from the CSD

@<TRIPOS>ATOM
     1 N1       1.0919   8.8411  13.0808   N.pl3     1 RES1   0.0000
     2 C2      -0.1292   8.6682  13.6847   C.2       1 RES1   0.0000
     3 N3      -0.5373   9.5714  14.5555   N.2       1 RES1   0.0000
     4 C4      -1.7243   9.3854  15.1354   C.2       1 RES1   0.0000
     5 N5      -2.5883   8.3863  14.9786   N.2       1 RES1   0.0000
     6 C6      -2.1191   7.5101  14.0888   C.2       1 RES1   0.0000
     7 C7      -0.9251   7.5601  13.4109   C.2       1 RES1   0.0000
     8 N8      -0.7819   6.4439  12.5981   N.2       1 RES1   0.0000
     9 C9      -1.8659   5.7569  12.8102   C.2       1 RES1   0.0000
    10 N10     -2.7230   6.3490  13.6850   N.pl3     1 RES1   0.0000
    11 C11     -4.0420   5.8540  14.1020   C.3       1 RES1   0.0000
    12 O12     -4.1720   4.5215  13.6871   O.3       1 RES1   0.0000
    13 C13     -5.5418   4.2472  13.3124   C.3       1 RES1   0.0000
    14 C14     -5.5912   3.7192  11.8887   C.3       1 RES1   0.0000
    15 O15     -5.1808   4.7180  10.9407   O.3       1 RES1   0.0000
    16 S16     -4.4777   4.2315   9.5854   S.o2      1 RES1   0.0000
    17 N17     -3.1132   3.5929  10.0200   N.3       1 RES1   0.0000
    18 O18     -5.4267   3.2700   9.1604   O.2       1 RES1   0.0000
    19 O19     -4.2340   5.3636   8.7751   O.2       1 RES1   0.0000
    20 C20     -6.3010   5.5516  13.5415   C.3       1 RES1   0.0000
    21 O21     -6.8880   5.5327  14.8549   O.3       1 RES1   0.0000
    22 C22     -5.2086   6.6012  13.4686   C.3       1 RES1   0.0000
    23 O23     -5.4838   7.7659  14.2410   O.3       1 RES1   0.0000
@<TRIPOS>BOND
     1     1     2    1
     2     2     3    2
     3     3     4    1
     4     4     5    2
     5     5     6    1
     6     6     7    2
     7     7     8    1
     8     8     9    2
     9     9    10    1
    10    11    10    1
    11    11    12    1
    12    12    13    1
    13    13    14    1
    14    14    15    1
    15    15    16    1
    16    16    17    1
    17    16    18    2
    18    16    19    2
    19    13    20    1
    20    20    21    1
    21    20    22    1
    22    22    23    1
    23     7     2    1
    24    22    11    1
    25    10     6    1
@<TRIPOS>SUBSTRUCTURE
     1 RES1        1 GROUP             0 ****  ****    0  
@<TRIPOS>MOLECULE
ligand_28
    23    25     1     0     0
SMALL
NO_CHARGES
****
Generated from the CSD

@<TRIPOS>ATOM
     1 N1       1.0920   8.8410  13.0810   N.pl3     1 RES1   0.0000
     2 C2      -0.1290   8.6680  13.6850   C.2       1 RES1   0.0000
     3 N3      -0.5370   9.5710  14.5560   N.2       1 RES1   0.0000
     4 C4      -1.7240   9.3850  15.1360   C.2       1 RES1   0.0000
     5 N5      -2.5880   8.3860  14.9790   N.2       1 RES1   0.0000
     6 C6      -2.1190   7.5100  14.0890   C.2       1 RES1   0.0000
     7 C7      -0.9250   7.5600  13.4110   C.2       1 RES1   0.0000
     8 N8      -0.7820   6.4440  12.5980   N.2       1 RES1   0.0000
     9 C9      -1.8660   5.7570  12.8100   C.2       1 RES1   0.0000
    10 N10     -2.7230   6.3490  13.6850   N.pl3     1 RES1   0.0000
    11 C11     -4.0420   5.8540  14.1020   C.3       1 RES1   0.0000
    12 O12     -4.1720   4.5215  13.6871   O.3       1 RES1   0.0000
    13 C13     -5.5418   4.2472  13.3124   C.3       1 RES1   0.0000
    14 C14     -5.5912   3.7192  11.8887   C.3       1 RES1   0.0000
    15 O15     -5.1811   4.7181  10.9406   O.3       1 RES1   0.0000
    16 S16     -4.4770   4.2319   9.5858   S.o2      1 RES1   0.0000
    17 N17     -5.5769   3.4429   8.7946   N.3       1 RES1   0.0000
    18 O18     -4.1796   5.4914   9.0105   O.2       1 RES1   0.0000
    19 O19     -3.4162   3.3595   9.9197   O.2       1 RES1   0.0000
    20 C20     -6.3010   5.5516  13.5415   C.3       1 RES1   0.0000
    21 O21     -6.8880   5.5327  14.8549   O.3       1 RES1   0.0000
    22 C22     -5.2086   6.6012  13.4686   C.3       1 RES1   0.0000
    23 O23     -5.4838   7.7659  14.2410   O.3       1 RES1   0.0000
@<TRIPOS>BOND
     1     1     2    1
     2     2     3    2
     3     3     4    1
     4     4     5    2
     5     5     6    1
     6     6     7    2
     7     7     8    1
     8     8     9    2
     9     9    10    1
    10    11    10    1
    11    11    12    1
    12    12    13    1
    13    13    14    1
    14    14    15    1
    15    15    16    1
    16    16    17    1
    17    16    18    2
    18    16    19    2
    19    13    20    1
    20    20    21    1
    21    20    22    1
    22    22    23    1
    23     7     2    1
    24    22    11    1
    25    10     6    1
@<TRIPOS>SUBSTRUCTURE
     1 RES1        1 GROUP             0 ****  ****    0  
@<TRIPOS>MOLECULE
ligand_29
    23    25     1     0     0
SMALL
NO_CHARGES
****
Generated from the CSD

@<TRIPOS>ATOM
     1 N1       1.0920   8.8410  13.0810   N.pl3     1 RES1   0.0000
     2 C2      -0.1290   8.6680  13.6850   C.2       1 RES1   0.0000
     3 N3      -0.5370   9.5710  14.5560   N.2       1 RES1   0.0000
     4 C4      -1.7240   9.3850  15.1360   C.2       1 RES1   0.0000
     5 N5      -2.5880   8.3860  14.9790   N.2       1 RES1   0.0000
     6 C6      -2.1190   7.5100  14.0890   C.2       1 RES1   0.0000
     7 C7      -0.9250   7.5600  13.4110   C.2       1 RES1   0.0000
     8 N8      -0.7820   6.4440  12.5980   N.2       1 RES1   0.0000
     9 C9      -1.8660   5.7570  12.8100   C.2       1 RES1   0.0000
    10 N10     -2.7230   6.3490  13.6850   N.pl3     1 RES1   0.0000
    11 C11     -4.0420   5.8540  14.1020   C.3       1 RES1   0.0000
    12 O12     -5.0123   6.6636  13.4289   O.3       1 RES1   0.0000
    13 C13     -6.0988   7.0079  14.3330   C.3       1 RES1   0.0000
    14 C14     -6.4455   8.4601  14.0515   C.3       1 RES1   0.0000
    15 O15     -7.6043   8.8790  14.7907   O.3       1 RES1   0.0000
    16 S16     -8.1111  10.3885  14.6116   S.o2      1 RES1   0.0000
    17 N17     -9.3706  10.5264  15.5352   N.3       1 RES1   0.0000
    18 O18     -6.9801  11.0773  15.1138   O.2       1 RES1   0.0000
    19 O19     -8.4898  10.5775  13.2630   O.2       1 RES1   0.0000
    20 C20     -5.5879   6.7782  15.7300   C.3       1 RES1   0.0000
    21 O21     -6.6493   6.1537  16.4738   O.3       1 RES1   0.0000
    22 C22     -4.3481   5.9034  15.5657   C.3       1 RES1   0.0000
    23 O23     -4.6578   4.6041  16.0605   O.3       1 RES1   0.0000
@<TRIPOS>BOND
     1     1     2    1
     2     2     3    2
     3     3     4    1
     4     4     5    2
     5     5     6    1
     6     6     7    2
     7     7     8    1
     8     8     9    2
     9     9    10    1
    10    11    10    1
    11    11    12    1
    12    12    13    1
    13    13    14    1
    14    14    15    1
    15    15    16    1
    16    16    17    1
    17    16    18    2
    18    16    19    2
    19    13    20    1
    20    20    21    1
    21    20    22    1
    22    22    23    1
    23     7     2    1
    24    22    11    1
    25    10     6    1
@<TRIPOS>SUBSTRUCTURE
     1 RES1        1 GROUP             0 ****  ****    0  
@<TRIPOS>MOLECULE
ligand_30
    23    25     1     0     0
SMALL
NO_CHARGES
****
Generated from the CSD

@<TRIPOS>ATOM
     1 N1       1.0550   8.8784  13.0085   N.pl3     1 RES1   0.0000
     2 C2      -0.1774   8.7192  13.5928   C.2       1 RES1   0.0000
     3 N3      -0.6258   9.6689  14.3912   N.2       1 RES1   0.0000
     4 C4      -1.8234   9.4959  14.9533   C.2       1 RES1   0.0000
     5 N5      -2.6626   8.4699  14.8426   N.2       1 RES1   0.0000
     6 C6      -2.1532   7.5472  14.0249   C.2       1 RES1   0.0000
     7 C7      -0.9434   7.5782  13.3743   C.2       1 RES1   0.0000
     8 N8      -0.7570   6.4141  12.6416   N.2       1 RES1   0.0000
     9 C9      -1.8320   5.7191  12.8727   C.2       1 RES1   0.0000
    10 N10     -2.7230   6.3490  13.6850   N.pl3     1 RES1   0.0000
    11 C11     -4.0420   5.8540  14.1020   C.3       1 RES1   0.0000
    12 O12     -5.0292   6.6193  13.4660   O.3       1 RES1   0.0000
    13 C13     -6.1702   6.7864  14.3391   C.3       1 RES1   0.0000
    14 C14     -6.4629   8.2652  14.5278   C.3       1 RES1   0.0000
    15 O15     -7.6719   8.4729  15.2760   O.3       1 RES1   0.0000
    16 S16     -7.7843   9.7894  16.1825   S.o2      1 RES1   0.0000
    17 N17     -6.7098   9.6207  17.3119   N.3       1 RES1   0.0000
    18 O18     -7.4270  10.7671  15.2222   O.2       1 RES1   0.0000
    19 O19     -9.0745   9.8288  16.7583   O.2       1 RES1   0.0000
    20 C20     -5.8238   6.0306  15.6194   C.3       1 RES1   0.0000
    21 O21     -6.3577   4.6970  15.5403   O.3       1 RES1   0.0000
    22 C22     -4.3078   5.9928  15.5955   C.3       1 RES1   0.0000
    23 O23     -3.7545   4.8661  16.2687   O.3       1 RES1   0.0000
@<TRIPOS>BOND
     1     1     2    1
     2     2     3    2
     3     3     4    1
     4     4     5    2
     5     5     6    1
     6     6     7    2
     7     7     8    1
     8     8     9    2
     9     9    10    1
    10    11    10    1
    11    11    12    1
    12    12    13    1
    13    13    14    1
    14    14    15    1
    15    15    16    1
    16    16    17    1
    17    16    18    2
    18    16    19    2
    19    13    20    1
    20    20    21    1
    21    20    22    1
    22    22    23    1
    23     7     2    1
    24    22    11    1
    25    10     6    1
@<TRIPOS>SUBSTRUCTURE
     1 RES1        1 GROUP             0 ****  ****    0  
@<TRIPOS>MOLECULE
ligand_31
    23    25     1     0     0
SMALL
NO_CHARGES
****
Generated from the CSD

@<TRIPOS>ATOM
     1 N1       1.0550   8.8784  13.0085   N.pl3     1 RES1   0.0000
     2 C2      -0.1774   8.7192  13.5928   C.2       1 RES1   0.0000
     3 N3      -0.6258   9.6689  14.3912   N.2       1 RES1   0.0000
     4 C4      -1.8234   9.4959  14.9533   C.2       1 RES1   0.0000
     5 N5      -2.6626   8.4699  14.8426   N.2       1 RES1   0.0000
     6 C6      -2.1532   7.5472  14.0249   C.2       1 RES1   0.0000
     7 C7      -0.9434   7.5782  13.3743   C.2       1 RES1   0.0000
     8 N8      -0.7570   6.4141  12.6416   N.2       1 RES1   0.0000
     9 C9      -1.8320   5.7191  12.8727   C.2       1 RES1   0.0000
    10 N10     -2.7230   6.3490  13.6850   N.pl3     1 RES1   0.0000
    11 C11     -4.0420   5.8540  14.1020   C.3       1 RES1   0.0000
    12 O12     -5.0292   6.6193  13.4660   O.3       1 RES1   0.0000
    13 C13     -6.1702   6.7864  14.3391   C.3       1 RES1   0.0000
    14 C14     -6.4629   8.2652  14.5278   C.3       1 RES1   0.0000
    15 O15     -7.6719   8.4729  15.2760   O.3       1 RES1   0.0000
    16 S16     -7.7843   9.7894  16.1825   S.o2      1 RES1   0.0000
    17 N17     -7.7925  10.9957  15.1809   N.3       1 RES1   0.0000
    18 O18     -9.0483   9.5575  16.7779   O.2       1 RES1   0.0000
    19 O19     -6.6384   9.8657  17.0065   O.2       1 RES1   0.0000
    20 C20     -5.8238   6.0306  15.6194   C.3       1 RES1   0.0000
    21 O21     -6.3577   4.6970  15.5403   O.3       1 RES1   0.0000
    22 C22     -4.3078   5.9928  15.5955   C.3       1 RES1   0.0000
    23 O23     -3.7545   4.8661  16.2687   O.3       1 RES1   0.0000
@<TRIPOS>BOND
     1     1     2    1
     2     2     3    2
     3     3     4    1
     4     4     5    2
     5     5     6    1
     6     6     7    2
     7     7     8    1
     8     8     9    2
     9     9    10    1
    10    11    10    1
    11    11    12    1
    12    12    13    1
    13    13    14    1
    14    14    15    1
    15    15    16    1
    16    16    17    1
    17    16    18    2
    18    16    19    2
    19    13    20    1
    20    20    21    1
    21    20    22    1
    22    22    23    1
    23     7     2    1
    24    22    11    1
    25    10     6    1
@<TRIPOS>SUBSTRUCTURE
     1 RES1        1 GROUP             0 ****  ****    0  
@<TRIPOS>MOLECULE
ligand_32
    23    25     1     0     0
SMALL
NO_CHARGES
****
Generated from the CSD

@<TRIPOS>ATOM
     1 N1       1.0920   8.8410  13.0810   N.pl3     1 RES1   0.0000
     2 C2      -0.1290   8.6680  13.6850   C.2       1 RES1   0.0000
     3 N3      -0.5370   9.5710  14.5560   N.2       1 RES1   0.0000
     4 C4      -1.7240   9.3850  15.1360   C.2       1 RES1   0.0000
     5 N5      -2.5880   8.3860  14.9790   N.2       1 RES1   0.0000
     6 C6      -2.1190   7.5100  14.0890   C.2       1 RES1   0.0000
     7 C7      -0.9250   7.5600  13.4110   C.2       1 RES1   0.0000
     8 N8      -0.7820   6.4440  12.5980   N.2       1 RES1   0.0000
     9 C9      -1.8660   5.7570  12.8100   C.2       1 RES1   0.0000
    10 N10     -2.7230   6.3490  13.6850   N.pl3     1 RES1   0.0000
    11 C11     -4.0420   5.8540  14.1020   C.3       1 RES1   0.0000
    12 O12     -3.8404   4.5262  14.5983   O.3       1 RES1   0.0000
    13 C13     -4.9004   3.6455  14.1322   C.3       1 RES1   0.0000
    14 C14     -4.2341   2.3294  13.7689   C.3       1 RES1   0.0000
    15 O15     -3.6087   1.7214  14.9108   O.3       1 RES1   0.0000
    16 S16     -2.8561   0.3217  14.7057   S.o2      1 RES1   0.0000
    17 N17     -3.9756  -0.7132  14.3395   N.3       1 RES1   0.0000
    18 O18     -2.0325   0.6571  13.6034   O.2       1 RES1   0.0000
    19 O19     -2.2525  -0.0467  15.9295   O.2       1 RES1   0.0000
    20 C20     -5.5457   4.3299  12.9573   C.3       1 RES1   0.0000
    21 O21     -6.9666   4.1439  13.0844   O.3       1 RES1   0.0000
    22 C22     -5.1008   5.7871  13.0469   C.3       1 RES1   0.0000
    23 O23     -6.2316   6.5703  13.4166   O.3       1 RES1   0.0000
@<TRIPOS>BOND
     1     1     2    1
     2     2     3    2
     3     3     4    1
     4     4     5    2
     5     5     6    1
     6     6     7    2
     7     7     8    1
     8     8     9    2
     9     9    10    1
    10    11    10    1
    11    11    12    1
    12    12    13    1
    13    13    14    1
    14    14    15    1
    15    15    16    1
    16    16    17    1
    17    16    18    2
    18    16    19    2
    19    13    20    1
    20    20    21    1
    21    20    22    1
    22    22    23    1
    23     7     2    1
    24    22    11    1
    25    10     6    1
@<TRIPOS>SUBSTRUCTURE
     1 RES1        1 GROUP             0 ****  ****    0  
@<TRIPOS>MOLECULE
ligand_33
    23    25     1     0     0
SMALL
NO_CHARGES
****
Generated from the CSD

@<TRIPOS>ATOM
     1 N1       1.0920   8.8410  13.0810   N.pl3     1 RES1   0.0000
     2 C2      -0.1290   8.6680  13.6850   C.2       1 RES1   0.0000
     3 N3      -0.5370   9.5710  14.5560   N.2       1 RES1   0.0000
     4 C4      -1.7240   9.3850  15.1360   C.2       1 RES1   0.0000
     5 N5      -2.5880   8.3860  14.9790   N.2       1 RES1   0.0000
     6 C6      -2.1190   7.5100  14.0890   C.2       1 RES1   0.0000
     7 C7      -0.9250   7.5600  13.4110   C.2       1 RES1   0.0000
     8 N8      -0.7820   6.4440  12.5980   N.2       1 RES1   0.0000
     9 C9      -1.8660   5.7570  12.8100   C.2       1 RES1   0.0000
    10 N10     -2.7230   6.3490  13.6850   N.pl3     1 RES1   0.0000
    11 C11     -4.0420   5.8540  14.1020   C.3       1 RES1   0.0000
    12 O12     -3.8404   4.5262  14.5983   O.3       1 RES1   0.0000
    13 C13     -4.9004   3.6455  14.1322   C.3       1 RES1   0.0000
    14 C14     -4.2341   2.3294  13.7689   C.3       1 RES1   0.0000
    15 O15     -3.6087   1.7214  14.9108   O.3       1 RES1   0.0000
    16 S16     -2.8561   0.3217  14.7057   S.o2      1 RES1   0.0000
    17 N17     -1.6345   0.6287  13.7719   N.3       1 RES1   0.0000
    18 O18     -2.4756   0.0610  16.0448   O.2       1 RES1   0.0000
    19 O19     -3.7378  -0.5704  14.0542   O.2       1 RES1   0.0000
    20 C20     -5.5457   4.3299  12.9573   C.3       1 RES1   0.0000
    21 O21     -6.9666   4.1439  13.0844   O.3       1 RES1   0.0000
    22 C22     -5.1008   5.7871  13.0469   C.3       1 RES1   0.0000
    23 O23     -6.2316   6.5703  13.4166   O.3       1 RES1   0.0000
@<TRIPOS>BOND
     1     1     2    1
     2     2     3    2
     3     3     4    1
     4     4     5    2
     5     5     6    1
     6     6     7    2
     7     7     8    1
     8     8     9    2
     9     9    10    1
    10    11    10    1
    11    11    12    1
    12    12    13    1
    13    13    14    1
    14    14    15    1
    15    15    16    1
    16    16    17    1
    17    16    18    2
    18    16    19    2
    19    13    20    1
    20    20    21    1
    21    20    22    1
    22    22    23    1
    23     7     2    1
    24    22    11    1
    25    10     6    1
@<TRIPOS>SUBSTRUCTURE
     1 RES1        1 GROUP             0 ****  ****    0  
@<TRIPOS>MOLECULE
ligand_34
    23    25     1     0     0
SMALL
NO_CHARGES
****
Generated from the CSD

@<TRIPOS>ATOM
     1 N1       1.0920   8.8410  13.0810   N.pl3     1 RES1   0.0000
     2 C2      -0.1290   8.6680  13.6850   C.2       1 RES1   0.0000
     3 N3      -0.5370   9.5710  14.5560   N.2       1 RES1   0.0000
     4 C4      -1.7240   9.3850  15.1360   C.2       1 RES1   0.0000
     5 N5      -2.5880   8.3860  14.9790   N.2       1 RES1   0.0000
     6 C6      -2.1190   7.5100  14.0890   C.2       1 RES1   0.0000
     7 C7      -0.9250   7.5600  13.4110   C.2       1 RES1   0.0000
     8 N8      -0.7820   6.4440  12.5980   N.2       1 RES1   0.0000
     9 C9      -1.8660   5.7570  12.8100   C.2       1 RES1   0.0000
    10 N10     -2.7230   6.3490  13.6850   N.pl3     1 RES1   0.0000
    11 C11     -4.0420   5.8540  14.1020   C.3       1 RES1   0.0000
    12 O12     -3.8404   4.5262  14.5983   O.3       1 RES1   0.0000
    13 C13     -4.9004   3.6455  14.1322   C.3       1 RES1   0.0000
    14 C14     -4.2341   2.3294  13.7689   C.3       1 RES1   0.0000
    15 O15     -3.3478   2.4781  12.6477   O.3       1 RES1   0.0000
    16 S16     -2.5591   1.1831  12.1295   S.o2      1 RES1   0.0000
    17 N17     -1.6918   1.6704  10.9175   N.3       1 RES1   0.0000
    18 O18     -1.7870   0.9011  13.2828   O.2       1 RES1   0.0000
    19 O19     -3.5039   0.2312  11.6834   O.2       1 RES1   0.0000
    20 C20     -5.5457   4.3299  12.9573   C.3       1 RES1   0.0000
    21 O21     -6.9666   4.1439  13.0844   O.3       1 RES1   0.0000
    22 C22     -5.1008   5.7871  13.0469   C.3       1 RES1   0.0000
    23 O23     -6.2316   6.5703  13.4166   O.3       1 RES1   0.0000
@<TRIPOS>BOND
     1     1     2    1
     2     2     3    2
     3     3     4    1
     4     4     5    2
     5     5     6    1
     6     6     7    2
     7     7     8    1
     8     8     9    2
     9     9    10    1
    10    11    10    1
    11    11    12    1
    12    12    13    1
    13    13    14    1
    14    14    15    1
    15    15    16    1
    16    16    17    1
    17    16    18    2
    18    16    19    2
    19    13    20    1
    20    20    21    1
    21    20    22    1
    22    22    23    1
    23     7     2    1
    24    22    11    1
    25    10     6    1
@<TRIPOS>SUBSTRUCTURE
     1 RES1        1 GROUP             0 ****  ****    0  
@<TRIPOS>MOLECULE
ligand_35
    23    25     1     0     0
SMALL
NO_CHARGES
****
Generated from the CSD

@<TRIPOS>ATOM
     1 N1       1.0920   8.8410  13.0810   N.pl3     1 RES1   0.0000
     2 C2      -0.1290   8.6680  13.6850   C.2       1 RES1   0.0000
     3 N3      -0.5370   9.5710  14.5560   N.2       1 RES1   0.0000
     4 C4      -1.7240   9.3850  15.1360   C.2       1 RES1   0.0000
     5 N5      -2.5880   8.3860  14.9790   N.2       1 RES1   0.0000
     6 C6      -2.1190   7.5100  14.0890   C.2       1 RES1   0.0000
     7 C7      -0.9250   7.5600  13.4110   C.2       1 RES1   0.0000
     8 N8      -0.7820   6.4440  12.5980   N.2       1 RES1   0.0000
     9 C9      -1.8660   5.7570  12.8100   C.2       1 RES1   0.0000
    10 N10     -2.7230   6.3490  13.6850   N.pl3     1 RES1   0.0000
    11 C11     -4.0420   5.8540  14.1020   C.3       1 RES1   0.0000
    12 O12     -4.1264   4.4956  13.6574   O.3       1 RES1   0.0000
    13 C13     -5.4438   4.2258  13.1024   C.3       1 RES1   0.0000
    14 C14     -5.2210   3.3618  11.8728   C.3       1 RES1   0.0000
    15 O15     -6.4647   2.9116  11.3114   O.3       1 RES1   0.0000
    16 S16     -6.4141   1.9856  10.0047   S.o2      1 RES1   0.0000
    17 N17     -5.8340   2.8915   8.8640   N.3       1 RES1   0.0000
    18 O18     -5.4968   1.0021  10.4490   O.2       1 RES1   0.0000
    19 O19     -7.7336   1.5988   9.6776   O.2       1 RES1   0.0000
    20 C20     -6.0617   5.5615  12.7869   C.3       1 RES1   0.0000
    21 O21     -7.4413   5.4978  13.1902   O.3       1 RES1   0.0000
    22 C22     -5.2347   6.5809  13.5656   C.3       1 RES1   0.0000
    23 O23     -6.0404   7.0815  14.6281   O.3       1 RES1   0.0000
@<TRIPOS>BOND
     1     1     2    1
     2     2     3    2
     3     3     4    1
     4     4     5    2
     5     5     6    1
     6     6     7    2
     7     7     8    1
     8     8     9    2
     9     9    10    1
    10    11    10    1
    11    11    12    1
    12    12    13    1
    13    13    14    1
    14    14    15    1
    15    15    16    1
    16    16    17    1
    17    16    18    2
    18    16    19    2
    19    13    20    1
    20    20    21    1
    21    20    22    1
    22    22    23    1
    23     7     2    1
    24    22    11    1
    25    10     6    1
@<TRIPOS>SUBSTRUCTURE
     1 RES1        1 GROUP             0 ****  ****    0  
@<TRIPOS>MOLECULE
ligand_36
    23    25     1     0     0
SMALL
NO_CHARGES
****
Generated from the CSD

@<TRIPOS>ATOM
     1 N1       1.0920   8.8410  13.0810   N.pl3     1 RES1   0.0000
     2 C2      -0.1290   8.6680  13.6850   C.2       1 RES1   0.0000
     3 N3      -0.5370   9.5710  14.5560   N.2       1 RES1   0.0000
     4 C4      -1.7240   9.3850  15.1360   C.2       1 RES1   0.0000
     5 N5      -2.5880   8.3860  14.9790   N.2       1 RES1   0.0000
     6 C6      -2.1190   7.5100  14.0890   C.2       1 RES1   0.0000
     7 C7      -0.9250   7.5600  13.4110   C.2       1 RES1   0.0000
     8 N8      -0.7820   6.4440  12.5980   N.2       1 RES1   0.0000
     9 C9      -1.8660   5.7570  12.8100   C.2       1 RES1   0.0000
    10 N10     -2.7230   6.3490  13.6850   N.pl3     1 RES1   0.0000
    11 C11     -4.0420   5.8540  14.1020   C.3       1 RES1   0.0000
    12 O12     -4.1264   4.4956  13.6574   O.3       1 RES1   0.0000
    13 C13     -5.4438   4.2258  13.1024   C.3       1 RES1   0.0000
    14 C14     -5.2210   3.3618  11.8728   C.3       1 RES1   0.0000
    15 O15     -6.4647   2.9116  11.3114   O.3       1 RES1   0.0000
    16 S16     -6.4141   1.9856  10.0047   S.o2      1 RES1   0.0000
    17 N17     -5.7409   0.6446  10.4598   N.3       1 RES1   0.0000
    18 O18     -7.8023   1.8506   9.7584   O.2       1 RES1   0.0000
    19 O19     -5.6014   2.6190   9.0372   O.2       1 RES1   0.0000
    20 C20     -6.0617   5.5615  12.7869   C.3       1 RES1   0.0000
    21 O21     -7.4413   5.4978  13.1902   O.3       1 RES1   0.0000
    22 C22     -5.2347   6.5809  13.5656   C.3       1 RES1   0.0000
    23 O23     -6.0404   7.0815  14.6281   O.3       1 RES1   0.0000
@<TRIPOS>BOND
     1     1     2    1
     2     2     3    2
     3     3     4    1
     4     4     5    2
     5     5     6    1
     6     6     7    2
     7     7     8    1
     8     8     9    2
     9     9    10    1
    10    11    10    1
    11    11    12    1
    12    12    13    1
    13    13    14    1
    14    14    15    1
    15    15    16    1
    16    16    17    1
    17    16    18    2
    18    16    19    2
    19    13    20    1
    20    20    21    1
    21    20    22    1
    22    22    23    1
    23     7     2    1
    24    22    11    1
    25    10     6    1
@<TRIPOS>SUBSTRUCTURE
     1 RES1        1 GROUP             0 ****  ****    0  
@<TRIPOS>MOLECULE
ligand_37
    23    25     1     0     0
SMALL
NO_CHARGES
****
Generated from the CSD

@<TRIPOS>ATOM
     1 N1       1.0841   8.8494  13.0659   N.pl3     1 RES1   0.0000
     2 C2      -0.1393   8.6794  13.6659   C.2       1 RES1   0.0000
     3 N3      -0.5560   9.5928  14.5218   N.2       1 RES1   0.0000
     4 C4      -1.7452   9.4097  15.0981   C.2       1 RES1   0.0000
     5 N5      -2.6039   8.4047  14.9507   N.2       1 RES1   0.0000
     6 C6      -2.1263   7.5183  14.0757   C.2       1 RES1   0.0000
     7 C7      -0.9290   7.5641  13.4034   C.2       1 RES1   0.0000
     8 N8      -0.7767   6.4374  12.6070   N.2       1 RES1   0.0000
     9 C9      -1.8587   5.7486  12.8230   C.2       1 RES1   0.0000
    10 N10     -2.7230   6.3490  13.6850   N.pl3     1 RES1   0.0000
    11 C11     -4.0420   5.8540  14.1020   C.3       1 RES1   0.0000
    12 O12     -4.9276   6.9386  14.1666   O.3       1 RES1   0.0000
    13 C13     -5.8690   6.7499  15.2483   C.3       1 RES1   0.0000
    14 C14     -5.8135   7.9381  16.1934   C.3       1 RES1   0.0000
    15 O15     -4.5609   7.9967  16.8950   O.3       1 RES1   0.0000
    16 S16     -4.3321   9.1925  17.9367   S.o2      1 RES1   0.0000
    17 N17     -4.3031  10.5043  17.0784   N.3       1 RES1   0.0000
    18 O18     -5.5136   9.0626  18.7067   O.2       1 RES1   0.0000
    19 O19     -3.0783   9.0083  18.5628   O.2       1 RES1   0.0000
    20 C20     -5.5078   5.4080  15.8799   C.3       1 RES1   0.0000
    21 O21     -6.3160   4.3746  15.2894   O.3       1 RES1   0.0000
    22 C22     -4.0535   5.2260  15.4898   C.3       1 RES1   0.0000
    23 O23     -3.6581   3.8619  15.3817   O.3       1 RES1   0.0000
@<TRIPOS>BOND
     1     1     2    1
     2     2     3    2
     3     3     4    1
     4     4     5    2
     5     5     6    1
     6     6     7    2
     7     7     8    1
     8     8     9    2
     9     9    10    1
    10    11    10    1
    11    11    12    1
    12    12    13    1
    13    13    14    1
    14    14    15    1
    15    15    16    1
    16    16    17    1
    17    16    18    2
    18    16    19    2
    19    13    20    1
    20    20    21    1
    21    20    22    1
    22    22    23    1
    23     7     2    1
    24    22    11    1
    25    10     6    1
@<TRIPOS>SUBSTRUCTURE
     1 RES1        1 GROUP             0 ****  ****    0  
@<TRIPOS>MOLECULE
ligand_38
    23    25     1     0     0
SMALL
NO_CHARGES
****
Generated from the CSD

@<TRIPOS>ATOM
     1 N1       1.0841   8.8494  13.0659   N.pl3     1 RES1   0.0000
     2 C2      -0.1393   8.6794  13.6659   C.2       1 RES1   0.0000
     3 N3      -0.5560   9.5928  14.5218   N.2       1 RES1   0.0000
     4 C4      -1.7452   9.4097  15.0981   C.2       1 RES1   0.0000
     5 N5      -2.6039   8.4047  14.9507   N.2       1 RES1   0.0000
     6 C6      -2.1263   7.5183  14.0757   C.2       1 RES1   0.0000
     7 C7      -0.9290   7.5641  13.4034   C.2       1 RES1   0.0000
     8 N8      -0.7767   6.4374  12.6070   N.2       1 RES1   0.0000
     9 C9      -1.8587   5.7486  12.8230   C.2       1 RES1   0.0000
    10 N10     -2.7230   6.3490  13.6850   N.pl3     1 RES1   0.0000
    11 C11     -4.0420   5.8540  14.1020   C.3       1 RES1   0.0000
    12 O12     -4.9276   6.9386  14.1666   O.3       1 RES1   0.0000
    13 C13     -5.8690   6.7499  15.2483   C.3       1 RES1   0.0000
    14 C14     -5.8135   7.9381  16.1934   C.3       1 RES1   0.0000
    15 O15     -4.5609   7.9967  16.8950   O.3       1 RES1   0.0000
    16 S16     -4.3321   9.1925  17.9367   S.o2      1 RES1   0.0000
    17 N17     -5.3600   8.9493  19.0955   N.3       1 RES1   0.0000
    18 O18     -2.9957   8.9195  18.3180   O.2       1 RES1   0.0000
    19 O19     -4.6279  10.4138  17.2897   O.2       1 RES1   0.0000
    20 C20     -5.5078   5.4080  15.8799   C.3       1 RES1   0.0000
    21 O21     -6.3160   4.3746  15.2894   O.3       1 RES1   0.0000
    22 C22     -4.0535   5.2260  15.4898   C.3       1 RES1   0.0000
    23 O23     -3.6581   3.8619  15.3817   O.3       1 RES1   0.0000
@<TRIPOS>BOND
     1     1     2    1
     2     2     3    2
     3     3     4    1
     4     4     5    2
     5     5     6    1
     6     6     7    2
     7     7     8    1
     8     8     9    2
     9     9    10    1
    10    11    10    1
    11    11    12    1
    12    12    13    1
    13    13    14    1
    14    14    15    1
    15    15    16    1
    16    16    17    1
    17    16    18    2
    18    16    19    2
    19    13    20    1
    20    20    21    1
    21    20    22    1
    22    22    23    1
    23     7     2    1
    24    22    11    1
    25    10     6    1
@<TRIPOS>SUBSTRUCTURE
     1 RES1        1 GROUP             0 ****  ****    0  
@<TRIPOS>MOLECULE
ligand_39
    23    25     1     0     0
SMALL
NO_CHARGES
****
Generated from the CSD

@<TRIPOS>ATOM
     1 N1       1.0553   8.8781  13.0091   N.pl3     1 RES1   0.0000
     2 C2      -0.1770   8.7188  13.5936   C.2       1 RES1   0.0000
     3 N3      -0.6251   9.6681  14.3926   N.2       1 RES1   0.0000
     4 C4      -1.8226   9.4950  14.9549   C.2       1 RES1   0.0000
     5 N5      -2.6620   8.4693  14.8437   N.2       1 RES1   0.0000
     6 C6      -2.1530   7.5470  14.0255   C.2       1 RES1   0.0000
     7 C7      -0.9433   7.5781  13.3747   C.2       1 RES1   0.0000
     8 N8      -0.7572   6.4143  12.6412   N.2       1 RES1   0.0000
     9 C9      -1.8322   5.7194  12.8722   C.2       1 RES1   0.0000
    10 N10     -2.7230   6.3490  13.6850   N.pl3     1 RES1   0.0000
    11 C11     -4.0420   5.8540  14.1020   C.3       1 RES1   0.0000
    12 O12     -5.0292   6.6193  13.4660   O.3       1 RES1   0.0000
    13 C13     -6.1702   6.7864  14.3391   C.3       1 RES1   0.0000
    14 C14     -6.4629   8.2652  14.5278   C.3       1 RES1   0.0000
    15 O15     -6.8011   8.8994  13.2835   O.3       1 RES1   0.0000
    16 S16     -6.4373  10.4492  13.1006   S.o2      1 RES1   0.0000
    17 N17     -6.9275  10.8339  11.6618   N.3       1 RES1   0.0000
    18 O18     -7.2439  11.0024  14.1249   O.2       1 RES1   0.0000
    19 O19     -5.0332  10.5923  13.1767   O.2       1 RES1   0.0000
    20 C20     -5.8238   6.0306  15.6194   C.3       1 RES1   0.0000
    21 O21     -6.3577   4.6970  15.5403   O.3       1 RES1   0.0000
    22 C22     -4.3078   5.9928  15.5955   C.3       1 RES1   0.0000
    23 O23     -3.7545   4.8661  16.2687   O.3       1 RES1   0.0000
@<TRIPOS>BOND
     1     1     2    1
     2     2     3    2
     3     3     4    1
     4     4     5    2
     5     5     6    1
     6     6     7    2
     7     7     8    1
     8     8     9    2
     9     9    10    1
    10    11    10    1
    11    11    12    1
    12    12    13    1
    13    13    14    1
    14    14    15    1
    15    15    16    1
    16    16    17    1
    17    16    18    2
    18    16    19    2
    19    13    20    1
    20    20    21    1
    21    20    22    1
    22    22    23    1
    23     7     2    1
    24    22    11    1
    25    10     6    1
@<TRIPOS>SUBSTRUCTURE
     1 RES1        1 GROUP             0 ****  ****    0  
@<TRIPOS>MOLECULE
ligand_40
    23    25     1     0     0
SMALL
NO_CHARGES
****
Generated from the CSD

@<TRIPOS>ATOM
     1 N1       1.0550   8.8784  13.0085   N.pl3     1 RES1   0.0000
     2 C2      -0.1774   8.7192  13.5928   C.2       1 RES1   0.0000
     3 N3      -0.6258   9.6689  14.3912   N.2       1 RES1   0.0000
     4 C4      -1.8234   9.4959  14.9533   C.2       1 RES1   0.0000
     5 N5      -2.6626   8.4699  14.8426   N.2       1 RES1   0.0000
     6 C6      -2.1532   7.5472  14.0249   C.2       1 RES1   0.0000
     7 C7      -0.9434   7.5782  13.3743   C.2       1 RES1   0.0000
     8 N8      -0.7570   6.4141  12.6416   N.2       1 RES1   0.0000
     9 C9      -1.8320   5.7191  12.8727   C.2       1 RES1   0.0000
    10 N10     -2.7230   6.3490  13.6850   N.pl3     1 RES1   0.0000
    11 C11     -4.0420   5.8540  14.1020   C.3       1 RES1   0.0000
    12 O12     -5.0292   6.6193  13.4660   O.3       1 RES1   0.0000
    13 C13     -6.1702   6.7864  14.3391   C.3       1 RES1   0.0000
    14 C14     -6.4629   8.2652  14.5278   C.3       1 RES1   0.0000
    15 O15     -6.8011   8.8994  13.2835   O.3       1 RES1   0.0000
    16 S16     -7.8005  10.1515  13.3194   S.o2      1 RES1   0.0000
    17 N17     -7.9643  10.6074  11.8282   N.3       1 RES1   0.0000
    18 O18     -8.9569   9.5144  13.8322   O.2       1 RES1   0.0000
    19 O19     -7.1957  11.1869  14.0676   O.2       1 RES1   0.0000
    20 C20     -5.8238   6.0306  15.6194   C.3       1 RES1   0.0000
    21 O21     -6.3577   4.6970  15.5403   O.3       1 RES1   0.0000
    22 C22     -4.3078   5.9928  15.5955   C.3       1 RES1   0.0000
    23 O23     -3.7545   4.8661  16.2687   O.3       1 RES1   0.0000
@<TRIPOS>BOND
     1     1     2    1
     2     2     3    2
     3     3     4    1
     4     4     5    2
     5     5     6    1
     6     6     7    2
     7     7     8    1
     8     8     9    2
     9     9    10    1
    10    11    10    1
    11    11    12    1
    12    12    13    1
    13    13    14    1
    14    14    15    1
    15    15    16    1
    16    16    17    1
    17    16    18    2
    18    16    19    2
    19    13    20    1
    20    20    21    1
    21    20    22    1
    22    22    23    1
    23     7     2    1
    24    22    11    1
    25    10     6    1
@<TRIPOS>SUBSTRUCTURE
     1 RES1        1 GROUP             0 ****  ****    0  
@<TRIPOS>MOLECULE
ligand_41
    23    25     1     0     0
SMALL
NO_CHARGES
****
Generated from the CSD

@<TRIPOS>ATOM
     1 N1       1.0920   8.8410  13.0810   N.pl3     1 RES1   0.0000
     2 C2      -0.1290   8.6680  13.6850   C.2       1 RES1   0.0000
     3 N3      -0.5370   9.5710  14.5560   N.2       1 RES1   0.0000
     4 C4      -1.7240   9.3850  15.1360   C.2       1 RES1   0.0000
     5 N5      -2.5880   8.3860  14.9790   N.2       1 RES1   0.0000
     6 C6      -2.1190   7.5100  14.0890   C.2       1 RES1   0.0000
     7 C7      -0.9250   7.5600  13.4110   C.2       1 RES1   0.0000
     8 N8      -0.7820   6.4440  12.5980   N.2       1 RES1   0.0000
     9 C9      -1.8660   5.7570  12.8100   C.2       1 RES1   0.0000
    10 N10     -2.7230   6.3490  13.6850   N.pl3     1 RES1   0.0000
    11 C11     -4.0420   5.8540  14.1020   C.3       1 RES1   0.0000
    12 O12     -3.8953   4.5511  14.5975   O.3       1 RES1   0.0000
    13 C13     -5.0571   3.7568  14.2636   C.3       1 RES1   0.0000
    14 C14     -4.6306   2.5156  13.4984   C.3       1 RES1   0.0000
    15 O15     -4.0773   2.8505  12.2152   O.3       1 RES1   0.0000
    16 S16     -4.2450   1.7963  11.0202   S.o2      1 RES1   0.0000
    17 N17     -3.4448   0.5223  11.4618   N.3       1 RES1   0.0000
    18 O18     -5.6483   1.6102  11.0663   O.2       1 RES1   0.0000
    19 O19     -3.6606   2.3424   9.8549   O.2       1 RES1   0.0000
    20 C20     -5.9914   4.6931  13.5016   C.3       1 RES1   0.0000
    21 O21     -6.9291   5.2780  14.4227   O.3       1 RES1   0.0000
    22 C22     -5.0500   5.7540  12.9643   C.3       1 RES1   0.0000
    23 O23     -5.6669   7.0248  12.7821   O.3       1 RES1   0.0000
@<TRIPOS>BOND
     1     1     2    1
     2     2     3    2
     3     3     4    1
     4     4     5    2
     5     5     6    1
     6     6     7    2
     7     7     8    1
     8     8     9    2
     9     9    10    1
    10    11    10    1
    11    11    12    1
    12    12    13    1
    13    13    14    1
    14    14    15    1
    15    15    16    1
    16    16    17    1
    17    16    18    2
    18    16    19    2
    19    13    20    1
    20    20    21    1
    21    20    22    1
    22    22    23    1
    23     7     2    1
    24    22    11    1
    25    10     6    1
@<TRIPOS>SUBSTRUCTURE
     1 RES1        1 GROUP             0 ****  ****    0  
@<TRIPOS>MOLECULE
ligand_42
    23    25     1     0     0
SMALL
NO_CHARGES
****
Generated from the CSD

@<TRIPOS>ATOM
     1 N1       1.0920   8.8410  13.0810   N.pl3     1 RES1   0.0000
     2 C2      -0.1290   8.6680  13.6850   C.2       1 RES1   0.0000
     3 N3      -0.5370   9.5710  14.5560   N.2       1 RES1   0.0000
     4 C4      -1.7240   9.3850  15.1360   C.2       1 RES1   0.0000
     5 N5      -2.5880   8.3860  14.9790   N.2       1 RES1   0.0000
     6 C6      -2.1190   7.5100  14.0890   C.2       1 RES1   0.0000
     7 C7      -0.9250   7.5600  13.4110   C.2       1 RES1   0.0000
     8 N8      -0.7820   6.4440  12.5980   N.2       1 RES1   0.0000
     9 C9      -1.8660   5.7570  12.8100   C.2       1 RES1   0.0000
    10 N10     -2.7230   6.3490  13.6850   N.pl3     1 RES1   0.0000
    11 C11     -4.0420   5.8540  14.1020   C.3       1 RES1   0.0000
    12 O12     -3.8953   4.5511  14.5975   O.3       1 RES1   0.0000
    13 C13     -5.0571   3.7568  14.2636   C.3       1 RES1   0.0000
    14 C14     -4.6306   2.5156  13.4984   C.3       1 RES1   0.0000
    15 O15     -4.0773   2.8505  12.2152   O.3       1 RES1   0.0000
    16 S16     -4.2459   1.7967  11.0200   S.o2      1 RES1   0.0000
    17 N17     -5.7839   1.7347  10.7217   N.3       1 RES1   0.0000
    18 O18     -3.5143   2.4679  10.0100   O.2       1 RES1   0.0000
    19 O19     -3.7993   0.5333  11.4695   O.2       1 RES1   0.0000
    20 C20     -5.9914   4.6931  13.5016   C.3       1 RES1   0.0000
    21 O21     -6.9291   5.2780  14.4227   O.3       1 RES1   0.0000
    22 C22     -5.0500   5.7540  12.9643   C.3       1 RES1   0.0000
    23 O23     -5.6669   7.0248  12.7821   O.3       1 RES1   0.0000
@<TRIPOS>BOND
     1     1     2    1
     2     2     3    2
     3     3     4    1
     4     4     5    2
     5     5     6    1
     6     6     7    2
     7     7     8    1
     8     8     9    2
     9     9    10    1
    10    11    10    1
    11    11    12    1
    12    12    13    1
    13    13    14    1
    14    14    15    1
    15    15    16    1
    16    16    17    1
    17    16    18    2
    18    16    19    2
    19    13    20    1
    20    20    21    1
    21    20    22    1
    22    22    23    1
    23     7     2    1
    24    22    11    1
    25    10     6    1
@<TRIPOS>SUBSTRUCTURE
     1 RES1        1 GROUP             0 ****  ****    0  
@<TRIPOS>MOLECULE
ligand_43
    23    25     1     0     0
SMALL
NO_CHARGES
****
Generated from the CSD

@<TRIPOS>ATOM
     1 N1       1.0920   8.8410  13.0810   N.pl3     1 RES1   0.0000
     2 C2      -0.1290   8.6680  13.6850   C.2       1 RES1   0.0000
     3 N3      -0.5370   9.5710  14.5560   N.2       1 RES1   0.0000
     4 C4      -1.7240   9.3850  15.1360   C.2       1 RES1   0.0000
     5 N5      -2.5880   8.3860  14.9790   N.2       1 RES1   0.0000
     6 C6      -2.1190   7.5100  14.0890   C.2       1 RES1   0.0000
     7 C7      -0.9250   7.5600  13.4110   C.2       1 RES1   0.0000
     8 N8      -0.7820   6.4440  12.5980   N.2       1 RES1   0.0000
     9 C9      -1.8660   5.7570  12.8100   C.2       1 RES1   0.0000
    10 N10     -2.7230   6.3490  13.6850   N.pl3     1 RES1   0.0000
    11 C11     -4.0420   5.8540  14.1020   C.3       1 RES1   0.0000
    12 O12     -3.8953   4.5511  14.5975   O.3       1 RES1   0.0000
    13 C13     -5.0571   3.7568  14.2636   C.3       1 RES1   0.0000
    14 C14     -4.6306   2.5156  13.4984   C.3       1 RES1   0.0000
    15 O15     -4.0773   2.8505  12.2152   O.3       1 RES1   0.0000
    16 S16     -2.9596   1.8829  11.5971   S.o2      1 RES1   0.0000
    17 N17     -1.7177   2.0071  12.5461   N.3       1 RES1   0.0000
    18 O18     -3.6285   0.6408  11.7229   O.2       1 RES1   0.0000
    19 O19     -2.6204   2.3550  10.3087   O.2       1 RES1   0.0000
    20 C20     -5.9914   4.6931  13.5016   C.3       1 RES1   0.0000
    21 O21     -6.9291   5.2780  14.4227   O.3       1 RES1   0.0000
    22 C22     -5.0500   5.7540  12.9643   C.3       1 RES1   0.0000
    23 O23     -5.6669   7.0248  12.7821   O.3       1 RES1   0.0000
@<TRIPOS>BOND
     1     1     2    1
     2     2     3    2
     3     3     4    1
     4     4     5    2
     5     5     6    1
     6     6     7    2
     7     7     8    1
     8     8     9    2
     9     9    10    1
    10    11    10    1
    11    11    12    1
    12    12    13    1
    13    13    14    1
    14    14    15    1
    15    15    16    1
    16    16    17    1
    17    16    18    2
    18    16    19    2
    19    13    20    1
    20    20    21    1
    21    20    22    1
    22    22    23    1
    23     7     2    1
    24    22    11    1
    25    10     6    1
@<TRIPOS>SUBSTRUCTURE
     1 RES1        1 GROUP             0 ****  ****    0  
@<TRIPOS>MOLECULE
ligand_44
    23    25     1     0     0
SMALL
NO_CHARGES
****
Generated from the CSD

@<TRIPOS>ATOM
     1 N1       1.0920   8.8410  13.0810   N.pl3     1 RES1   0.0000
     2 C2      -0.1290   8.6680  13.6850   C.2       1 RES1   0.0000
     3 N3      -0.5370   9.5710  14.5560   N.2       1 RES1   0.0000
     4 C4      -1.7240   9.3850  15.1360   C.2       1 RES1   0.0000
     5 N5      -2.5880   8.3860  14.9790   N.2       1 RES1   0.0000
     6 C6      -2.1190   7.5100  14.0890   C.2       1 RES1   0.0000
     7 C7      -0.9250   7.5600  13.4110   C.2       1 RES1   0.0000
     8 N8      -0.7820   6.4440  12.5980   N.2       1 RES1   0.0000
     9 C9      -1.8660   5.7570  12.8100   C.2       1 RES1   0.0000
    10 N10     -2.7230   6.3490  13.6850   N.pl3     1 RES1   0.0000
    11 C11     -4.0420   5.8540  14.1020   C.3       1 RES1   0.0000
    12 O12     -3.8953   4.5511  14.5975   O.3       1 RES1   0.0000
    13 C13     -5.0571   3.7568  14.2636   C.3       1 RES1   0.0000
    14 C14     -4.6306   2.5156  13.4984   C.3       1 RES1   0.0000
    15 O15     -4.0773   2.8505  12.2152   O.3       1 RES1   0.0000
    16 S16     -2.9596   1.8829  11.5971   S.o2      1 RES1   0.0000
    17 N17     -3.6860   0.5233  11.3101   N.3       1 RES1   0.0000
    18 O18     -2.6511   2.6037  10.4176   O.2       1 RES1   0.0000
    19 O19     -1.9509   1.6854  12.5673   O.2       1 RES1   0.0000
    20 C20     -5.9914   4.6931  13.5016   C.3       1 RES1   0.0000
    21 O21     -6.9291   5.2780  14.4227   O.3       1 RES1   0.0000
    22 C22     -5.0500   5.7540  12.9643   C.3       1 RES1   0.0000
    23 O23     -5.6669   7.0248  12.7821   O.3       1 RES1   0.0000
@<TRIPOS>BOND
     1     1     2    1
     2     2     3    2
     3     3     4    1
     4     4     5    2
     5     5     6    1
     6     6     7    2
     7     7     8    1
     8     8     9    2
     9     9    10    1
    10    11    10    1
    11    11    12    1
    12    12    13    1
    13    13    14    1
    14    14    15    1
    15    15    16    1
    16    16    17    1
    17    16    18    2
    18    16    19    2
    19    13    20    1
    20    20    21    1
    21    20    22    1
    22    22    23    1
    23     7     2    1
    24    22    11    1
    25    10     6    1
@<TRIPOS>SUBSTRUCTURE
     1 RES1        1 GROUP             0 ****  ****    0  
@<TRIPOS>MOLECULE
ligand_45
    23    25     1     0     0
SMALL
NO_CHARGES
****
Generated from the CSD

@<TRIPOS>ATOM
     1 N1       1.0920   8.8410  13.0810   N.pl3     1 RES1   0.0000
     2 C2      -0.1290   8.6680  13.6850   C.2       1 RES1   0.0000
     3 N3      -0.5370   9.5710  14.5560   N.2       1 RES1   0.0000
     4 C4      -1.7240   9.3850  15.1360   C.2       1 RES1   0.0000
     5 N5      -2.5880   8.3860  14.9790   N.2       1 RES1   0.0000
     6 C6      -2.1190   7.5100  14.0890   C.2       1 RES1   0.0000
     7 C7      -0.9250   7.5600  13.4110   C.2       1 RES1   0.0000
     8 N8      -0.7820   6.4440  12.5980   N.2       1 RES1   0.0000
     9 C9      -1.8660   5.7570  12.8100   C.2       1 RES1   0.0000
    10 N10     -2.7230   6.3490  13.6850   N.pl3     1 RES1   0.0000
    11 C11     -4.0420   5.8540  14.1020   C.3       1 RES1   0.0000
    12 O12     -4.1264   4.4956  13.6574   O.3       1 RES1   0.0000
    13 C13     -5.4438   4.2258  13.1024   C.3       1 RES1   0.0000
    14 C14     -5.2210   3.3618  11.8728   C.3       1 RES1   0.0000
    15 O15     -4.6068   2.1080  12.2128   O.3       1 RES1   0.0000
    16 S16     -4.2991   1.0708  11.0307   S.o2      1 RES1   0.0000
    17 N17     -3.6409  -0.1748  11.7188   N.3       1 RES1   0.0000
    18 O18     -5.6207   0.8220  10.5865   O.2       1 RES1   0.0000
    19 O19     -3.3742   1.6649  10.1422   O.2       1 RES1   0.0000
    20 C20     -6.0617   5.5615  12.7869   C.3       1 RES1   0.0000
    21 O21     -7.4413   5.4978  13.1902   O.3       1 RES1   0.0000
    22 C22     -5.2347   6.5809  13.5656   C.3       1 RES1   0.0000
    23 O23     -6.0404   7.0815  14.6281   O.3       1 RES1   0.0000
@<TRIPOS>BOND
     1     1     2    1
     2     2     3    2
     3     3     4    1
     4     4     5    2
     5     5     6    1
     6     6     7    2
     7     7     8    1
     8     8     9    2
     9     9    10    1
    10    11    10    1
    11    11    12    1
    12    12    13    1
    13    13    14    1
    14    14    15    1
    15    15    16    1
    16    16    17    1
    17    16    18    2
    18    16    19    2
    19    13    20    1
    20    20    21    1
    21    20    22    1
    22    22    23    1
    23     7     2    1
    24    22    11    1
    25    10     6    1
@<TRIPOS>SUBSTRUCTURE
     1 RES1        1 GROUP             0 ****  ****    0  
@<TRIPOS>MOLECULE
ligand_46
    23    25     1     0     0
SMALL
NO_CHARGES
****
Generated from the CSD

@<TRIPOS>ATOM
     1 N1       1.0920   8.8410  13.0810   N.pl3     1 RES1   0.0000
     2 C2      -0.1290   8.6680  13.6850   C.2       1 RES1   0.0000
     3 N3      -0.5370   9.5710  14.5560   N.2       1 RES1   0.0000
     4 C4      -1.7240   9.3850  15.1360   C.2       1 RES1   0.0000
     5 N5      -2.5880   8.3860  14.9790   N.2       1 RES1   0.0000
     6 C6      -2.1190   7.5100  14.0890   C.2       1 RES1   0.0000
     7 C7      -0.9250   7.5600  13.4110   C.2       1 RES1   0.0000
     8 N8      -0.7820   6.4440  12.5980   N.2       1 RES1   0.0000
     9 C9      -1.8660   5.7570  12.8100   C.2       1 RES1   0.0000
    10 N10     -2.7230   6.3490  13.6850   N.pl3     1 RES1   0.0000
    11 C11     -4.0420   5.8540  14.1020   C.3       1 RES1   0.0000
    12 O12     -3.8674   4.9486  15.1577   O.3       1 RES1   0.0000
    13 C13     -4.8508   3.8912  15.0756   C.3       1 RES1   0.0000
    14 C14     -4.1545   2.5415  15.0350   C.3       1 RES1   0.0000
    15 O15     -3.3940   2.3035  16.2307   O.3       1 RES1   0.0000
    16 S16     -2.5928   0.9214  16.3555   S.o2      1 RES1   0.0000
    17 N17     -3.6869  -0.1999  16.4192   N.3       1 RES1   0.0000
    18 O18     -1.8948   0.9424  15.1234   O.2       1 RES1   0.0000
    19 O19     -1.8587   0.9360  17.5633   O.2       1 RES1   0.0000
    20 C20     -5.7014   4.2135  13.8497   C.3       1 RES1   0.0000
    21 O21     -6.8606   4.9596  14.2613   O.3       1 RES1   0.0000
    22 C22     -4.7832   5.0858  13.0152   C.3       1 RES1   0.0000
    23 O23     -5.4760   6.0137  12.1859   O.3       1 RES1   0.0000
@<TRIPOS>BOND
     1     1     2    1
     2     2     3    2
     3     3     4    1
     4     4     5    2
     5     5     6    1
     6     6     7    2
     7     7     8    1
     8     8     9    2
     9     9    10    1
    10    11    10    1
    11    11    12    1
    12    12    13    1
    13    13    14    1
    14    14    15    1
    15    15    16    1
    16    16    17    1
    17    16    18    2
    18    16    19    2
    19    13    20    1
    20    20    21    1
    21    20    22    1
    22    22    23    1
    23     7     2    1
    24    22    11    1
    25    10     6    1
@<TRIPOS>SUBSTRUCTURE
     1 RES1        1 GROUP             0 ****  ****    0  
@<TRIPOS>MOLECULE
ligand_47
    23    25     1     0     0
SMALL
NO_CHARGES
****
Generated from the CSD

@<TRIPOS>ATOM
     1 N1       1.0920   8.8410  13.0810   N.pl3     1 RES1   0.0000
     2 C2      -0.1290   8.6680  13.6850   C.2       1 RES1   0.0000
     3 N3      -0.5370   9.5710  14.5560   N.2       1 RES1   0.0000
     4 C4      -1.7240   9.3850  15.1360   C.2       1 RES1   0.0000
     5 N5      -2.5880   8.3860  14.9790   N.2       1 RES1   0.0000
     6 C6      -2.1190   7.5100  14.0890   C.2       1 RES1   0.0000
     7 C7      -0.9250   7.5600  13.4110   C.2       1 RES1   0.0000
     8 N8      -0.7820   6.4440  12.5980   N.2       1 RES1   0.0000
     9 C9      -1.8660   5.7570  12.8100   C.2       1 RES1   0.0000
    10 N10     -2.7230   6.3490  13.6850   N.pl3     1 RES1   0.0000
    11 C11     -4.0420   5.8540  14.1020   C.3       1 RES1   0.0000
    12 O12     -3.8674   4.9486  15.1577   O.3       1 RES1   0.0000
    13 C13     -4.8508   3.8912  15.0756   C.3       1 RES1   0.0000
    14 C14     -4.1545   2.5415  15.0350   C.3       1 RES1   0.0000
    15 O15     -3.3940   2.3035  16.2307   O.3       1 RES1   0.0000
    16 S16     -2.5928   0.9214  16.3555   S.o2      1 RES1   0.0000
    17 N17     -1.4819   0.9728  15.2503   N.3       1 RES1   0.0000
    18 O18     -2.0752   1.0674  17.6658   O.2       1 RES1   0.0000
    19 O19     -3.4846  -0.1404  16.0817   O.2       1 RES1   0.0000
    20 C20     -5.7014   4.2135  13.8497   C.3       1 RES1   0.0000
    21 O21     -6.8606   4.9596  14.2613   O.3       1 RES1   0.0000
    22 C22     -4.7832   5.0858  13.0152   C.3       1 RES1   0.0000
    23 O23     -5.4760   6.0137  12.1859   O.3       1 RES1   0.0000
@<TRIPOS>BOND
     1     1     2    1
     2     2     3    2
     3     3     4    1
     4     4     5    2
     5     5     6    1
     6     6     7    2
     7     7     8    1
     8     8     9    2
     9     9    10    1
    10    11    10    1
    11    11    12    1
    12    12    13    1
    13    13    14    1
    14    14    15    1
    15    15    16    1
    16    16    17    1
    17    16    18    2
    18    16    19    2
    19    13    20    1
    20    20    21    1
    21    20    22    1
    22    22    23    1
    23     7     2    1
    24    22    11    1
    25    10     6    1
@<TRIPOS>SUBSTRUCTURE
     1 RES1        1 GROUP             0 ****  ****    0  
@<TRIPOS>MOLECULE
ligand_48
    23    25     1     0     0
SMALL
NO_CHARGES
****
Generated from the CSD

@<TRIPOS>ATOM
     1 N1       1.0920   8.8410  13.0810   N.pl3     1 RES1   0.0000
     2 C2      -0.1290   8.6680  13.6850   C.2       1 RES1   0.0000
     3 N3      -0.5370   9.5710  14.5560   N.2       1 RES1   0.0000
     4 C4      -1.7240   9.3850  15.1360   C.2       1 RES1   0.0000
     5 N5      -2.5880   8.3860  14.9790   N.2       1 RES1   0.0000
     6 C6      -2.1190   7.5100  14.0890   C.2       1 RES1   0.0000
     7 C7      -0.9250   7.5600  13.4110   C.2       1 RES1   0.0000
     8 N8      -0.7820   6.4440  12.5980   N.2       1 RES1   0.0000
     9 C9      -1.8660   5.7570  12.8100   C.2       1 RES1   0.0000
    10 N10     -2.7230   6.3490  13.6850   N.pl3     1 RES1   0.0000
    11 C11     -4.0420   5.8540  14.1020   C.3       1 RES1   0.0000
    12 O12     -3.8116   4.9371  15.1773   O.3       1 RES1   0.0000
    13 C13     -4.6603   3.7644  15.0328   C.3       1 RES1   0.0000
    14 C14     -3.8042   2.5677  15.4114   C.3       1 RES1   0.0000
    15 O15     -2.7292   2.3713  14.4784   O.3       1 RES1   0.0000
    16 S16     -2.1971   0.8787  14.2403   S.o2      1 RES1   0.0000
    17 N17     -1.6011   0.4156  15.6146   N.3       1 RES1   0.0000
    18 O18     -3.4216   0.2400  13.9262   O.2       1 RES1   0.0000
    19 O19     -1.1716   0.9178  13.2684   O.2       1 RES1   0.0000
    20 C20     -5.1202   3.7374  13.5999   C.3       1 RES1   0.0000
    21 O21     -6.5111   3.3697  13.6064   O.3       1 RES1   0.0000
    22 C22     -4.8527   5.1418  13.0656   C.3       1 RES1   0.0000
    23 O23     -6.1084   5.7869  12.8762   O.3       1 RES1   0.0000
@<TRIPOS>BOND
     1     1     2    1
     2     2     3    2
     3     3     4    1
     4     4     5    2
     5     5     6    1
     6     6     7    2
     7     7     8    1
     8     8     9    2
     9     9    10    1
    10    11    10    1
    11    11    12    1
    12    12    13    1
    13    13    14    1
    14    14    15    1
    15    15    16    1
    16    16    17    1
    17    16    18    2
    18    16    19    2
    19    13    20    1
    20    20    21    1
    21    20    22    1
    22    22    23    1
    23     7     2    1
    24    22    11    1
    25    10     6    1
@<TRIPOS>SUBSTRUCTURE
     1 RES1        1 GROUP             0 ****  ****    0  
@<TRIPOS>MOLECULE
ligand_49
    23    25     1     0     0
SMALL
NO_CHARGES
****
Generated from the CSD

@<TRIPOS>ATOM
     1 N1       1.0920   8.8410  13.0810   N.pl3     1 RES1   0.0000
     2 C2      -0.1290   8.6680  13.6850   C.2       1 RES1   0.0000
     3 N3      -0.5370   9.5710  14.5560   N.2       1 RES1   0.0000
     4 C4      -1.7240   9.3850  15.1360   C.2       1 RES1   0.0000
     5 N5      -2.5880   8.3860  14.9790   N.2       1 RES1   0.0000
     6 C6      -2.1190   7.5100  14.0890   C.2       1 RES1   0.0000
     7 C7      -0.9250   7.5600  13.4110   C.2       1 RES1   0.0000
     8 N8      -0.7820   6.4440  12.5980   N.2       1 RES1   0.0000
     9 C9      -1.8660   5.7570  12.8100   C.2       1 RES1   0.0000
    10 N10     -2.7230   6.3490  13.6850   N.pl3     1 RES1   0.0000
    11 C11     -4.0420   5.8540  14.1020   C.3       1 RES1   0.0000
    12 O12     -3.8116   4.9371  15.1773   O.3       1 RES1   0.0000
    13 C13     -4.6603   3.7644  15.0328   C.3       1 RES1   0.0000
    14 C14     -3.8042   2.5677  15.4114   C.3       1 RES1   0.0000
    15 O15     -2.7289   2.3716  14.4787   O.3       1 RES1   0.0000
    16 S16     -2.1972   0.8790  14.2397   S.o2      1 RES1   0.0000
    17 N17     -3.3821   0.1094  13.5598   N.3       1 RES1   0.0000
    18 O18     -1.1306   1.1495  13.3480   O.2       1 RES1   0.0000
    19 O19     -1.9136   0.2973  15.4962   O.2       1 RES1   0.0000
    20 C20     -5.1202   3.7374  13.5999   C.3       1 RES1   0.0000
    21 O21     -6.5111   3.3697  13.6064   O.3       1 RES1   0.0000
    22 C22     -4.8527   5.1418  13.0656   C.3       1 RES1   0.0000
    23 O23     -6.1084   5.7869  12.8762   O.3       1 RES1   0.0000
@<TRIPOS>BOND
     1     1     2    1
     2     2     3    2
     3     3     4    1
     4     4     5    2
     5     5     6    1
     6     6     7    2
     7     7     8    1
     8     8     9    2
     9     9    10    1
    10    11    10    1
    11    11    12    1
    12    12    13    1
    13    13    14    1
    14    14    15    1
    15    15    16    1
    16    16    17    1
    17    16    18    2
    18    16    19    2
    19    13    20    1
    20    20    21    1
    21    20    22    1
    22    22    23    1
    23     7     2    1
    24    22    11    1
    25    10     6    1
@<TRIPOS>SUBSTRUCTURE
     1 RES1        1 GROUP             0 ****  ****    0  
@<TRIPOS>MOLECULE
ligand_50
    23    25     1     0     0
SMALL
NO_CHARGES
****
Generated from the CSD

@<TRIPOS>ATOM
     1 N1       1.0920   8.8410  13.0810   N.pl3     1 RES1   0.0000
     2 C2      -0.1290   8.6680  13.6850   C.2       1 RES1   0.0000
     3 N3      -0.5370   9.5710  14.5560   N.2       1 RES1   0.0000
     4 C4      -1.7240   9.3850  15.1360   C.2       1 RES1   0.0000
     5 N5      -2.5880   8.3860  14.9790   N.2       1 RES1   0.0000
     6 C6      -2.1190   7.5100  14.0890   C.2       1 RES1   0.0000
     7 C7      -0.9250   7.5600  13.4110   C.2       1 RES1   0.0000
     8 N8      -0.7820   6.4440  12.5980   N.2       1 RES1   0.0000
     9 C9      -1.8660   5.7570  12.8100   C.2       1 RES1   0.0000
    10 N10     -2.7230   6.3490  13.6850   N.pl3     1 RES1   0.0000
    11 C11     -4.0420   5.8540  14.1020   C.3       1 RES1   0.0000
    12 O12     -3.8116   4.9371  15.1773   O.3       1 RES1   0.0000
    13 C13     -4.6603   3.7644  15.0328   C.3       1 RES1   0.0000
    14 C14     -3.8042   2.5677  15.4114   C.3       1 RES1   0.0000
    15 O15     -2.7289   2.3716  14.4787   O.3       1 RES1   0.0000
    16 S16     -1.3691   1.7177  15.0180   S.o2      1 RES1   0.0000
    17 N17     -0.7642   2.7606  16.0204   N.3       1 RES1   0.0000
    18 O18     -1.8985   0.5739  15.6641   O.2       1 RES1   0.0000
    19 O19     -0.4896   1.5460  13.9250   O.2       1 RES1   0.0000
    20 C20     -5.1202   3.7374  13.5999   C.3       1 RES1   0.0000
    21 O21     -6.5111   3.3697  13.6064   O.3       1 RES1   0.0000
    22 C22     -4.8527   5.1418  13.0656   C.3       1 RES1   0.0000
    23 O23     -6.1084   5.7869  12.8762   O.3       1 RES1   0.0000
@<TRIPOS>BOND
     1     1     2    1
     2     2     3    2
     3     3     4    1
     4     4     5    2
     5     5     6    1
     6     6     7    2
     7     7     8    1
     8     8     9    2
     9     9    10    1
    10    11    10    1
    11    11    12    1
    12    12    13    1
    13    13    14    1
    14    14    15    1
    15    15    16    1
    16    16    17    1
    17    16    18    2
    18    16    19    2
    19    13    20    1
    20    20    21    1
    21    20    22    1
    22    22    23    1
    23     7     2    1
    24    22    11    1
    25    10     6    1
@<TRIPOS>SUBSTRUCTURE
     1 RES1        1 GROUP             0 ****  ****    0  
@<TRIPOS>MOLECULE
ligand_51
    23    25     1     0     0
SMALL
NO_CHARGES
****
Generated from the CSD

@<TRIPOS>ATOM
     1 N1       1.0920   8.8410  13.0810   N.pl3     1 RES1   0.0000
     2 C2      -0.1290   8.6680  13.6850   C.2       1 RES1   0.0000
     3 N3      -0.5370   9.5710  14.5560   N.2       1 RES1   0.0000
     4 C4      -1.7240   9.3850  15.1360   C.2       1 RES1   0.0000
     5 N5      -2.5880   8.3860  14.9790   N.2       1 RES1   0.0000
     6 C6      -2.1190   7.5100  14.0890   C.2       1 RES1   0.0000
     7 C7      -0.9250   7.5600  13.4110   C.2       1 RES1   0.0000
     8 N8      -0.7820   6.4440  12.5980   N.2       1 RES1   0.0000
     9 C9      -1.8660   5.7570  12.8100   C.2       1 RES1   0.0000
    10 N10     -2.7230   6.3490  13.6850   N.pl3     1 RES1   0.0000
    11 C11     -4.0420   5.8540  14.1020   C.3       1 RES1   0.0000
    12 O12     -3.8116   4.9371  15.1773   O.3       1 RES1   0.0000
    13 C13     -4.6603   3.7644  15.0328   C.3       1 RES1   0.0000
    14 C14     -3.8042   2.5677  15.4114   C.3       1 RES1   0.0000
    15 O15     -2.7289   2.3716  14.4787   O.3       1 RES1   0.0000
    16 S16     -1.3691   1.7177  15.0180   S.o2      1 RES1   0.0000
    17 N17     -1.7366   0.2494  15.4273   N.3       1 RES1   0.0000
    18 O18     -0.5919   1.7831  13.8359   O.2       1 RES1   0.0000
    19 O19     -0.9478   2.4363  16.1599   O.2       1 RES1   0.0000
    20 C20     -5.1202   3.7374  13.5999   C.3       1 RES1   0.0000
    21 O21     -6.5111   3.3697  13.6064   O.3       1 RES1   0.0000
    22 C22     -4.8527   5.1418  13.0656   C.3       1 RES1   0.0000
    23 O23     -6.1084   5.7869  12.8762   O.3       1 RES1   0.0000
@<TRIPOS>BOND
     1     1     2    1
     2     2     3    2
     3     3     4    1
     4     4     5    2
     5     5     6    1
     6     6     7    2
     7     7     8    1
     8     8     9    2
     9     9    10    1
    10    11    10    1
    11    11    12    1
    12    12    13    1
    13    13    14    1
    14    14    15    1
    15    15    16    1
    16    16    17    1
    17    16    18    2
    18    16    19    2
    19    13    20    1
    20    20    21    1
    21    20    22    1
    22    22    23    1
    23     7     2    1
    24    22    11    1
    25    10     6    1
@<TRIPOS>SUBSTRUCTURE
     1 RES1        1 GROUP             0 ****  ****    0  
@<TRIPOS>MOLECULE
ligand_52
    23    25     1     0     0
SMALL
NO_CHARGES
****
Generated from the CSD

@<TRIPOS>ATOM
     1 N1       1.0920   8.8410  13.0810   N.pl3     1 RES1   0.0000
     2 C2      -0.1290   8.6680  13.6850   C.2       1 RES1   0.0000
     3 N3      -0.5370   9.5710  14.5560   N.2       1 RES1   0.0000
     4 C4      -1.7240   9.3850  15.1360   C.2       1 RES1   0.0000
     5 N5      -2.5880   8.3860  14.9790   N.2       1 RES1   0.0000
     6 C6      -2.1190   7.5100  14.0890   C.2       1 RES1   0.0000
     7 C7      -0.9250   7.5600  13.4110   C.2       1 RES1   0.0000
     8 N8      -0.7820   6.4440  12.5980   N.2       1 RES1   0.0000
     9 C9      -1.8660   5.7570  12.8100   C.2       1 RES1   0.0000
    10 N10     -2.7230   6.3490  13.6850   N.pl3     1 RES1   0.0000
    11 C11     -4.0420   5.8540  14.1020   C.3       1 RES1   0.0000
    12 O12     -4.1720   4.5215  13.6871   O.3       1 RES1   0.0000
    13 C13     -5.5418   4.2472  13.3124   C.3       1 RES1   0.0000
    14 C14     -5.5912   3.7192  11.8887   C.3       1 RES1   0.0000
    15 O15     -4.8740   2.4807  11.7598   O.3       1 RES1   0.0000
    16 S16     -4.1914   2.1448  10.3495   S.o2      1 RES1   0.0000
    17 N17     -5.3723   2.0121   9.3266   N.3       1 RES1   0.0000
    18 O18     -3.4337   3.3274  10.1676   O.2       1 RES1   0.0000
    19 O19     -3.5193   0.9063  10.4602   O.2       1 RES1   0.0000
    20 C20     -6.3010   5.5516  13.5415   C.3       1 RES1   0.0000
    21 O21     -6.8880   5.5327  14.8549   O.3       1 RES1   0.0000
    22 C22     -5.2086   6.6012  13.4686   C.3       1 RES1   0.0000
    23 O23     -5.4838   7.7659  14.2410   O.3       1 RES1   0.0000
@<TRIPOS>BOND
     1     1     2    1
     2     2     3    2
     3     3     4    1
     4     4     5    2
     5     5     6    1
     6     6     7    2
     7     7     8    1
     8     8     9    2
     9     9    10    1
    10    11    10    1
    11    11    12    1
    12    12    13    1
    13    13    14    1
    14    14    15    1
    15    15    16    1
    16    16    17    1
    17    16    18    2
    18    16    19    2
    19    13    20    1
    20    20    21    1
    21    20    22    1
    22    22    23    1
    23     7     2    1
    24    22    11    1
    25    10     6    1
@<TRIPOS>SUBSTRUCTURE
     1 RES1        1 GROUP             0 ****  ****    0  
@<TRIPOS>MOLECULE
ligand_53
    23    25     1     0     0
SMALL
NO_CHARGES
****
Generated from the CSD

@<TRIPOS>ATOM
     1 N1       1.0868   8.8466  13.0711   N.pl3     1 RES1   0.0000
     2 C2      -0.1358   8.6756  13.6724   C.2       1 RES1   0.0000
     3 N3      -0.5495   9.5854  14.5335   N.2       1 RES1   0.0000
     4 C4      -1.7380   9.4013  15.1111   C.2       1 RES1   0.0000
     5 N5      -2.5985   8.3984  14.9604   N.2       1 RES1   0.0000
     6 C6      -2.1238   7.5155  14.0803   C.2       1 RES1   0.0000
     7 C7      -0.9276   7.5627  13.4060   C.2       1 RES1   0.0000
     8 N8      -0.7785   6.4396  12.6039   N.2       1 RES1   0.0000
     9 C9      -1.8612   5.7514  12.8185   C.2       1 RES1   0.0000
    10 N10     -2.7230   6.3490  13.6850   N.pl3     1 RES1   0.0000
    11 C11     -4.0420   5.8540  14.1020   C.3       1 RES1   0.0000
    12 O12     -4.1720   4.5215  13.6871   O.3       1 RES1   0.0000
    13 C13     -5.5418   4.2472  13.3124   C.3       1 RES1   0.0000
    14 C14     -5.5912   3.7192  11.8887   C.3       1 RES1   0.0000
    15 O15     -4.8761   2.4795  11.7603   O.3       1 RES1   0.0000
    16 S16     -4.2174   2.1292  10.3422   S.o2      1 RES1   0.0000
    17 N17     -3.0975   3.2031  10.1167   N.3       1 RES1   0.0000
    18 O18     -3.6990   0.8441  10.6349   O.2       1 RES1   0.0000
    19 O19     -5.2081   2.2608   9.3427   O.2       1 RES1   0.0000
    20 C20     -6.3010   5.5516  13.5415   C.3       1 RES1   0.0000
    21 O21     -6.8880   5.5327  14.8549   O.3       1 RES1   0.0000
    22 C22     -5.2086   6.6012  13.4686   C.3       1 RES1   0.0000
    23 O23     -5.4838   7.7659  14.2410   O.3       1 RES1   0.0000
@<TRIPOS>BOND
     1     1     2    1
     2     2     3    2
     3     3     4    1
     4     4     5    2
     5     5     6    1
     6     6     7    2
     7     7     8    1
     8     8     9    2
     9     9    10    1
    10    11    10    1
    11    11    12    1
    12    12    13    1
    13    13    14    1
    14    14    15    1
    15    15    16    1
    16    16    17    1
    17    16    18    2
    18    16    19    2
    19    13    20    1
    20    20    21    1
    21    20    22    1
    22    22    23    1
    23     7     2    1
    24    22    11    1
    25    10     6    1
@<TRIPOS>SUBSTRUCTURE
     1 RES1        1 GROUP             0 ****  ****    0  
@<TRIPOS>MOLECULE
ligand_54
    23    25     1     0     0
SMALL
NO_CHARGES
****
Generated from the CSD

@<TRIPOS>ATOM
     1 N1       1.0920   8.8410  13.0810   N.pl3     1 RES1   0.0000
     2 C2      -0.1290   8.6680  13.6850   C.2       1 RES1   0.0000
     3 N3      -0.5370   9.5710  14.5560   N.2       1 RES1   0.0000
     4 C4      -1.7240   9.3850  15.1360   C.2       1 RES1   0.0000
     5 N5      -2.5880   8.3860  14.9790   N.2       1 RES1   0.0000
     6 C6      -2.1190   7.5100  14.0890   C.2       1 RES1   0.0000
     7 C7      -0.9250   7.5600  13.4110   C.2       1 RES1   0.0000
     8 N8      -0.7820   6.4440  12.5980   N.2       1 RES1   0.0000
     9 C9      -1.8660   5.7570  12.8100   C.2       1 RES1   0.0000
    10 N10     -2.7230   6.3490  13.6850   N.pl3     1 RES1   0.0000
    11 C11     -4.0420   5.8540  14.1020   C.3       1 RES1   0.0000
    12 O12     -4.1720   4.5215  13.6871   O.3       1 RES1   0.0000
    13 C13     -5.5418   4.2472  13.3124   C.3       1 RES1   0.0000
    14 C14     -5.5912   3.7192  11.8887   C.3       1 RES1   0.0000
    15 O15     -4.8740   2.4807  11.7598   O.3       1 RES1   0.0000
    16 S16     -5.3698   1.4305  10.6557   S.o2      1 RES1   0.0000
    17 N17     -6.7876   0.9553  11.1275   N.3       1 RES1   0.0000
    18 O18     -5.4210   2.2836   9.5263   O.2       1 RES1   0.0000
    19 O19     -4.4800   0.3324  10.6496   O.2       1 RES1   0.0000
    20 C20     -6.3010   5.5516  13.5415   C.3       1 RES1   0.0000
    21 O21     -6.8880   5.5327  14.8549   O.3       1 RES1   0.0000
    22 C22     -5.2086   6.6012  13.4686   C.3       1 RES1   0.0000
    23 O23     -5.4838   7.7659  14.2410   O.3       1 RES1   0.0000
@<TRIPOS>BOND
     1     1     2    1
     2     2     3    2
     3     3     4    1
     4     4     5    2
     5     5     6    1
     6     6     7    2
     7     7     8    1
     8     8     9    2
     9     9    10    1
    10    11    10    1
    11    11    12    1
    12    12    13    1
    13    13    14    1
    14    14    15    1
    15    15    16    1
    16    16    17    1
    17    16    18    2
    18    16    19    2
    19    13    20    1
    20    20    21    1
    21    20    22    1
    22    22    23    1
    23     7     2    1
    24    22    11    1
    25    10     6    1
@<TRIPOS>SUBSTRUCTURE
     1 RES1        1 GROUP             0 ****  ****    0  
@<TRIPOS>MOLECULE
ligand_55
    23    25     1     0     0
SMALL
NO_CHARGES
****
Generated from the CSD

@<TRIPOS>ATOM
     1 N1       1.0920   8.8410  13.0810   N.pl3     1 RES1   0.0000
     2 C2      -0.1290   8.6680  13.6850   C.2       1 RES1   0.0000
     3 N3      -0.5370   9.5710  14.5560   N.2       1 RES1   0.0000
     4 C4      -1.7240   9.3850  15.1360   C.2       1 RES1   0.0000
     5 N5      -2.5880   8.3860  14.9790   N.2       1 RES1   0.0000
     6 C6      -2.1190   7.5100  14.0890   C.2       1 RES1   0.0000
     7 C7      -0.9250   7.5600  13.4110   C.2       1 RES1   0.0000
     8 N8      -0.7820   6.4440  12.5980   N.2       1 RES1   0.0000
     9 C9      -1.8660   5.7570  12.8100   C.2       1 RES1   0.0000
    10 N10     -2.7230   6.3490  13.6850   N.pl3     1 RES1   0.0000
    11 C11     -4.0420   5.8540  14.1020   C.3       1 RES1   0.0000
    12 O12     -4.1720   4.5215  13.6871   O.3       1 RES1   0.0000
    13 C13     -5.5418   4.2472  13.3124   C.3       1 RES1   0.0000
    14 C14     -5.5912   3.7192  11.8887   C.3       1 RES1   0.0000
    15 O15     -4.8740   2.4807  11.7598   O.3       1 RES1   0.0000
    16 S16     -5.3698   1.4305  10.6557   S.o2      1 RES1   0.0000
    17 N17     -5.1138   2.1179   9.2699   N.3       1 RES1   0.0000
    18 O18     -4.4701   0.3692  10.9202   O.2       1 RES1   0.0000
    19 O19     -6.7562   1.2176  10.8298   O.2       1 RES1   0.0000
    20 C20     -6.3010   5.5516  13.5415   C.3       1 RES1   0.0000
    21 O21     -6.8880   5.5327  14.8549   O.3       1 RES1   0.0000
    22 C22     -5.2086   6.6012  13.4686   C.3       1 RES1   0.0000
    23 O23     -5.4838   7.7659  14.2410   O.3       1 RES1   0.0000
@<TRIPOS>BOND
     1     1     2    1
     2     2     3    2
     3     3     4    1
     4     4     5    2
     5     5     6    1
     6     6     7    2
     7     7     8    1
     8     8     9    2
     9     9    10    1
    10    11    10    1
    11    11    12    1
    12    12    13    1
    13    13    14    1
    14    14    15    1
    15    15    16    1
    16    16    17    1
    17    16    18    2
    18    16    19    2
    19    13    20    1
    20    20    21    1
    21    20    22    1
    22    22    23    1
    23     7     2    1
    24    22    11    1
    25    10     6    1
@<TRIPOS>SUBSTRUCTURE
     1 RES1        1 GROUP             0 ****  ****    0  
@<TRIPOS>MOLECULE
ligand_56
    23    25     1     0     0
SMALL
NO_CHARGES
****
Generated from the CSD

@<TRIPOS>ATOM
     1 N1       1.0920   8.8410  13.0810   N.pl3     1 RES1   0.0000
     2 C2      -0.1290   8.6680  13.6850   C.2       1 RES1   0.0000
     3 N3      -0.5370   9.5710  14.5560   N.2       1 RES1   0.0000
     4 C4      -1.7240   9.3850  15.1360   C.2       1 RES1   0.0000
     5 N5      -2.5880   8.3860  14.9790   N.2       1 RES1   0.0000
     6 C6      -2.1190   7.5100  14.0890   C.2       1 RES1   0.0000
     7 C7      -0.9250   7.5600  13.4110   C.2       1 RES1   0.0000
     8 N8      -0.7820   6.4440  12.5980   N.2       1 RES1   0.0000
     9 C9      -1.8660   5.7570  12.8100   C.2       1 RES1   0.0000
    10 N10     -2.7230   6.3490  13.6850   N.pl3     1 RES1   0.0000
    11 C11     -4.0420   5.8540  14.1020   C.3       1 RES1   0.0000
    12 O12     -4.1720   4.5215  13.6871   O.3       1 RES1   0.0000
    13 C13     -5.5418   4.2472  13.3124   C.3       1 RES1   0.0000
    14 C14     -5.5912   3.7192  11.8887   C.3       1 RES1   0.0000
    15 O15     -5.1811   4.7181  10.9406   O.3       1 RES1   0.0000
    16 S16     -5.8145   4.6705   9.4695   S.o2      1 RES1   0.0000
    17 N17     -5.1743   5.8722   8.6920   N.3       1 RES1   0.0000
    18 O18     -5.3235   3.4124   9.0429   O.2       1 RES1   0.0000
    19 O19     -7.2105   4.8649   9.5757   O.2       1 RES1   0.0000
    20 C20     -6.3010   5.5516  13.5415   C.3       1 RES1   0.0000
    21 O21     -6.8880   5.5327  14.8549   O.3       1 RES1   0.0000
    22 C22     -5.2086   6.6012  13.4686   C.3       1 RES1   0.0000
    23 O23     -5.4838   7.7659  14.2410   O.3       1 RES1   0.0000
@<TRIPOS>BOND
     1     1     2    1
     2     2     3    2
     3     3     4    1
     4     4     5    2
     5     5     6    1
     6     6     7    2
     7     7     8    1
     8     8     9    2
     9     9    10    1
    10    11    10    1
    11    11    12    1
    12    12    13    1
    13    13    14    1
    14    14    15    1
    15    15    16    1
    16    16    17    1
    17    16    18    2
    18    16    19    2
    19    13    20    1
    20    20    21    1
    21    20    22    1
    22    22    23    1
    23     7     2    1
    24    22    11    1
    25    10     6    1
@<TRIPOS>SUBSTRUCTURE
     1 RES1        1 GROUP             0 ****  ****    0  
@<TRIPOS>MOLECULE
ligand_57
    23    25     1     0     0
SMALL
NO_CHARGES
****
Generated from the CSD

@<TRIPOS>ATOM
     1 N1       1.0920   8.8410  13.0810   N.pl3     1 RES1   0.0000
     2 C2      -0.1290   8.6680  13.6850   C.2       1 RES1   0.0000
     3 N3      -0.5370   9.5710  14.5560   N.2       1 RES1   0.0000
     4 C4      -1.7240   9.3850  15.1360   C.2       1 RES1   0.0000
     5 N5      -2.5880   8.3860  14.9790   N.2       1 RES1   0.0000
     6 C6      -2.1190   7.5100  14.0890   C.2       1 RES1   0.0000
     7 C7      -0.9250   7.5600  13.4110   C.2       1 RES1   0.0000
     8 N8      -0.7820   6.4440  12.5980   N.2       1 RES1   0.0000
     9 C9      -1.8660   5.7570  12.8100   C.2       1 RES1   0.0000
    10 N10     -2.7230   6.3490  13.6850   N.pl3     1 RES1   0.0000
    11 C11     -4.0420   5.8540  14.1020   C.3       1 RES1   0.0000
    12 O12     -4.1720   4.5215  13.6871   O.3       1 RES1   0.0000
    13 C13     -5.5418   4.2472  13.3124   C.3       1 RES1   0.0000
    14 C14     -5.5912   3.7192  11.8887   C.3       1 RES1   0.0000
    15 O15     -5.1811   4.7181  10.9406   O.3       1 RES1   0.0000
    16 S16     -4.4770   4.2319   9.5858   S.o2      1 RES1   0.0000
    17 N17     -4.1570   5.5385   8.7805   N.3       1 RES1   0.0000
    18 O18     -3.3204   3.6206  10.1285   O.2       1 RES1   0.0000
    19 O19     -5.3976   3.4419   8.8604   O.2       1 RES1   0.0000
    20 C20     -6.3010   5.5516  13.5415   C.3       1 RES1   0.0000
    21 O21     -6.8880   5.5327  14.8549   O.3       1 RES1   0.0000
    22 C22     -5.2086   6.6012  13.4686   C.3       1 RES1   0.0000
    23 O23     -5.4838   7.7659  14.2410   O.3       1 RES1   0.0000
@<TRIPOS>BOND
     1     1     2    1
     2     2     3    2
     3     3     4    1
     4     4     5    2
     5     5     6    1
     6     6     7    2
     7     7     8    1
     8     8     9    2
     9     9    10    1
    10    11    10    1
    11    11    12    1
    12    12    13    1
    13    13    14    1
    14    14    15    1
    15    15    16    1
    16    16    17    1
    17    16    18    2
    18    16    19    2
    19    13    20    1
    20    20    21    1
    21    20    22    1
    22    22    23    1
    23     7     2    1
    24    22    11    1
    25    10     6    1
@<TRIPOS>SUBSTRUCTURE
     1 RES1        1 GROUP             0 ****  ****    0  
@<TRIPOS>MOLECULE
ligand_58
    23    25     1     0     0
SMALL
NO_CHARGES
****
Generated from the CSD

@<TRIPOS>ATOM
     1 N1       1.0920   8.8410  13.0810   N.pl3     1 RES1   0.0000
     2 C2      -0.1290   8.6680  13.6850   C.2       1 RES1   0.0000
     3 N3      -0.5370   9.5710  14.5560   N.2       1 RES1   0.0000
     4 C4      -1.7240   9.3850  15.1360   C.2       1 RES1   0.0000
     5 N5      -2.5880   8.3860  14.9790   N.2       1 RES1   0.0000
     6 C6      -2.1190   7.5100  14.0890   C.2       1 RES1   0.0000
     7 C7      -0.9250   7.5600  13.4110   C.2       1 RES1   0.0000
     8 N8      -0.7820   6.4440  12.5980   N.2       1 RES1   0.0000
     9 C9      -1.8660   5.7570  12.8100   C.2       1 RES1   0.0000
    10 N10     -2.7230   6.3490  13.6850   N.pl3     1 RES1   0.0000
    11 C11     -4.0420   5.8540  14.1020   C.3       1 RES1   0.0000
    12 O12     -5.0123   6.6636  13.4289   O.3       1 RES1   0.0000
    13 C13     -6.0988   7.0079  14.3330   C.3       1 RES1   0.0000
    14 C14     -6.4455   8.4601  14.0515   C.3       1 RES1   0.0000
    15 O15     -6.8724   8.6470  12.6923   O.3       1 RES1   0.0000
    16 S16     -8.4434   8.7730  12.4031   S.o2      1 RES1   0.0000
    17 N17     -9.0507   7.3657  12.7334   N.3       1 RES1   0.0000
    18 O18     -8.7806   9.7588  13.3625   O.2       1 RES1   0.0000
    19 O19     -8.6255   9.0571  11.0305   O.2       1 RES1   0.0000
    20 C20     -5.5879   6.7782  15.7300   C.3       1 RES1   0.0000
    21 O21     -6.6493   6.1537  16.4738   O.3       1 RES1   0.0000
    22 C22     -4.3481   5.9034  15.5657   C.3       1 RES1   0.0000
    23 O23     -4.6578   4.6041  16.0605   O.3       1 RES1   0.0000
@<TRIPOS>BOND
     1     1     2    1
     2     2     3    2
     3     3     4    1
     4     4     5    2
     5     5     6    1
     6     6     7    2
     7     7     8    1
     8     8     9    2
     9     9    10    1
    10    11    10    1
    11    11    12    1
    12    12    13    1
    13    13    14    1
    14    14    15    1
    15    15    16    1
    16    16    17    1
    17    16    18    2
    18    16    19    2
    19    13    20    1
    20    20    21    1
    21    20    22    1
    22    22    23    1
    23     7     2    1
    24    22    11    1
    25    10     6    1
@<TRIPOS>SUBSTRUCTURE
     1 RES1        1 GROUP             0 ****  ****    0  
@<TRIPOS>MOLECULE
ligand_59
    23    25     1     0     0
SMALL
NO_CHARGES
****
Generated from the CSD

@<TRIPOS>ATOM
     1 N1       1.0920   8.8410  13.0810   N.pl3     1 RES1   0.0000
     2 C2      -0.1290   8.6680  13.6850   C.2       1 RES1   0.0000
     3 N3      -0.5370   9.5710  14.5560   N.2       1 RES1   0.0000
     4 C4      -1.7240   9.3850  15.1360   C.2       1 RES1   0.0000
     5 N5      -2.5880   8.3860  14.9790   N.2       1 RES1   0.0000
     6 C6      -2.1190   7.5100  14.0890   C.2       1 RES1   0.0000
     7 C7      -0.9250   7.5600  13.4110   C.2       1 RES1   0.0000
     8 N8      -0.7820   6.4440  12.5980   N.2       1 RES1   0.0000
     9 C9      -1.8660   5.7570  12.8100   C.2       1 RES1   0.0000
    10 N10     -2.7230   6.3490  13.6850   N.pl3     1 RES1   0.0000
    11 C11     -4.0420   5.8540  14.1020   C.3       1 RES1   0.0000
    12 O12     -5.0123   6.6636  13.4289   O.3       1 RES1   0.0000
    13 C13     -6.0988   7.0079  14.3330   C.3       1 RES1   0.0000
    14 C14     -6.4455   8.4601  14.0515   C.3       1 RES1   0.0000
    15 O15     -6.9040   8.6413  12.7018   O.3       1 RES1   0.0000
    16 S16     -8.4831   8.6223  12.4301   S.o2      1 RES1   0.0000
    17 N17     -9.0547   9.8887  13.1567   N.3       1 RES1   0.0000
    18 O18     -8.4802   8.7494  11.0195   O.2       1 RES1   0.0000
    19 O19     -9.0249   7.4555  13.0154   O.2       1 RES1   0.0000
    20 C20     -5.5879   6.7782  15.7300   C.3       1 RES1   0.0000
    21 O21     -6.6493   6.1537  16.4738   O.3       1 RES1   0.0000
    22 C22     -4.3481   5.9034  15.5657   C.3       1 RES1   0.0000
    23 O23     -4.6578   4.6041  16.0605   O.3       1 RES1   0.0000
@<TRIPOS>BOND
     1     1     2    1
     2     2     3    2
     3     3     4    1
     4     4     5    2
     5     5     6    1
     6     6     7    2
     7     7     8    1
     8     8     9    2
     9     9    10    1
    10    11    10    1
    11    11    12    1
    12    12    13    1
    13    13    14    1
    14    14    15    1
    15    15    16    1
    16    16    17    1
    17    16    18    2
    18    16    19    2
    19    13    20    1
    20    20    21    1
    21    20    22    1
    22    22    23    1
    23     7     2    1
    24    22    11    1
    25    10     6    1
@<TRIPOS>SUBSTRUCTURE
     1 RES1        1 GROUP             0 ****  ****    0  
@<TRIPOS>MOLECULE
ligand_60
    23    25     1     0     0
SMALL
NO_CHARGES
****
Generated from the CSD

@<TRIPOS>ATOM
     1 N1       1.0920   8.8410  13.0810   N.pl3     1 RES1   0.0000
     2 C2      -0.1290   8.6680  13.6850   C.2       1 RES1   0.0000
     3 N3      -0.5370   9.5710  14.5560   N.2       1 RES1   0.0000
     4 C4      -1.7240   9.3850  15.1360   C.2       1 RES1   0.0000
     5 N5      -2.5880   8.3860  14.9790   N.2       1 RES1   0.0000
     6 C6      -2.1190   7.5100  14.0890   C.2       1 RES1   0.0000
     7 C7      -0.9250   7.5600  13.4110   C.2       1 RES1   0.0000
     8 N8      -0.7820   6.4440  12.5980   N.2       1 RES1   0.0000
     9 C9      -1.8660   5.7570  12.8100   C.2       1 RES1   0.0000
    10 N10     -2.7230   6.3490  13.6850   N.pl3     1 RES1   0.0000
    11 C11     -4.0420   5.8540  14.1020   C.3       1 RES1   0.0000
    12 O12     -3.8404   4.5262  14.5983   O.3       1 RES1   0.0000
    13 C13     -4.9004   3.6455  14.1322   C.3       1 RES1   0.0000
    14 C14     -4.2341   2.3294  13.7689   C.3       1 RES1   0.0000
    15 O15     -5.2020   1.3255  13.4227   O.3       1 RES1   0.0000
    16 S16     -4.6699  -0.1290  13.0116   S.o2      1 RES1   0.0000
    17 N17     -3.8886   0.0686  11.6667   N.3       1 RES1   0.0000
    18 O18     -3.8172  -0.3871  14.1127   O.2       1 RES1   0.0000
    19 O19     -5.7851  -0.9693  12.7925   O.2       1 RES1   0.0000
    20 C20     -5.5457   4.3299  12.9573   C.3       1 RES1   0.0000
    21 O21     -6.9666   4.1439  13.0844   O.3       1 RES1   0.0000
    22 C22     -5.1008   5.7871  13.0469   C.3       1 RES1   0.0000
    23 O23     -6.2316   6.5703  13.4166   O.3       1 RES1   0.0000
@<TRIPOS>BOND
     1     1     2    1
     2     2     3    2
     3     3     4    1
     4     4     5    2
     5     5     6    1
     6     6     7    2
     7     7     8    1
     8     8     9    2
     9     9    10    1
    10    11    10    1
    11    11    12    1
    12    12    13    1
    13    13    14    1
    14    14    15    1
    15    15    16    1
    16    16    17    1
    17    16    18    2
    18    16    19    2
    19    13    20    1
    20    20    21    1
    21    20    22    1
    22    22    23    1
    23     7     2    1
    24    22    11    1
    25    10     6    1
@<TRIPOS>SUBSTRUCTURE
     1 RES1        1 GROUP             0 ****  ****    0  
@<TRIPOS>MOLECULE
ligand_61
    23    25     1     0     0
SMALL
NO_CHARGES
****
Generated from the CSD

@<TRIPOS>ATOM
     1 N1       1.0920   8.8410  13.0810   N.pl3     1 RES1   0.0000
     2 C2      -0.1290   8.6680  13.6850   C.2       1 RES1   0.0000
     3 N3      -0.5370   9.5710  14.5560   N.2       1 RES1   0.0000
     4 C4      -1.7240   9.3850  15.1360   C.2       1 RES1   0.0000
     5 N5      -2.5880   8.3860  14.9790   N.2       1 RES1   0.0000
     6 C6      -2.1190   7.5100  14.0890   C.2       1 RES1   0.0000
     7 C7      -0.9250   7.5600  13.4110   C.2       1 RES1   0.0000
     8 N8      -0.7820   6.4440  12.5980   N.2       1 RES1   0.0000
     9 C9      -1.8660   5.7570  12.8100   C.2       1 RES1   0.0000
    10 N10     -2.7230   6.3490  13.6850   N.pl3     1 RES1   0.0000
    11 C11     -4.0420   5.8540  14.1020   C.3       1 RES1   0.0000
    12 O12     -3.8404   4.5262  14.5983   O.3       1 RES1   0.0000
    13 C13     -4.9004   3.6455  14.1322   C.3       1 RES1   0.0000
    14 C14     -4.2341   2.3294  13.7689   C.3       1 RES1   0.0000
    15 O15     -5.2020   1.3255  13.4227   O.3       1 RES1   0.0000
    16 S16     -4.6699  -0.1290  13.0116   S.o2      1 RES1   0.0000
    17 N17     -4.0122  -0.7223  14.3054   N.3       1 RES1   0.0000
    18 O18     -5.9021  -0.7466  12.6858   O.2       1 RES1   0.0000
    19 O19     -3.6874   0.0203  12.0066   O.2       1 RES1   0.0000
    20 C20     -5.5457   4.3299  12.9573   C.3       1 RES1   0.0000
    21 O21     -6.9666   4.1439  13.0844   O.3       1 RES1   0.0000
    22 C22     -5.1008   5.7871  13.0469   C.3       1 RES1   0.0000
    23 O23     -6.2316   6.5703  13.4166   O.3       1 RES1   0.0000
@<TRIPOS>BOND
     1     1     2    1
     2     2     3    2
     3     3     4    1
     4     4     5    2
     5     5     6    1
     6     6     7    2
     7     7     8    1
     8     8     9    2
     9     9    10    1
    10    11    10    1
    11    11    12    1
    12    12    13    1
    13    13    14    1
    14    14    15    1
    15    15    16    1
    16    16    17    1
    17    16    18    2
    18    16    19    2
    19    13    20    1
    20    20    21    1
    21    20    22    1
    22    22    23    1
    23     7     2    1
    24    22    11    1
    25    10     6    1
@<TRIPOS>SUBSTRUCTURE
     1 RES1        1 GROUP             0 ****  ****    0  
@<TRIPOS>MOLECULE
ligand_62
    23    25     1     0     0
SMALL
NO_CHARGES
****
Generated from the CSD

@<TRIPOS>ATOM
     1 N1       1.0968   8.8358  13.0900   N.pl3     1 RES1   0.0000
     2 C2      -0.1227   8.6610  13.6964   C.2       1 RES1   0.0000
     3 N3      -0.5255   9.5576  14.5764   N.2       1 RES1   0.0000
     4 C4      -1.7112   9.3698  15.1586   C.2       1 RES1   0.0000
     5 N5      -2.5784   8.3745  14.9959   N.2       1 RES1   0.0000
     6 C6      -2.1146   7.5049  14.0969   C.2       1 RES1   0.0000
     7 C7      -0.9226   7.5575  13.4156   C.2       1 RES1   0.0000
     8 N8      -0.7852   6.4481  12.5926   N.2       1 RES1   0.0000
     9 C9      -1.8704   5.7622  12.8022   C.2       1 RES1   0.0000
    10 N10     -2.7230   6.3490  13.6850   N.pl3     1 RES1   0.0000
    11 C11     -4.0420   5.8540  14.1020   C.3       1 RES1   0.0000
    12 O12     -4.9072   6.9937  14.1530   O.3       1 RES1   0.0000
    13 C13     -5.7543   6.9333  15.3342   C.3       1 RES1   0.0000
    14 C14     -5.8247   8.3484  15.8826   C.3       1 RES1   0.0000
    15 O15     -6.4253   9.2509  14.9395   O.3       1 RES1   0.0000
    16 S16     -6.5788  10.7902  15.3572   S.o2      1 RES1   0.0000
    17 N17     -7.6023  10.8084  16.5449   N.3       1 RES1   0.0000
    18 O18     -5.2500  11.0555  15.7694   O.2       1 RES1   0.0000
    19 O19     -7.1144  11.5016  14.2596   O.2       1 RES1   0.0000
    20 C20     -5.1063   5.9597  16.2815   C.3       1 RES1   0.0000
    21 O21     -6.1563   5.1579  16.8513   O.3       1 RES1   0.0000
    22 C22     -4.1156   5.1699  15.4306   C.3       1 RES1   0.0000
    23 O23     -4.6167   3.8443  15.2885   O.3       1 RES1   0.0000
@<TRIPOS>BOND
     1     1     2    1
     2     2     3    2
     3     3     4    1
     4     4     5    2
     5     5     6    1
     6     6     7    2
     7     7     8    1
     8     8     9    2
     9     9    10    1
    10    11    10    1
    11    11    12    1
    12    12    13    1
    13    13    14    1
    14    14    15    1
    15    15    16    1
    16    16    17    1
    17    16    18    2
    18    16    19    2
    19    13    20    1
    20    20    21    1
    21    20    22    1
    22    22    23    1
    23     7     2    1
    24    22    11    1
    25    10     6    1
@<TRIPOS>SUBSTRUCTURE
     1 RES1        1 GROUP             0 ****  ****    0  
@<TRIPOS>MOLECULE
ligand_63
    23    25     1     0     0
SMALL
NO_CHARGES
****
Generated from the CSD

@<TRIPOS>ATOM
     1 N1       1.0968   8.8358  13.0900   N.pl3     1 RES1   0.0000
     2 C2      -0.1227   8.6610  13.6964   C.2       1 RES1   0.0000
     3 N3      -0.5255   9.5576  14.5764   N.2       1 RES1   0.0000
     4 C4      -1.7112   9.3698  15.1586   C.2       1 RES1   0.0000
     5 N5      -2.5784   8.3745  14.9959   N.2       1 RES1   0.0000
     6 C6      -2.1146   7.5049  14.0969   C.2       1 RES1   0.0000
     7 C7      -0.9226   7.5575  13.4156   C.2       1 RES1   0.0000
     8 N8      -0.7852   6.4481  12.5926   N.2       1 RES1   0.0000
     9 C9      -1.8704   5.7622  12.8022   C.2       1 RES1   0.0000
    10 N10     -2.7230   6.3490  13.6850   N.pl3     1 RES1   0.0000
    11 C11     -4.0420   5.8540  14.1020   C.3       1 RES1   0.0000
    12 O12     -4.9072   6.9937  14.1530   O.3       1 RES1   0.0000
    13 C13     -5.7543   6.9333  15.3342   C.3       1 RES1   0.0000
    14 C14     -5.8247   8.3484  15.8826   C.3       1 RES1   0.0000
    15 O15     -6.4253   9.2509  14.9395   O.3       1 RES1   0.0000
    16 S16     -6.5788  10.7902  15.3572   S.o2      1 RES1   0.0000
    17 N17     -5.1176  11.3460  15.4768   N.3       1 RES1   0.0000
    18 O18     -7.2627  11.2763  14.2162   O.2       1 RES1   0.0000
    19 O19     -7.2136  10.8516  16.6186   O.2       1 RES1   0.0000
    20 C20     -5.1063   5.9597  16.2815   C.3       1 RES1   0.0000
    21 O21     -6.1563   5.1579  16.8513   O.3       1 RES1   0.0000
    22 C22     -4.1156   5.1699  15.4306   C.3       1 RES1   0.0000
    23 O23     -4.6167   3.8443  15.2885   O.3       1 RES1   0.0000
@<TRIPOS>BOND
     1     1     2    1
     2     2     3    2
     3     3     4    1
     4     4     5    2
     5     5     6    1
     6     6     7    2
     7     7     8    1
     8     8     9    2
     9     9    10    1
    10    11    10    1
    11    11    12    1
    12    12    13    1
    13    13    14    1
    14    14    15    1
    15    15    16    1
    16    16    17    1
    17    16    18    2
    18    16    19    2
    19    13    20    1
    20    20    21    1
    21    20    22    1
    22    22    23    1
    23     7     2    1
    24    22    11    1
    25    10     6    1
@<TRIPOS>SUBSTRUCTURE
     1 RES1        1 GROUP             0 ****  ****    0  
@<TRIPOS>MOLECULE
ligand_64
    23    25     1     0     0
SMALL
NO_CHARGES
****
Generated from the CSD

@<TRIPOS>ATOM
     1 N1       1.0920   8.8410  13.0810   N.pl3     1 RES1   0.0000
     2 C2      -0.1290   8.6680  13.6850   C.2       1 RES1   0.0000
     3 N3      -0.5370   9.5710  14.5560   N.2       1 RES1   0.0000
     4 C4      -1.7240   9.3850  15.1360   C.2       1 RES1   0.0000
     5 N5      -2.5880   8.3860  14.9790   N.2       1 RES1   0.0000
     6 C6      -2.1190   7.5100  14.0890   C.2       1 RES1   0.0000
     7 C7      -0.9250   7.5600  13.4110   C.2       1 RES1   0.0000
     8 N8      -0.7820   6.4440  12.5980   N.2       1 RES1   0.0000
     9 C9      -1.8660   5.7570  12.8100   C.2       1 RES1   0.0000
    10 N10     -2.7230   6.3490  13.6850   N.pl3     1 RES1   0.0000
    11 C11     -4.0420   5.8540  14.1020   C.3       1 RES1   0.0000
    12 O12     -3.8674   4.9486  15.1577   O.3       1 RES1   0.0000
    13 C13     -4.8508   3.8912  15.0756   C.3       1 RES1   0.0000
    14 C14     -4.1545   2.5415  15.0350   C.3       1 RES1   0.0000
    15 O15     -3.3896   2.3780  13.8296   O.3       1 RES1   0.0000
    16 S16     -2.5673   1.0167  13.6337   S.o2      1 RES1   0.0000
    17 N17     -1.2494   1.1930  14.4646   N.3       1 RES1   0.0000
    18 O18     -3.4759   0.1061  14.2263   O.2       1 RES1   0.0000
    19 O19     -2.2486   0.8783  12.2637   O.2       1 RES1   0.0000
    20 C20     -5.7014   4.2135  13.8497   C.3       1 RES1   0.0000
    21 O21     -6.8606   4.9596  14.2613   O.3       1 RES1   0.0000
    22 C22     -4.7832   5.0858  13.0152   C.3       1 RES1   0.0000
    23 O23     -5.4760   6.0137  12.1859   O.3       1 RES1   0.0000
@<TRIPOS>BOND
     1     1     2    1
     2     2     3    2
     3     3     4    1
     4     4     5    2
     5     5     6    1
     6     6     7    2
     7     7     8    1
     8     8     9    2
     9     9    10    1
    10    11    10    1
    11    11    12    1
    12    12    13    1
    13    13    14    1
    14    14    15    1
    15    15    16    1
    16    16    17    1
    17    16    18    2
    18    16    19    2
    19    13    20    1
    20    20    21    1
    21    20    22    1
    22    22    23    1
    23     7     2    1
    24    22    11    1
    25    10     6    1
@<TRIPOS>SUBSTRUCTURE
     1 RES1        1 GROUP             0 ****  ****    0  
@<TRIPOS>MOLECULE
ligand_65
    23    25     1     0     0
SMALL
NO_CHARGES
****
Generated from the CSD

@<TRIPOS>ATOM
     1 N1       1.0550   8.8784  13.0085   N.pl3     1 RES1   0.0000
     2 C2      -0.1774   8.7192  13.5928   C.2       1 RES1   0.0000
     3 N3      -0.6258   9.6689  14.3912   N.2       1 RES1   0.0000
     4 C4      -1.8234   9.4959  14.9533   C.2       1 RES1   0.0000
     5 N5      -2.6626   8.4699  14.8426   N.2       1 RES1   0.0000
     6 C6      -2.1532   7.5472  14.0249   C.2       1 RES1   0.0000
     7 C7      -0.9434   7.5782  13.3743   C.2       1 RES1   0.0000
     8 N8      -0.7570   6.4141  12.6416   N.2       1 RES1   0.0000
     9 C9      -1.8320   5.7191  12.8727   C.2       1 RES1   0.0000
    10 N10     -2.7230   6.3490  13.6850   N.pl3     1 RES1   0.0000
    11 C11     -4.0420   5.8540  14.1020   C.3       1 RES1   0.0000
    12 O12     -5.0292   6.6193  13.4660   O.3       1 RES1   0.0000
    13 C13     -6.1702   6.7864  14.3391   C.3       1 RES1   0.0000
    14 C14     -6.4629   8.2652  14.5278   C.3       1 RES1   0.0000
    15 O15     -7.6719   8.4729  15.2760   O.3       1 RES1   0.0000
    16 S16     -7.7843   9.7894  16.1825   S.o2      1 RES1   0.0000
    17 N17     -9.1981   9.7216  16.8571   N.3       1 RES1   0.0000
    18 O18     -6.7266   9.5401  17.0909   O.2       1 RES1   0.0000
    19 O19     -7.7155  10.9217  15.3394   O.2       1 RES1   0.0000
    20 C20     -5.8238   6.0306  15.6194   C.3       1 RES1   0.0000
    21 O21     -6.3577   4.6970  15.5403   O.3       1 RES1   0.0000
    22 C22     -4.3078   5.9928  15.5955   C.3       1 RES1   0.0000
    23 O23     -3.7545   4.8661  16.2687   O.3       1 RES1   0.0000
@<TRIPOS>BOND
     1     1     2    1
     2     2     3    2
     3     3     4    1
     4     4     5    2
     5     5     6    1
     6     6     7    2
     7     7     8    1
     8     8     9    2
     9     9    10    1
    10    11    10    1
    11    11    12    1
    12    12    13    1
    13    13    14    1
    14    14    15    1
    15    15    16    1
    16    16    17    1
    17    16    18    2
    18    16    19    2
    19    13    20    1
    20    20    21    1
    21    20    22    1
    22    22    23    1
    23     7     2    1
    24    22    11    1
    25    10     6    1
@<TRIPOS>SUBSTRUCTURE
     1 RES1        1 GROUP             0 ****  ****    0  
@<TRIPOS>MOLECULE
ligand_66
    23    25     1     0     0
SMALL
NO_CHARGES
****
Generated from the CSD

@<TRIPOS>ATOM
     1 N1       1.0920   8.8410  13.0810   N.pl3     1 RES1   0.0000
     2 C2      -0.1290   8.6680  13.6850   C.2       1 RES1   0.0000
     3 N3      -0.5370   9.5710  14.5560   N.2       1 RES1   0.0000
     4 C4      -1.7240   9.3850  15.1360   C.2       1 RES1   0.0000
     5 N5      -2.5880   8.3860  14.9790   N.2       1 RES1   0.0000
     6 C6      -2.1190   7.5100  14.0890   C.2       1 RES1   0.0000
     7 C7      -0.9250   7.5600  13.4110   C.2       1 RES1   0.0000
     8 N8      -0.7820   6.4440  12.5980   N.2       1 RES1   0.0000
     9 C9      -1.8660   5.7570  12.8100   C.2       1 RES1   0.0000
    10 N10     -2.7230   6.3490  13.6850   N.pl3     1 RES1   0.0000
    11 C11     -4.0420   5.8540  14.1020   C.3       1 RES1   0.0000
    12 O12     -3.8404   4.5262  14.5983   O.3       1 RES1   0.0000
    13 C13     -4.9004   3.6455  14.1322   C.3       1 RES1   0.0000
    14 C14     -4.2341   2.3294  13.7689   C.3       1 RES1   0.0000
    15 O15     -3.6087   1.7214  14.9108   O.3       1 RES1   0.0000
    16 S16     -2.8561   0.3217  14.7057   S.o2      1 RES1   0.0000
    17 N17     -2.2911  -0.0678  16.1155   N.3       1 RES1   0.0000
    18 O18     -3.9547  -0.4801  14.3105   O.2       1 RES1   0.0000
    19 O19     -1.7856   0.5160  13.8035   O.2       1 RES1   0.0000
    20 C20     -5.5457   4.3299  12.9573   C.3       1 RES1   0.0000
    21 O21     -6.9666   4.1439  13.0844   O.3       1 RES1   0.0000
    22 C22     -5.1008   5.7871  13.0469   C.3       1 RES1   0.0000
    23 O23     -6.2316   6.5703  13.4166   O.3       1 RES1   0.0000
@<TRIPOS>BOND
     1     1     2    1
     2     2     3    2
     3     3     4    1
     4     4     5    2
     5     5     6    1
     6     6     7    2
     7     7     8    1
     8     8     9    2
     9     9    10    1
    10    11    10    1
    11    11    12    1
    12    12    13    1
    13    13    14    1
    14    14    15    1
    15    15    16    1
    16    16    17    1
    17    16    18    2
    18    16    19    2
    19    13    20    1
    20    20    21    1
    21    20    22    1
    22    22    23    1
    23     7     2    1
    24    22    11    1
    25    10     6    1
@<TRIPOS>SUBSTRUCTURE
     1 RES1        1 GROUP             0 ****  ****    0  
@<TRIPOS>MOLECULE
ligand_67
    23    25     1     0     0
SMALL
NO_CHARGES
****
Generated from the CSD

@<TRIPOS>ATOM
     1 N1       1.0920   8.8410  13.0810   N.pl3     1 RES1   0.0000
     2 C2      -0.1290   8.6680  13.6850   C.2       1 RES1   0.0000
     3 N3      -0.5370   9.5710  14.5560   N.2       1 RES1   0.0000
     4 C4      -1.7240   9.3850  15.1360   C.2       1 RES1   0.0000
     5 N5      -2.5880   8.3860  14.9790   N.2       1 RES1   0.0000
     6 C6      -2.1190   7.5100  14.0890   C.2       1 RES1   0.0000
     7 C7      -0.9250   7.5600  13.4110   C.2       1 RES1   0.0000
     8 N8      -0.7820   6.4440  12.5980   N.2       1 RES1   0.0000
     9 C9      -1.8660   5.7570  12.8100   C.2       1 RES1   0.0000
    10 N10     -2.7230   6.3490  13.6850   N.pl3     1 RES1   0.0000
    11 C11     -4.0420   5.8540  14.1020   C.3       1 RES1   0.0000
    12 O12     -4.1264   4.4956  13.6574   O.3       1 RES1   0.0000
    13 C13     -5.4438   4.2258  13.1024   C.3       1 RES1   0.0000
    14 C14     -5.2210   3.3618  11.8728   C.3       1 RES1   0.0000
    15 O15     -6.4647   2.9116  11.3114   O.3       1 RES1   0.0000
    16 S16     -6.4141   1.9856  10.0047   S.o2      1 RES1   0.0000
    17 N17     -7.9083   1.6708   9.6486   N.3       1 RES1   0.0000
    18 O18     -5.8095   2.8907   9.0986   O.2       1 RES1   0.0000
    19 O19     -5.7420   0.7857  10.3309   O.2       1 RES1   0.0000
    20 C20     -6.0617   5.5615  12.7869   C.3       1 RES1   0.0000
    21 O21     -7.4413   5.4978  13.1902   O.3       1 RES1   0.0000
    22 C22     -5.2347   6.5809  13.5656   C.3       1 RES1   0.0000
    23 O23     -6.0404   7.0815  14.6281   O.3       1 RES1   0.0000
@<TRIPOS>BOND
     1     1     2    1
     2     2     3    2
     3     3     4    1
     4     4     5    2
     5     5     6    1
     6     6     7    2
     7     7     8    1
     8     8     9    2
     9     9    10    1
    10    11    10    1
    11    11    12    1
    12    12    13    1
    13    13    14    1
    14    14    15    1
    15    15    16    1
    16    16    17    1
    17    16    18    2
    18    16    19    2
    19    13    20    1
    20    20    21    1
    21    20    22    1
    22    22    23    1
    23     7     2    1
    24    22    11    1
    25    10     6    1
@<TRIPOS>SUBSTRUCTURE
     1 RES1        1 GROUP             0 ****  ****    0  
@<TRIPOS>MOLECULE
ligand_68
    23    25     1     0     0
SMALL
NO_CHARGES
****
Generated from the CSD

@<TRIPOS>ATOM
     1 N1       1.0841   8.8494  13.0659   N.pl3     1 RES1   0.0000
     2 C2      -0.1393   8.6794  13.6659   C.2       1 RES1   0.0000
     3 N3      -0.5560   9.5928  14.5218   N.2       1 RES1   0.0000
     4 C4      -1.7452   9.4097  15.0981   C.2       1 RES1   0.0000
     5 N5      -2.6039   8.4047  14.9507   N.2       1 RES1   0.0000
     6 C6      -2.1263   7.5183  14.0757   C.2       1 RES1   0.0000
     7 C7      -0.9290   7.5641  13.4034   C.2       1 RES1   0.0000
     8 N8      -0.7767   6.4374  12.6070   N.2       1 RES1   0.0000
     9 C9      -1.8587   5.7486  12.8230   C.2       1 RES1   0.0000
    10 N10     -2.7230   6.3490  13.6850   N.pl3     1 RES1   0.0000
    11 C11     -4.0420   5.8540  14.1020   C.3       1 RES1   0.0000
    12 O12     -4.9276   6.9386  14.1666   O.3       1 RES1   0.0000
    13 C13     -5.8690   6.7499  15.2483   C.3       1 RES1   0.0000
    14 C14     -5.8135   7.9381  16.1934   C.3       1 RES1   0.0000
    15 O15     -4.5609   7.9967  16.8950   O.3       1 RES1   0.0000
    16 S16     -4.3321   9.1925  17.9367   S.o2      1 RES1   0.0000
    17 N17     -2.8942   8.9760  18.5233   N.3       1 RES1   0.0000
    18 O18     -4.4064  10.2942  17.0498   O.2       1 RES1   0.0000
    19 O19     -5.2882   9.0753  18.9711   O.2       1 RES1   0.0000
    20 C20     -5.5078   5.4080  15.8799   C.3       1 RES1   0.0000
    21 O21     -6.3160   4.3746  15.2894   O.3       1 RES1   0.0000
    22 C22     -4.0535   5.2260  15.4898   C.3       1 RES1   0.0000
    23 O23     -3.6581   3.8619  15.3817   O.3       1 RES1   0.0000
@<TRIPOS>BOND
     1     1     2    1
     2     2     3    2
     3     3     4    1
     4     4     5    2
     5     5     6    1
     6     6     7    2
     7     7     8    1
     8     8     9    2
     9     9    10    1
    10    11    10    1
    11    11    12    1
    12    12    13    1
    13    13    14    1
    14    14    15    1
    15    15    16    1
    16    16    17    1
    17    16    18    2
    18    16    19    2
    19    13    20    1
    20    20    21    1
    21    20    22    1
    22    22    23    1
    23     7     2    1
    24    22    11    1
    25    10     6    1
@<TRIPOS>SUBSTRUCTURE
     1 RES1        1 GROUP             0 ****  ****    0  
@<TRIPOS>MOLECULE
ligand_69
    23    25     1     0     0
SMALL
NO_CHARGES
****
Generated from the CSD

@<TRIPOS>ATOM
     1 N1       1.0920   8.8410  13.0810   N.pl3     1 RES1   0.0000
     2 C2      -0.1290   8.6680  13.6850   C.2       1 RES1   0.0000
     3 N3      -0.5370   9.5710  14.5560   N.2       1 RES1   0.0000
     4 C4      -1.7240   9.3850  15.1360   C.2       1 RES1   0.0000
     5 N5      -2.5880   8.3860  14.9790   N.2       1 RES1   0.0000
     6 C6      -2.1190   7.5100  14.0890   C.2       1 RES1   0.0000
     7 C7      -0.9250   7.5600  13.4110   C.2       1 RES1   0.0000
     8 N8      -0.7820   6.4440  12.5980   N.2       1 RES1   0.0000
     9 C9      -1.8660   5.7570  12.8100   C.2       1 RES1   0.0000
    10 N10     -2.7230   6.3490  13.6850   N.pl3     1 RES1   0.0000
    11 C11     -4.0420   5.8540  14.1020   C.3       1 RES1   0.0000
    12 O12     -3.8674   4.9486  15.1577   O.3       1 RES1   0.0000
    13 C13     -4.8508   3.8912  15.0756   C.3       1 RES1   0.0000
    14 C14     -4.1545   2.5415  15.0350   C.3       1 RES1   0.0000
    15 O15     -5.0976   1.4589  15.0929   O.3       1 RES1   0.0000
    16 S16     -4.5321  -0.0400  15.0603   S.o2      1 RES1   0.0000
    17 N17     -3.8918  -0.2220  13.6407   N.3       1 RES1   0.0000
    18 O18     -3.5675   0.0503  16.0935   O.2       1 RES1   0.0000
    19 O19     -5.6181  -0.9325  15.2081   O.2       1 RES1   0.0000
    20 C20     -5.7014   4.2135  13.8497   C.3       1 RES1   0.0000
    21 O21     -6.8606   4.9596  14.2613   O.3       1 RES1   0.0000
    22 C22     -4.7832   5.0858  13.0152   C.3       1 RES1   0.0000
    23 O23     -5.4760   6.0137  12.1859   O.3       1 RES1   0.0000
@<TRIPOS>BOND
     1     1     2    1
     2     2     3    2
     3     3     4    1
     4     4     5    2
     5     5     6    1
     6     6     7    2
     7     7     8    1
     8     8     9    2
     9     9    10    1
    10    11    10    1
    11    11    12    1
    12    12    13    1
    13    13    14    1
    14    14    15    1
    15    15    16    1
    16    16    17    1
    17    16    18    2
    18    16    19    2
    19    13    20    1
    20    20    21    1
    21    20    22    1
    22    22    23    1
    23     7     2    1
    24    22    11    1
    25    10     6    1
@<TRIPOS>SUBSTRUCTURE
     1 RES1        1 GROUP             0 ****  ****    0  
@<TRIPOS>MOLECULE
ligand_70
    23    25     1     0     0
SMALL
NO_CHARGES
****
Generated from the CSD

@<TRIPOS>ATOM
     1 N1       1.0920   8.8410  13.0810   N.pl3     1 RES1   0.0000
     2 C2      -0.1290   8.6680  13.6850   C.2       1 RES1   0.0000
     3 N3      -0.5370   9.5710  14.5560   N.2       1 RES1   0.0000
     4 C4      -1.7240   9.3850  15.1360   C.2       1 RES1   0.0000
     5 N5      -2.5880   8.3860  14.9790   N.2       1 RES1   0.0000
     6 C6      -2.1190   7.5100  14.0890   C.2       1 RES1   0.0000
     7 C7      -0.9250   7.5600  13.4110   C.2       1 RES1   0.0000
     8 N8      -0.7820   6.4440  12.5980   N.2       1 RES1   0.0000
     9 C9      -1.8660   5.7570  12.8100   C.2       1 RES1   0.0000
    10 N10     -2.7230   6.3490  13.6850   N.pl3     1 RES1   0.0000
    11 C11     -4.0420   5.8540  14.1020   C.3       1 RES1   0.0000
    12 O12     -3.8674   4.9486  15.1577   O.3       1 RES1   0.0000
    13 C13     -4.8508   3.8912  15.0756   C.3       1 RES1   0.0000
    14 C14     -4.1545   2.5415  15.0350   C.3       1 RES1   0.0000
    15 O15     -5.0976   1.4589  15.0929   O.3       1 RES1   0.0000
    16 S16     -4.5321  -0.0400  15.0603   S.o2      1 RES1   0.0000
    17 N17     -3.7259  -0.2193  16.3931   N.3       1 RES1   0.0000
    18 O18     -5.7559  -0.7528  15.0552   O.2       1 RES1   0.0000
    19 O19     -3.6573  -0.1655  13.9572   O.2       1 RES1   0.0000
    20 C20     -5.7014   4.2135  13.8497   C.3       1 RES1   0.0000
    21 O21     -6.8606   4.9596  14.2613   O.3       1 RES1   0.0000
    22 C22     -4.7832   5.0858  13.0152   C.3       1 RES1   0.0000
    23 O23     -5.4760   6.0137  12.1859   O.3       1 RES1   0.0000
@<TRIPOS>BOND
     1     1     2    1
     2     2     3    2
     3     3     4    1
     4     4     5    2
     5     5     6    1
     6     6     7    2
     7     7     8    1
     8     8     9    2
     9     9    10    1
    10    11    10    1
    11    11    12    1
    12    12    13    1
    13    13    14    1
    14    14    15    1
    15    15    16    1
    16    16    17    1
    17    16    18    2
    18    16    19    2
    19    13    20    1
    20    20    21    1
    21    20    22    1
    22    22    23    1
    23     7     2    1
    24    22    11    1
    25    10     6    1
@<TRIPOS>SUBSTRUCTURE
     1 RES1        1 GROUP             0 ****  ****    0  
@<TRIPOS>MOLECULE
ligand_71
    23    25     1     0     0
SMALL
NO_CHARGES
****
Generated from the CSD

@<TRIPOS>ATOM
     1 N1       1.0920   8.8410  13.0810   N.pl3     1 RES1   0.0000
     2 C2      -0.1290   8.6680  13.6850   C.2       1 RES1   0.0000
     3 N3      -0.5370   9.5710  14.5560   N.2       1 RES1   0.0000
     4 C4      -1.7240   9.3850  15.1360   C.2       1 RES1   0.0000
     5 N5      -2.5880   8.3860  14.9790   N.2       1 RES1   0.0000
     6 C6      -2.1190   7.5100  14.0890   C.2       1 RES1   0.0000
     7 C7      -0.9250   7.5600  13.4110   C.2       1 RES1   0.0000
     8 N8      -0.7820   6.4440  12.5980   N.2       1 RES1   0.0000
     9 C9      -1.8660   5.7570  12.8100   C.2       1 RES1   0.0000
    10 N10     -2.7230   6.3490  13.6850   N.pl3     1 RES1   0.0000
    11 C11     -4.0420   5.8540  14.1020   C.3       1 RES1   0.0000
    12 O12     -3.8953   4.5511  14.5975   O.3       1 RES1   0.0000
    13 C13     -5.0571   3.7568  14.2636   C.3       1 RES1   0.0000
    14 C14     -4.6306   2.5156  13.4984   C.3       1 RES1   0.0000
    15 O15     -3.7727   1.6767  14.2890   O.3       1 RES1   0.0000
    16 S16     -2.6762   0.7874  13.5311   S.o2      1 RES1   0.0000
    17 N17     -3.4857  -0.2204  12.6437   N.3       1 RES1   0.0000
    18 O18     -2.0360   1.7987  12.7739   O.2       1 RES1   0.0000
    19 O19     -1.9307   0.0746  14.4975   O.2       1 RES1   0.0000
    20 C20     -5.9914   4.6931  13.5016   C.3       1 RES1   0.0000
    21 O21     -6.9291   5.2780  14.4227   O.3       1 RES1   0.0000
    22 C22     -5.0500   5.7540  12.9643   C.3       1 RES1   0.0000
    23 O23     -5.6669   7.0248  12.7821   O.3       1 RES1   0.0000
@<TRIPOS>BOND
     1     1     2    1
     2     2     3    2
     3     3     4    1
     4     4     5    2
     5     5     6    1
     6     6     7    2
     7     7     8    1
     8     8     9    2
     9     9    10    1
    10    11    10    1
    11    11    12    1
    12    12    13    1
    13    13    14    1
    14    14    15    1
    15    15    16    1
    16    16    17    1
    17    16    18    2
    18    16    19    2
    19    13    20    1
    20    20    21    1
    21    20    22    1
    22    22    23    1
    23     7     2    1
    24    22    11    1
    25    10     6    1
@<TRIPOS>SUBSTRUCTURE
     1 RES1        1 GROUP             0 ****  ****    0  
@<TRIPOS>MOLECULE
ligand_72
    23    25     1     0     0
SMALL
NO_CHARGES
****
Generated from the CSD

@<TRIPOS>ATOM
     1 N1       1.0920   8.8410  13.0810   N.pl3     1 RES1   0.0000
     2 C2      -0.1290   8.6680  13.6850   C.2       1 RES1   0.0000
     3 N3      -0.5370   9.5710  14.5560   N.2       1 RES1   0.0000
     4 C4      -1.7240   9.3850  15.1360   C.2       1 RES1   0.0000
     5 N5      -2.5880   8.3860  14.9790   N.2       1 RES1   0.0000
     6 C6      -2.1190   7.5100  14.0890   C.2       1 RES1   0.0000
     7 C7      -0.9250   7.5600  13.4110   C.2       1 RES1   0.0000
     8 N8      -0.7820   6.4440  12.5980   N.2       1 RES1   0.0000
     9 C9      -1.8660   5.7570  12.8100   C.2       1 RES1   0.0000
    10 N10     -2.7230   6.3490  13.6850   N.pl3     1 RES1   0.0000
    11 C11     -4.0420   5.8540  14.1020   C.3       1 RES1   0.0000
    12 O12     -3.8953   4.5511  14.5975   O.3       1 RES1   0.0000
    13 C13     -5.0571   3.7568  14.2636   C.3       1 RES1   0.0000
    14 C14     -4.6306   2.5156  13.4984   C.3       1 RES1   0.0000
    15 O15     -3.7727   1.6767  14.2890   O.3       1 RES1   0.0000
    16 S16     -2.6755   0.7881  13.5311   S.o2      1 RES1   0.0000
    17 N17     -1.6659   1.8075  12.8987   N.3       1 RES1   0.0000
    18 O18     -2.1341   0.0892  14.6376   O.2       1 RES1   0.0000
    19 O19     -3.3190   0.0601  12.5046   O.2       1 RES1   0.0000
    20 C20     -5.9914   4.6931  13.5016   C.3       1 RES1   0.0000
    21 O21     -6.9291   5.2780  14.4227   O.3       1 RES1   0.0000
    22 C22     -5.0500   5.7540  12.9643   C.3       1 RES1   0.0000
    23 O23     -5.6669   7.0248  12.7821   O.3       1 RES1   0.0000
@<TRIPOS>BOND
     1     1     2    1
     2     2     3    2
     3     3     4    1
     4     4     5    2
     5     5     6    1
     6     6     7    2
     7     7     8    1
     8     8     9    2
     9     9    10    1
    10    11    10    1
    11    11    12    1
    12    12    13    1
    13    13    14    1
    14    14    15    1
    15    15    16    1
    16    16    17    1
    17    16    18    2
    18    16    19    2
    19    13    20    1
    20    20    21    1
    21    20    22    1
    22    22    23    1
    23     7     2    1
    24    22    11    1
    25    10     6    1
@<TRIPOS>SUBSTRUCTURE
     1 RES1        1 GROUP             0 ****  ****    0  
@<TRIPOS>MOLECULE
ligand_73
    23    25     1     0     0
SMALL
NO_CHARGES
****
Generated from the CSD

@<TRIPOS>ATOM
     1 N1       1.0920   8.8410  13.0810   N.pl3     1 RES1   0.0000
     2 C2      -0.1290   8.6680  13.6850   C.2       1 RES1   0.0000
     3 N3      -0.5370   9.5710  14.5560   N.2       1 RES1   0.0000
     4 C4      -1.7240   9.3850  15.1360   C.2       1 RES1   0.0000
     5 N5      -2.5880   8.3860  14.9790   N.2       1 RES1   0.0000
     6 C6      -2.1190   7.5100  14.0890   C.2       1 RES1   0.0000
     7 C7      -0.9250   7.5600  13.4110   C.2       1 RES1   0.0000
     8 N8      -0.7820   6.4440  12.5980   N.2       1 RES1   0.0000
     9 C9      -1.8660   5.7570  12.8100   C.2       1 RES1   0.0000
    10 N10     -2.7230   6.3490  13.6850   N.pl3     1 RES1   0.0000
    11 C11     -4.0420   5.8540  14.1020   C.3       1 RES1   0.0000
    12 O12     -3.8953   4.5511  14.5975   O.3       1 RES1   0.0000
    13 C13     -5.0571   3.7568  14.2636   C.3       1 RES1   0.0000
    14 C14     -4.6306   2.5156  13.4984   C.3       1 RES1   0.0000
    15 O15     -3.7727   1.6767  14.2890   O.3       1 RES1   0.0000
    16 S16     -3.8048   0.0969  14.0230   S.o2      1 RES1   0.0000
    17 N17     -5.2357  -0.3777  14.4536   N.3       1 RES1   0.0000
    18 O18     -3.6206   0.0912  12.6187   O.2       1 RES1   0.0000
    19 O19     -2.8343  -0.5166  14.8473   O.2       1 RES1   0.0000
    20 C20     -5.9914   4.6931  13.5016   C.3       1 RES1   0.0000
    21 O21     -6.9291   5.2780  14.4227   O.3       1 RES1   0.0000
    22 C22     -5.0500   5.7540  12.9643   C.3       1 RES1   0.0000
    23 O23     -5.6669   7.0248  12.7821   O.3       1 RES1   0.0000
@<TRIPOS>BOND
     1     1     2    1
     2     2     3    2
     3     3     4    1
     4     4     5    2
     5     5     6    1
     6     6     7    2
     7     7     8    1
     8     8     9    2
     9     9    10    1
    10    11    10    1
    11    11    12    1
    12    12    13    1
    13    13    14    1
    14    14    15    1
    15    15    16    1
    16    16    17    1
    17    16    18    2
    18    16    19    2
    19    13    20    1
    20    20    21    1
    21    20    22    1
    22    22    23    1
    23     7     2    1
    24    22    11    1
    25    10     6    1
@<TRIPOS>SUBSTRUCTURE
     1 RES1        1 GROUP             0 ****  ****    0  
@<TRIPOS>MOLECULE
ligand_74
    23    25     1     0     0
SMALL
NO_CHARGES
****
Generated from the CSD

@<TRIPOS>ATOM
     1 N1       1.0920   8.8410  13.0810   N.pl3     1 RES1   0.0000
     2 C2      -0.1290   8.6680  13.6850   C.2       1 RES1   0.0000
     3 N3      -0.5370   9.5710  14.5560   N.2       1 RES1   0.0000
     4 C4      -1.7240   9.3850  15.1360   C.2       1 RES1   0.0000
     5 N5      -2.5880   8.3860  14.9790   N.2       1 RES1   0.0000
     6 C6      -2.1190   7.5100  14.0890   C.2       1 RES1   0.0000
     7 C7      -0.9250   7.5600  13.4110   C.2       1 RES1   0.0000
     8 N8      -0.7820   6.4440  12.5980   N.2       1 RES1   0.0000
     9 C9      -1.8660   5.7570  12.8100   C.2       1 RES1   0.0000
    10 N10     -2.7230   6.3490  13.6850   N.pl3     1 RES1   0.0000
    11 C11     -4.0420   5.8540  14.1020   C.3       1 RES1   0.0000
    12 O12     -3.8953   4.5511  14.5975   O.3       1 RES1   0.0000
    13 C13     -5.0571   3.7568  14.2636   C.3       1 RES1   0.0000
    14 C14     -4.6306   2.5156  13.4984   C.3       1 RES1   0.0000
    15 O15     -3.7727   1.6767  14.2890   O.3       1 RES1   0.0000
    16 S16     -3.8048   0.0969  14.0230   S.o2      1 RES1   0.0000
    17 N17     -3.2355  -0.1021  12.5757   N.3       1 RES1   0.0000
    18 O18     -2.9077  -0.3296  15.0326   O.2       1 RES1   0.0000
    19 O19     -5.1488  -0.3383  14.0673   O.2       1 RES1   0.0000
    20 C20     -5.9914   4.6931  13.5016   C.3       1 RES1   0.0000
    21 O21     -6.9291   5.2780  14.4227   O.3       1 RES1   0.0000
    22 C22     -5.0500   5.7540  12.9643   C.3       1 RES1   0.0000
    23 O23     -5.6669   7.0248  12.7821   O.3       1 RES1   0.0000
@<TRIPOS>BOND
     1     1     2    1
     2     2     3    2
     3     3     4    1
     4     4     5    2
     5     5     6    1
     6     6     7    2
     7     7     8    1
     8     8     9    2
     9     9    10    1
    10    11    10    1
    11    11    12    1
    12    12    13    1
    13    13    14    1
    14    14    15    1
    15    15    16    1
    16    16    17    1
    17    16    18    2
    18    16    19    2
    19    13    20    1
    20    20    21    1
    21    20    22    1
    22    22    23    1
    23     7     2    1
    24    22    11    1
    25    10     6    1
@<TRIPOS>SUBSTRUCTURE
     1 RES1        1 GROUP             0 ****  ****    0  
@<TRIPOS>MOLECULE
ligand_75
    23    25     1     0     0
SMALL
NO_CHARGES
****
Generated from the CSD

@<TRIPOS>ATOM
     1 N1       1.0920   8.8410  13.0810   N.pl3     1 RES1   0.0000
     2 C2      -0.1290   8.6680  13.6850   C.2       1 RES1   0.0000
     3 N3      -0.5370   9.5710  14.5560   N.2       1 RES1   0.0000
     4 C4      -1.7240   9.3850  15.1360   C.2       1 RES1   0.0000
     5 N5      -2.5880   8.3860  14.9790   N.2       1 RES1   0.0000
     6 C6      -2.1190   7.5100  14.0890   C.2       1 RES1   0.0000
     7 C7      -0.9250   7.5600  13.4110   C.2       1 RES1   0.0000
     8 N8      -0.7820   6.4440  12.5980   N.2       1 RES1   0.0000
     9 C9      -1.8660   5.7570  12.8100   C.2       1 RES1   0.0000
    10 N10     -2.7230   6.3490  13.6850   N.pl3     1 RES1   0.0000
    11 C11     -4.0420   5.8540  14.1020   C.3       1 RES1   0.0000
    12 O12     -3.8953   4.5511  14.5975   O.3       1 RES1   0.0000
    13 C13     -5.0571   3.7568  14.2636   C.3       1 RES1   0.0000
    14 C14     -4.6306   2.5156  13.4984   C.3       1 RES1   0.0000
    15 O15     -4.0773   2.8505  12.2152   O.3       1 RES1   0.0000
    16 S16     -4.2459   1.7967  11.0200   S.o2      1 RES1   0.0000
    17 N17     -3.5463   2.4481   9.7771   N.3       1 RES1   0.0000
    18 O18     -3.5140   0.7107  11.5593   O.2       1 RES1   0.0000
    19 O19     -5.6250   1.6344  10.7562   O.2       1 RES1   0.0000
    20 C20     -5.9914   4.6931  13.5016   C.3       1 RES1   0.0000
    21 O21     -6.9291   5.2780  14.4227   O.3       1 RES1   0.0000
    22 C22     -5.0500   5.7540  12.9643   C.3       1 RES1   0.0000
    23 O23     -5.6669   7.0248  12.7821   O.3       1 RES1   0.0000
@<TRIPOS>BOND
     1     1     2    1
     2     2     3    2
     3     3     4    1
     4     4     5    2
     5     5     6    1
     6     6     7    2
     7     7     8    1
     8     8     9    2
     9     9    10    1
    10    11    10    1
    11    11    12    1
    12    12    13    1
    13    13    14    1
    14    14    15    1
    15    15    16    1
    16    16    17    1
    17    16    18    2
    18    16    19    2
    19    13    20    1
    20    20    21    1
    21    20    22    1
    22    22    23    1
    23     7     2    1
    24    22    11    1
    25    10     6    1
@<TRIPOS>SUBSTRUCTURE
     1 RES1        1 GROUP             0 ****  ****    0  
@<TRIPOS>MOLECULE
ligand_76
    23    25     1     0     0
SMALL
NO_CHARGES
****
Generated from the CSD

@<TRIPOS>ATOM
     1 N1       1.0920   8.8410  13.0810   N.pl3     1 RES1   0.0000
     2 C2      -0.1290   8.6680  13.6850   C.2       1 RES1   0.0000
     3 N3      -0.5370   9.5710  14.5560   N.2       1 RES1   0.0000
     4 C4      -1.7240   9.3850  15.1360   C.2       1 RES1   0.0000
     5 N5      -2.5880   8.3860  14.9790   N.2       1 RES1   0.0000
     6 C6      -2.1190   7.5100  14.0890   C.2       1 RES1   0.0000
     7 C7      -0.9250   7.5600  13.4110   C.2       1 RES1   0.0000
     8 N8      -0.7820   6.4440  12.5980   N.2       1 RES1   0.0000
     9 C9      -1.8660   5.7570  12.8100   C.2       1 RES1   0.0000
    10 N10     -2.7230   6.3490  13.6850   N.pl3     1 RES1   0.0000
    11 C11     -4.0420   5.8540  14.1020   C.3       1 RES1   0.0000
    12 O12     -3.8953   4.5511  14.5975   O.3       1 RES1   0.0000
    13 C13     -5.0571   3.7568  14.2636   C.3       1 RES1   0.0000
    14 C14     -4.6306   2.5156  13.4984   C.3       1 RES1   0.0000
    15 O15     -4.0773   2.8505  12.2152   O.3       1 RES1   0.0000
    16 S16     -2.9596   1.8829  11.5971   S.o2      1 RES1   0.0000
    17 N17     -2.5679   2.5136  10.2161   N.3       1 RES1   0.0000
    18 O18     -1.9499   2.0329  12.5788   O.2       1 RES1   0.0000
    19 O19     -3.5346   0.6084  11.3897   O.2       1 RES1   0.0000
    20 C20     -5.9914   4.6931  13.5016   C.3       1 RES1   0.0000
    21 O21     -6.9291   5.2780  14.4227   O.3       1 RES1   0.0000
    22 C22     -5.0500   5.7540  12.9643   C.3       1 RES1   0.0000
    23 O23     -5.6669   7.0248  12.7821   O.3       1 RES1   0.0000
@<TRIPOS>BOND
     1     1     2    1
     2     2     3    2
     3     3     4    1
     4     4     5    2
     5     5     6    1
     6     6     7    2
     7     7     8    1
     8     8     9    2
     9     9    10    1
    10    11    10    1
    11    11    12    1
    12    12    13    1
    13    13    14    1
    14    14    15    1
    15    15    16    1
    16    16    17    1
    17    16    18    2
    18    16    19    2
    19    13    20    1
    20    20    21    1
    21    20    22    1
    22    22    23    1
    23     7     2    1
    24    22    11    1
    25    10     6    1
@<TRIPOS>SUBSTRUCTURE
     1 RES1        1 GROUP             0 ****  ****    0  
@<TRIPOS>MOLECULE
ligand_77
    23    25     1     0     0
SMALL
NO_CHARGES
****
Generated from the CSD

@<TRIPOS>ATOM
     1 N1       1.0920   8.8410  13.0810   N.pl3     1 RES1   0.0000
     2 C2      -0.1290   8.6680  13.6850   C.2       1 RES1   0.0000
     3 N3      -0.5370   9.5710  14.5560   N.2       1 RES1   0.0000
     4 C4      -1.7240   9.3850  15.1360   C.2       1 RES1   0.0000
     5 N5      -2.5880   8.3860  14.9790   N.2       1 RES1   0.0000
     6 C6      -2.1190   7.5100  14.0890   C.2       1 RES1   0.0000
     7 C7      -0.9250   7.5600  13.4110   C.2       1 RES1   0.0000
     8 N8      -0.7820   6.4440  12.5980   N.2       1 RES1   0.0000
     9 C9      -1.8660   5.7570  12.8100   C.2       1 RES1   0.0000
    10 N10     -2.7230   6.3490  13.6850   N.pl3     1 RES1   0.0000
    11 C11     -4.0420   5.8540  14.1020   C.3       1 RES1   0.0000
    12 O12     -4.1720   4.5215  13.6871   O.3       1 RES1   0.0000
    13 C13     -5.5418   4.2472  13.3124   C.3       1 RES1   0.0000
    14 C14     -5.5912   3.7192  11.8887   C.3       1 RES1   0.0000
    15 O15     -6.9179   3.3040  11.5253   O.3       1 RES1   0.0000
    16 S16     -7.3521   3.4186   9.9871   S.o2      1 RES1   0.0000
    17 N17     -7.3756   4.9530   9.6653   N.3       1 RES1   0.0000
    18 O18     -6.2619   2.7447   9.3844   O.2       1 RES1   0.0000
    19 O19     -8.6536   2.8854   9.8474   O.2       1 RES1   0.0000
    20 C20     -6.3010   5.5516  13.5415   C.3       1 RES1   0.0000
    21 O21     -6.8880   5.5327  14.8549   O.3       1 RES1   0.0000
    22 C22     -5.2086   6.6012  13.4686   C.3       1 RES1   0.0000
    23 O23     -5.4838   7.7659  14.2410   O.3       1 RES1   0.0000
@<TRIPOS>BOND
     1     1     2    1
     2     2     3    2
     3     3     4    1
     4     4     5    2
     5     5     6    1
     6     6     7    2
     7     7     8    1
     8     8     9    2
     9     9    10    1
    10    11    10    1
    11    11    12    1
    12    12    13    1
    13    13    14    1
    14    14    15    1
    15    15    16    1
    16    16    17    1
    17    16    18    2
    18    16    19    2
    19    13    20    1
    20    20    21    1
    21    20    22    1
    22    22    23    1
    23     7     2    1
    24    22    11    1
    25    10     6    1
@<TRIPOS>SUBSTRUCTURE
     1 RES1        1 GROUP             0 ****  ****    0  
@<TRIPOS>MOLECULE
ligand_78
    23    25     1     0     0
SMALL
NO_CHARGES
****
Generated from the CSD

@<TRIPOS>ATOM
     1 N1       1.0920   8.8410  13.0810   N.pl3     1 RES1   0.0000
     2 C2      -0.1290   8.6680  13.6850   C.2       1 RES1   0.0000
     3 N3      -0.5370   9.5710  14.5560   N.2       1 RES1   0.0000
     4 C4      -1.7240   9.3850  15.1360   C.2       1 RES1   0.0000
     5 N5      -2.5880   8.3860  14.9790   N.2       1 RES1   0.0000
     6 C6      -2.1190   7.5100  14.0890   C.2       1 RES1   0.0000
     7 C7      -0.9250   7.5600  13.4110   C.2       1 RES1   0.0000
     8 N8      -0.7820   6.4440  12.5980   N.2       1 RES1   0.0000
     9 C9      -1.8660   5.7570  12.8100   C.2       1 RES1   0.0000
    10 N10     -2.7230   6.3490  13.6850   N.pl3     1 RES1   0.0000
    11 C11     -4.0420   5.8540  14.1020   C.3       1 RES1   0.0000
    12 O12     -4.1720   4.5215  13.6871   O.3       1 RES1   0.0000
    13 C13     -5.5418   4.2472  13.3124   C.3       1 RES1   0.0000
    14 C14     -5.5912   3.7192  11.8887   C.3       1 RES1   0.0000
    15 O15     -6.9179   3.3040  11.5253   O.3       1 RES1   0.0000
    16 S16     -7.3521   3.4186   9.9871   S.o2      1 RES1   0.0000
    17 N17     -6.4511   2.3946   9.2137   N.3       1 RES1   0.0000
    18 O18     -8.7006   2.9985  10.0917   O.2       1 RES1   0.0000
    19 O19     -7.0719   4.7293   9.5384   O.2       1 RES1   0.0000
    20 C20     -6.3010   5.5516  13.5415   C.3       1 RES1   0.0000
    21 O21     -6.8880   5.5327  14.8549   O.3       1 RES1   0.0000
    22 C22     -5.2086   6.6012  13.4686   C.3       1 RES1   0.0000
    23 O23     -5.4838   7.7659  14.2410   O.3       1 RES1   0.0000
@<TRIPOS>BOND
     1     1     2    1
     2     2     3    2
     3     3     4    1
     4     4     5    2
     5     5     6    1
     6     6     7    2
     7     7     8    1
     8     8     9    2
     9     9    10    1
    10    11    10    1
    11    11    12    1
    12    12    13    1
    13    13    14    1
    14    14    15    1
    15    15    16    1
    16    16    17    1
    17    16    18    2
    18    16    19    2
    19    13    20    1
    20    20    21    1
    21    20    22    1
    22    22    23    1
    23     7     2    1
    24    22    11    1
    25    10     6    1
@<TRIPOS>SUBSTRUCTURE
     1 RES1        1 GROUP             0 ****  ****    0  
@<TRIPOS>MOLECULE
ligand_79
    23    25     1     0     0
SMALL
NO_CHARGES
****
Generated from the CSD

@<TRIPOS>ATOM
     1 N1       1.0920   8.8410  13.0810   N.pl3     1 RES1   0.0000
     2 C2      -0.1290   8.6680  13.6850   C.2       1 RES1   0.0000
     3 N3      -0.5370   9.5710  14.5560   N.2       1 RES1   0.0000
     4 C4      -1.7240   9.3850  15.1360   C.2       1 RES1   0.0000
     5 N5      -2.5880   8.3860  14.9790   N.2       1 RES1   0.0000
     6 C6      -2.1190   7.5100  14.0890   C.2       1 RES1   0.0000
     7 C7      -0.9250   7.5600  13.4110   C.2       1 RES1   0.0000
     8 N8      -0.7820   6.4440  12.5980   N.2       1 RES1   0.0000
     9 C9      -1.8660   5.7570  12.8100   C.2       1 RES1   0.0000
    10 N10     -2.7230   6.3490  13.6850   N.pl3     1 RES1   0.0000
    11 C11     -4.0420   5.8540  14.1020   C.3       1 RES1   0.0000
    12 O12     -3.8116   4.9371  15.1773   O.3       1 RES1   0.0000
    13 C13     -4.6603   3.7644  15.0328   C.3       1 RES1   0.0000
    14 C14     -3.8042   2.5677  15.4114   C.3       1 RES1   0.0000
    15 O15     -3.3648   2.6439  16.7774   O.3       1 RES1   0.0000
    16 S16     -1.9620   1.9706  17.1597   S.o2      1 RES1   0.0000
    17 N17     -2.1430   0.4348  16.9006   N.3       1 RES1   0.0000
    18 O18     -1.1307   2.5982  16.2001   O.2       1 RES1   0.0000
    19 O19     -1.7172   2.1934  18.5338   O.2       1 RES1   0.0000
    20 C20     -5.1202   3.7374  13.5999   C.3       1 RES1   0.0000
    21 O21     -6.5111   3.3697  13.6064   O.3       1 RES1   0.0000
    22 C22     -4.8527   5.1418  13.0656   C.3       1 RES1   0.0000
    23 O23     -6.1084   5.7869  12.8762   O.3       1 RES1   0.0000
@<TRIPOS>BOND
     1     1     2    1
     2     2     3    2
     3     3     4    1
     4     4     5    2
     5     5     6    1
     6     6     7    2
     7     7     8    1
     8     8     9    2
     9     9    10    1
    10    11    10    1
    11    11    12    1
    12    12    13    1
    13    13    14    1
    14    14    15    1
    15    15    16    1
    16    16    17    1
    17    16    18    2
    18    16    19    2
    19    13    20    1
    20    20    21    1
    21    20    22    1
    22    22    23    1
    23     7     2    1
    24    22    11    1
    25    10     6    1
@<TRIPOS>SUBSTRUCTURE
     1 RES1        1 GROUP             0 ****  ****    0  
@<TRIPOS>MOLECULE
ligand_80
    23    25     1     0     0
SMALL
NO_CHARGES
****
Generated from the CSD

@<TRIPOS>ATOM
     1 N1       1.0920   8.8410  13.0810   N.pl3     1 RES1   0.0000
     2 C2      -0.1290   8.6680  13.6850   C.2       1 RES1   0.0000
     3 N3      -0.5370   9.5710  14.5560   N.2       1 RES1   0.0000
     4 C4      -1.7240   9.3850  15.1360   C.2       1 RES1   0.0000
     5 N5      -2.5880   8.3860  14.9790   N.2       1 RES1   0.0000
     6 C6      -2.1190   7.5100  14.0890   C.2       1 RES1   0.0000
     7 C7      -0.9250   7.5600  13.4110   C.2       1 RES1   0.0000
     8 N8      -0.7820   6.4440  12.5980   N.2       1 RES1   0.0000
     9 C9      -1.8660   5.7570  12.8100   C.2       1 RES1   0.0000
    10 N10     -2.7230   6.3490  13.6850   N.pl3     1 RES1   0.0000
    11 C11     -4.0420   5.8540  14.1020   C.3       1 RES1   0.0000
    12 O12     -3.8116   4.9371  15.1773   O.3       1 RES1   0.0000
    13 C13     -4.6603   3.7644  15.0328   C.3       1 RES1   0.0000
    14 C14     -3.8042   2.5677  15.4114   C.3       1 RES1   0.0000
    15 O15     -3.3648   2.6439  16.7774   O.3       1 RES1   0.0000
    16 S16     -1.9615   1.9714  17.1595   S.o2      1 RES1   0.0000
    17 N17     -0.8703   2.8061  16.4039   N.3       1 RES1   0.0000
    18 O18     -1.9634   2.2018  18.5570   O.2       1 RES1   0.0000
    19 O19     -1.9563   0.6415  16.6808   O.2       1 RES1   0.0000
    20 C20     -5.1202   3.7374  13.5999   C.3       1 RES1   0.0000
    21 O21     -6.5111   3.3697  13.6064   O.3       1 RES1   0.0000
    22 C22     -4.8527   5.1418  13.0656   C.3       1 RES1   0.0000
    23 O23     -6.1084   5.7869  12.8762   O.3       1 RES1   0.0000
@<TRIPOS>BOND
     1     1     2    1
     2     2     3    2
     3     3     4    1
     4     4     5    2
     5     5     6    1
     6     6     7    2
     7     7     8    1
     8     8     9    2
     9     9    10    1
    10    11    10    1
    11    11    12    1
    12    12    13    1
    13    13    14    1
    14    14    15    1
    15    15    16    1
    16    16    17    1
    17    16    18    2
    18    16    19    2
    19    13    20    1
    20    20    21    1
    21    20    22    1
    22    22    23    1
    23     7     2    1
    24    22    11    1
    25    10     6    1
@<TRIPOS>SUBSTRUCTURE
     1 RES1        1 GROUP             0 ****  ****    0  
@<TRIPOS>MOLECULE
ligand_81
    23    25     1     0     0
SMALL
NO_CHARGES
****
Generated from the CSD

@<TRIPOS>ATOM
     1 N1       1.0920   8.8410  13.0810   N.pl3     1 RES1   0.0000
     2 C2      -0.1290   8.6680  13.6850   C.2       1 RES1   0.0000
     3 N3      -0.5370   9.5710  14.5560   N.2       1 RES1   0.0000
     4 C4      -1.7240   9.3850  15.1360   C.2       1 RES1   0.0000
     5 N5      -2.5880   8.3860  14.9790   N.2       1 RES1   0.0000
     6 C6      -2.1190   7.5100  14.0890   C.2       1 RES1   0.0000
     7 C7      -0.9250   7.5600  13.4110   C.2       1 RES1   0.0000
     8 N8      -0.7820   6.4440  12.5980   N.2       1 RES1   0.0000
     9 C9      -1.8660   5.7570  12.8100   C.2       1 RES1   0.0000
    10 N10     -2.7230   6.3490  13.6850   N.pl3     1 RES1   0.0000
    11 C11     -4.0420   5.8540  14.1020   C.3       1 RES1   0.0000
    12 O12     -3.8116   4.9371  15.1773   O.3       1 RES1   0.0000
    13 C13     -4.6603   3.7644  15.0328   C.3       1 RES1   0.0000
    14 C14     -3.8042   2.5677  15.4114   C.3       1 RES1   0.0000
    15 O15     -3.3648   2.6439  16.7774   O.3       1 RES1   0.0000
    16 S16     -3.1187   1.2737  17.5707   S.o2      1 RES1   0.0000
    17 N17     -4.5285   0.6004  17.7038   N.3       1 RES1   0.0000
    18 O18     -2.2767   0.6130  16.6431   O.2       1 RES1   0.0000
    19 O19     -2.6184   1.5831  18.8559   O.2       1 RES1   0.0000
    20 C20     -5.1202   3.7374  13.5999   C.3       1 RES1   0.0000
    21 O21     -6.5111   3.3697  13.6064   O.3       1 RES1   0.0000
    22 C22     -4.8527   5.1418  13.0656   C.3       1 RES1   0.0000
    23 O23     -6.1084   5.7869  12.8762   O.3       1 RES1   0.0000
@<TRIPOS>BOND
     1     1     2    1
     2     2     3    2
     3     3     4    1
     4     4     5    2
     5     5     6    1
     6     6     7    2
     7     7     8    1
     8     8     9    2
     9     9    10    1
    10    11    10    1
    11    11    12    1
    12    12    13    1
    13    13    14    1
    14    14    15    1
    15    15    16    1
    16    16    17    1
    17    16    18    2
    18    16    19    2
    19    13    20    1
    20    20    21    1
    21    20    22    1
    22    22    23    1
    23     7     2    1
    24    22    11    1
    25    10     6    1
@<TRIPOS>SUBSTRUCTURE
     1 RES1        1 GROUP             0 ****  ****    0  
@<TRIPOS>MOLECULE
ligand_82
    23    25     1     0     0
SMALL
NO_CHARGES
****
Generated from the CSD

@<TRIPOS>ATOM
     1 N1       1.0920   8.8410  13.0810   N.pl3     1 RES1   0.0000
     2 C2      -0.1290   8.6680  13.6850   C.2       1 RES1   0.0000
     3 N3      -0.5370   9.5710  14.5560   N.2       1 RES1   0.0000
     4 C4      -1.7240   9.3850  15.1360   C.2       1 RES1   0.0000
     5 N5      -2.5880   8.3860  14.9790   N.2       1 RES1   0.0000
     6 C6      -2.1190   7.5100  14.0890   C.2       1 RES1   0.0000
     7 C7      -0.9250   7.5600  13.4110   C.2       1 RES1   0.0000
     8 N8      -0.7820   6.4440  12.5980   N.2       1 RES1   0.0000
     9 C9      -1.8660   5.7570  12.8100   C.2       1 RES1   0.0000
    10 N10     -2.7230   6.3490  13.6850   N.pl3     1 RES1   0.0000
    11 C11     -4.0420   5.8540  14.1020   C.3       1 RES1   0.0000
    12 O12     -3.8116   4.9371  15.1773   O.3       1 RES1   0.0000
    13 C13     -4.6603   3.7644  15.0328   C.3       1 RES1   0.0000
    14 C14     -3.8042   2.5677  15.4114   C.3       1 RES1   0.0000
    15 O15     -3.3648   2.6439  16.7774   O.3       1 RES1   0.0000
    16 S16     -3.1187   1.2737  17.5707   S.o2      1 RES1   0.0000
    17 N17     -1.9032   0.5835  16.8602   N.3       1 RES1   0.0000
    18 O18     -2.7892   1.7961  18.8453   O.2       1 RES1   0.0000
    19 O19     -4.2691   0.4638  17.4347   O.2       1 RES1   0.0000
    20 C20     -5.1202   3.7374  13.5999   C.3       1 RES1   0.0000
    21 O21     -6.5111   3.3697  13.6064   O.3       1 RES1   0.0000
    22 C22     -4.8527   5.1418  13.0656   C.3       1 RES1   0.0000
    23 O23     -6.1084   5.7869  12.8762   O.3       1 RES1   0.0000
@<TRIPOS>BOND
     1     1     2    1
     2     2     3    2
     3     3     4    1
     4     4     5    2
     5     5     6    1
     6     6     7    2
     7     7     8    1
     8     8     9    2
     9     9    10    1
    10    11    10    1
    11    11    12    1
    12    12    13    1
    13    13    14    1
    14    14    15    1
    15    15    16    1
    16    16    17    1
    17    16    18    2
    18    16    19    2
    19    13    20    1
    20    20    21    1
    21    20    22    1
    22    22    23    1
    23     7     2    1
    24    22    11    1
    25    10     6    1
@<TRIPOS>SUBSTRUCTURE
     1 RES1        1 GROUP             0 ****  ****    0  
@<TRIPOS>MOLECULE
ligand_83
    23    25     1     0     0
SMALL
NO_CHARGES
****
Generated from the CSD

@<TRIPOS>ATOM
     1 N1       1.0920   8.8410  13.0810   N.pl3     1 RES1   0.0000
     2 C2      -0.1290   8.6680  13.6850   C.2       1 RES1   0.0000
     3 N3      -0.5370   9.5710  14.5560   N.2       1 RES1   0.0000
     4 C4      -1.7240   9.3850  15.1360   C.2       1 RES1   0.0000
     5 N5      -2.5880   8.3860  14.9790   N.2       1 RES1   0.0000
     6 C6      -2.1190   7.5100  14.0890   C.2       1 RES1   0.0000
     7 C7      -0.9250   7.5600  13.4110   C.2       1 RES1   0.0000
     8 N8      -0.7820   6.4440  12.5980   N.2       1 RES1   0.0000
     9 C9      -1.8660   5.7570  12.8100   C.2       1 RES1   0.0000
    10 N10     -2.7230   6.3490  13.6850   N.pl3     1 RES1   0.0000
    11 C11     -4.0420   5.8540  14.1020   C.3       1 RES1   0.0000
    12 O12     -3.8674   4.9486  15.1577   O.3       1 RES1   0.0000
    13 C13     -4.8508   3.8912  15.0756   C.3       1 RES1   0.0000
    14 C14     -4.1545   2.5415  15.0350   C.3       1 RES1   0.0000
    15 O15     -3.3940   2.3035  16.2307   O.3       1 RES1   0.0000
    16 S16     -2.5928   0.9214  16.3555   S.o2      1 RES1   0.0000
    17 N17     -1.8785   0.9687  17.7505   N.3       1 RES1   0.0000
    18 O18     -3.6808   0.0153  16.3229   O.2       1 RES1   0.0000
    19 O19     -1.6232   0.8707  15.3284   O.2       1 RES1   0.0000
    20 C20     -5.7014   4.2135  13.8497   C.3       1 RES1   0.0000
    21 O21     -6.8606   4.9596  14.2613   O.3       1 RES1   0.0000
    22 C22     -4.7832   5.0858  13.0152   C.3       1 RES1   0.0000
    23 O23     -5.4760   6.0137  12.1859   O.3       1 RES1   0.0000
@<TRIPOS>BOND
     1     1     2    1
     2     2     3    2
     3     3     4    1
     4     4     5    2
     5     5     6    1
     6     6     7    2
     7     7     8    1
     8     8     9    2
     9     9    10    1
    10    11    10    1
    11    11    12    1
    12    12    13    1
    13    13    14    1
    14    14    15    1
    15    15    16    1
    16    16    17    1
    17    16    18    2
    18    16    19    2
    19    13    20    1
    20    20    21    1
    21    20    22    1
    22    22    23    1
    23     7     2    1
    24    22    11    1
    25    10     6    1
@<TRIPOS>SUBSTRUCTURE
     1 RES1        1 GROUP             0 ****  ****    0  
@<TRIPOS>MOLECULE
ligand_84
    23    25     1     0     0
SMALL
NO_CHARGES
****
Generated from the CSD

@<TRIPOS>ATOM
     1 N1       1.1056   8.8261  13.1064   N.pl3     1 RES1   0.0000
     2 C2      -0.1112   8.6477  13.7172   C.2       1 RES1   0.0000
     3 N3      -0.5043   9.5324  14.6135   N.2       1 RES1   0.0000
     4 C4      -1.6875   9.3413  15.1997   C.2       1 RES1   0.0000
     5 N5      -2.5606   8.3530  15.0265   N.2       1 RES1   0.0000
     6 C6      -2.1064   7.4953  14.1114   C.2       1 RES1   0.0000
     7 C7      -0.9182   7.5527  13.4239   C.2       1 RES1   0.0000
     8 N8      -0.7912   6.4557  12.5829   N.2       1 RES1   0.0000
     9 C9      -1.8785   5.7719  12.7881   C.2       1 RES1   0.0000
    10 N10     -2.7230   6.3490  13.6850   N.pl3     1 RES1   0.0000
    11 C11     -4.0420   5.8540  14.1020   C.3       1 RES1   0.0000
    12 O12     -4.4675   4.8844  13.1835   O.3       1 RES1   0.0000
    13 C13     -5.9020   4.9547  13.0129   C.3       1 RES1   0.0000
    14 C14     -6.2376   5.1517  11.5443   C.3       1 RES1   0.0000
    15 O15     -5.7834   6.4281  11.0655   O.3       1 RES1   0.0000
    16 S16     -6.0560   6.8016   9.5313   S.o2      1 RES1   0.0000
    17 N17     -5.1956   5.7966   8.6898   N.3       1 RES1   0.0000
    18 O18     -7.4443   6.5289   9.4662   O.2       1 RES1   0.0000
    19 O19     -5.6018   8.1204   9.3032   O.2       1 RES1   0.0000
    20 C20     -6.3727   6.0753  13.9364   C.3       1 RES1   0.0000
    21 O21     -6.7715   5.5118  15.1986   O.3       1 RES1   0.0000
    22 C22     -5.1270   6.9232  14.1088   C.3       1 RES1   0.0000
    23 O23     -5.0788   7.6208  15.3497   O.3       1 RES1   0.0000
@<TRIPOS>BOND
     1     1     2    1
     2     2     3    2
     3     3     4    1
     4     4     5    2
     5     5     6    1
     6     6     7    2
     7     7     8    1
     8     8     9    2
     9     9    10    1
    10    11    10    1
    11    11    12    1
    12    12    13    1
    13    13    14    1
    14    14    15    1
    15    15    16    1
    16    16    17    1
    17    16    18    2
    18    16    19    2
    19    13    20    1
    20    20    21    1
    21    20    22    1
    22    22    23    1
    23     7     2    1
    24    22    11    1
    25    10     6    1
@<TRIPOS>SUBSTRUCTURE
     1 RES1        1 GROUP             0 ****  ****    0  
@<TRIPOS>MOLECULE
ligand_85
    23    25     1     0     0
SMALL
NO_CHARGES
****
Generated from the CSD

@<TRIPOS>ATOM
     1 N1       1.1056   8.8261  13.1064   N.pl3     1 RES1   0.0000
     2 C2      -0.1112   8.6477  13.7172   C.2       1 RES1   0.0000
     3 N3      -0.5043   9.5324  14.6135   N.2       1 RES1   0.0000
     4 C4      -1.6875   9.3413  15.1997   C.2       1 RES1   0.0000
     5 N5      -2.5606   8.3530  15.0265   N.2       1 RES1   0.0000
     6 C6      -2.1064   7.4953  14.1114   C.2       1 RES1   0.0000
     7 C7      -0.9182   7.5527  13.4239   C.2       1 RES1   0.0000
     8 N8      -0.7912   6.4557  12.5829   N.2       1 RES1   0.0000
     9 C9      -1.8785   5.7719  12.7881   C.2       1 RES1   0.0000
    10 N10     -2.7230   6.3490  13.6850   N.pl3     1 RES1   0.0000
    11 C11     -4.0420   5.8540  14.1020   C.3       1 RES1   0.0000
    12 O12     -4.4675   4.8844  13.1835   O.3       1 RES1   0.0000
    13 C13     -5.9020   4.9547  13.0129   C.3       1 RES1   0.0000
    14 C14     -6.2376   5.1517  11.5443   C.3       1 RES1   0.0000
    15 O15     -5.7834   6.4281  11.0655   O.3       1 RES1   0.0000
    16 S16     -6.0560   6.8016   9.5313   S.o2      1 RES1   0.0000
    17 N17     -7.6133   6.9208   9.3931   N.3       1 RES1   0.0000
    18 O18     -5.3991   8.0550   9.4743   O.2       1 RES1   0.0000
    19 O19     -5.5884   5.7416   8.7217   O.2       1 RES1   0.0000
    20 C20     -6.3727   6.0753  13.9364   C.3       1 RES1   0.0000
    21 O21     -6.7715   5.5118  15.1986   O.3       1 RES1   0.0000
    22 C22     -5.1270   6.9232  14.1088   C.3       1 RES1   0.0000
    23 O23     -5.0788   7.6208  15.3497   O.3       1 RES1   0.0000
@<TRIPOS>BOND
     1     1     2    1
     2     2     3    2
     3     3     4    1
     4     4     5    2
     5     5     6    1
     6     6     7    2
     7     7     8    1
     8     8     9    2
     9     9    10    1
    10    11    10    1
    11    11    12    1
    12    12    13    1
    13    13    14    1
    14    14    15    1
    15    15    16    1
    16    16    17    1
    17    16    18    2
    18    16    19    2
    19    13    20    1
    20    20    21    1
    21    20    22    1
    22    22    23    1
    23     7     2    1
    24    22    11    1
    25    10     6    1
@<TRIPOS>SUBSTRUCTURE
     1 RES1        1 GROUP             0 ****  ****    0  
@<TRIPOS>MOLECULE
ligand_86
    23    25     1     0     0
SMALL
NO_CHARGES
****
Generated from the CSD

@<TRIPOS>ATOM
     1 N1       1.0920   8.8410  13.0810   N.pl3     1 RES1   0.0000
     2 C2      -0.1290   8.6680  13.6850   C.2       1 RES1   0.0000
     3 N3      -0.5370   9.5710  14.5560   N.2       1 RES1   0.0000
     4 C4      -1.7240   9.3850  15.1360   C.2       1 RES1   0.0000
     5 N5      -2.5880   8.3860  14.9790   N.2       1 RES1   0.0000
     6 C6      -2.1190   7.5100  14.0890   C.2       1 RES1   0.0000
     7 C7      -0.9250   7.5600  13.4110   C.2       1 RES1   0.0000
     8 N8      -0.7820   6.4440  12.5980   N.2       1 RES1   0.0000
     9 C9      -1.8660   5.7570  12.8100   C.2       1 RES1   0.0000
    10 N10     -2.7230   6.3490  13.6850   N.pl3     1 RES1   0.0000
    11 C11     -4.0420   5.8540  14.1020   C.3       1 RES1   0.0000
    12 O12     -3.8116   4.9371  15.1773   O.3       1 RES1   0.0000
    13 C13     -4.6603   3.7644  15.0328   C.3       1 RES1   0.0000
    14 C14     -3.8042   2.5677  15.4114   C.3       1 RES1   0.0000
    15 O15     -2.7289   2.3716  14.4787   O.3       1 RES1   0.0000
    16 S16     -2.1972   0.8790  14.2397   S.o2      1 RES1   0.0000
    17 N17     -1.0432   1.0026  13.1855   N.3       1 RES1   0.0000
    18 O18     -1.7257   0.5861  15.5427   O.2       1 RES1   0.0000
    19 O19     -3.2517   0.1083  13.6994   O.2       1 RES1   0.0000
    20 C20     -5.1202   3.7374  13.5999   C.3       1 RES1   0.0000
    21 O21     -6.5111   3.3697  13.6064   O.3       1 RES1   0.0000
    22 C22     -4.8527   5.1418  13.0656   C.3       1 RES1   0.0000
    23 O23     -6.1084   5.7869  12.8762   O.3       1 RES1   0.0000
@<TRIPOS>BOND
     1     1     2    1
     2     2     3    2
     3     3     4    1
     4     4     5    2
     5     5     6    1
     6     6     7    2
     7     7     8    1
     8     8     9    2
     9     9    10    1
    10    11    10    1
    11    11    12    1
    12    12    13    1
    13    13    14    1
    14    14    15    1
    15    15    16    1
    16    16    17    1
    17    16    18    2
    18    16    19    2
    19    13    20    1
    20    20    21    1
    21    20    22    1
    22    22    23    1
    23     7     2    1
    24    22    11    1
    25    10     6    1
@<TRIPOS>SUBSTRUCTURE
     1 RES1        1 GROUP             0 ****  ****    0  
@<TRIPOS>MOLECULE
ligand_87
    23    25     1     0     0
SMALL
NO_CHARGES
****
Generated from the CSD

@<TRIPOS>ATOM
     1 N1       1.0920   8.8410  13.0810   N.pl3     1 RES1   0.0000
     2 C2      -0.1290   8.6680  13.6850   C.2       1 RES1   0.0000
     3 N3      -0.5370   9.5710  14.5560   N.2       1 RES1   0.0000
     4 C4      -1.7240   9.3850  15.1360   C.2       1 RES1   0.0000
     5 N5      -2.5880   8.3860  14.9790   N.2       1 RES1   0.0000
     6 C6      -2.1190   7.5100  14.0890   C.2       1 RES1   0.0000
     7 C7      -0.9250   7.5600  13.4110   C.2       1 RES1   0.0000
     8 N8      -0.7820   6.4440  12.5980   N.2       1 RES1   0.0000
     9 C9      -1.8660   5.7570  12.8100   C.2       1 RES1   0.0000
    10 N10     -2.7230   6.3490  13.6850   N.pl3     1 RES1   0.0000
    11 C11     -4.0420   5.8540  14.1020   C.3       1 RES1   0.0000
    12 O12     -3.8116   4.9371  15.1773   O.3       1 RES1   0.0000
    13 C13     -4.6603   3.7644  15.0328   C.3       1 RES1   0.0000
    14 C14     -3.8042   2.5677  15.4114   C.3       1 RES1   0.0000
    15 O15     -2.7289   2.3716  14.4787   O.3       1 RES1   0.0000
    16 S16     -1.3691   1.7177  15.0180   S.o2      1 RES1   0.0000
    17 N17     -0.4133   1.6405  13.7775   N.3       1 RES1   0.0000
    18 O18     -0.9841   2.7116  15.9506   O.2       1 RES1   0.0000
    19 O19     -1.6517   0.4122  15.4802   O.2       1 RES1   0.0000
    20 C20     -5.1202   3.7374  13.5999   C.3       1 RES1   0.0000
    21 O21     -6.5111   3.3697  13.6064   O.3       1 RES1   0.0000
    22 C22     -4.8527   5.1418  13.0656   C.3       1 RES1   0.0000
    23 O23     -6.1084   5.7869  12.8762   O.3       1 RES1   0.0000
@<TRIPOS>BOND
     1     1     2    1
     2     2     3    2
     3     3     4    1
     4     4     5    2
     5     5     6    1
     6     6     7    2
     7     7     8    1
     8     8     9    2
     9     9    10    1
    10    11    10    1
    11    11    12    1
    12    12    13    1
    13    13    14    1
    14    14    15    1
    15    15    16    1
    16    16    17    1
    17    16    18    2
    18    16    19    2
    19    13    20    1
    20    20    21    1
    21    20    22    1
    22    22    23    1
    23     7     2    1
    24    22    11    1
    25    10     6    1
@<TRIPOS>SUBSTRUCTURE
     1 RES1        1 GROUP             0 ****  ****    0  
@<TRIPOS>MOLECULE
ligand_88
    23    25     1     0     0
SMALL
NO_CHARGES
****
Generated from the CSD

@<TRIPOS>ATOM
     1 N1       1.0920   8.8410  13.0810   N.pl3     1 RES1   0.0000
     2 C2      -0.1290   8.6680  13.6850   C.2       1 RES1   0.0000
     3 N3      -0.5370   9.5710  14.5560   N.2       1 RES1   0.0000
     4 C4      -1.7240   9.3850  15.1360   C.2       1 RES1   0.0000
     5 N5      -2.5880   8.3860  14.9790   N.2       1 RES1   0.0000
     6 C6      -2.1190   7.5100  14.0890   C.2       1 RES1   0.0000
     7 C7      -0.9250   7.5600  13.4110   C.2       1 RES1   0.0000
     8 N8      -0.7820   6.4440  12.5980   N.2       1 RES1   0.0000
     9 C9      -1.8660   5.7570  12.8100   C.2       1 RES1   0.0000
    10 N10     -2.7230   6.3490  13.6850   N.pl3     1 RES1   0.0000
    11 C11     -4.0420   5.8540  14.1020   C.3       1 RES1   0.0000
    12 O12     -5.0123   6.6636  13.4289   O.3       1 RES1   0.0000
    13 C13     -6.0988   7.0079  14.3330   C.3       1 RES1   0.0000
    14 C14     -6.4455   8.4601  14.0515   C.3       1 RES1   0.0000
    15 O15     -7.6036   8.8793  14.7915   O.3       1 RES1   0.0000
    16 S16     -9.0287   8.8261  14.0608   S.o2      1 RES1   0.0000
    17 N17     -8.9564   9.8889  12.9103   N.3       1 RES1   0.0000
    18 O18     -8.9984   7.4930  13.5835   O.2       1 RES1   0.0000
    19 O19    -10.0241   9.2022  14.9910   O.2       1 RES1   0.0000
    20 C20     -5.5879   6.7782  15.7300   C.3       1 RES1   0.0000
    21 O21     -6.6493   6.1537  16.4738   O.3       1 RES1   0.0000
    22 C22     -4.3481   5.9034  15.5657   C.3       1 RES1   0.0000
    23 O23     -4.6578   4.6041  16.0605   O.3       1 RES1   0.0000
@<TRIPOS>BOND
     1     1     2    1
     2     2     3    2
     3     3     4    1
     4     4     5    2
     5     5     6    1
     6     6     7    2
     7     7     8    1
     8     8     9    2
     9     9    10    1
    10    11    10    1
    11    11    12    1
    12    12    13    1
    13    13    14    1
    14    14    15    1
    15    15    16    1
    16    16    17    1
    17    16    18    2
    18    16    19    2
    19    13    20    1
    20    20    21    1
    21    20    22    1
    22    22    23    1
    23     7     2    1
    24    22    11    1
    25    10     6    1
@<TRIPOS>SUBSTRUCTURE
     1 RES1        1 GROUP             0 ****  ****    0  
@<TRIPOS>MOLECULE
ligand_89
    23    25     1     0     0
SMALL
NO_CHARGES
****
Generated from the CSD

@<TRIPOS>ATOM
     1 N1       1.0920   8.8410  13.0810   N.pl3     1 RES1   0.0000
     2 C2      -0.1290   8.6680  13.6850   C.2       1 RES1   0.0000
     3 N3      -0.5370   9.5710  14.5560   N.2       1 RES1   0.0000
     4 C4      -1.7240   9.3850  15.1360   C.2       1 RES1   0.0000
     5 N5      -2.5880   8.3860  14.9790   N.2       1 RES1   0.0000
     6 C6      -2.1190   7.5100  14.0890   C.2       1 RES1   0.0000
     7 C7      -0.9250   7.5600  13.4110   C.2       1 RES1   0.0000
     8 N8      -0.7820   6.4440  12.5980   N.2       1 RES1   0.0000
     9 C9      -1.8660   5.7570  12.8100   C.2       1 RES1   0.0000
    10 N10     -2.7230   6.3490  13.6850   N.pl3     1 RES1   0.0000
    11 C11     -4.0420   5.8540  14.1020   C.3       1 RES1   0.0000
    12 O12     -5.0123   6.6636  13.4289   O.3       1 RES1   0.0000
    13 C13     -6.0988   7.0079  14.3330   C.3       1 RES1   0.0000
    14 C14     -6.4455   8.4601  14.0515   C.3       1 RES1   0.0000
    15 O15     -7.5856   8.8881  14.8142   O.3       1 RES1   0.0000
    16 S16     -9.0112   8.9325  14.0840   S.o2      1 RES1   0.0000
    17 N17     -9.4161   7.4358  13.8507   N.3       1 RES1   0.0000
    18 O18     -9.7753   9.5595  15.0984   O.2       1 RES1   0.0000
    19 O19     -8.8568   9.5811  12.8377   O.2       1 RES1   0.0000
    20 C20     -5.5879   6.7782  15.7300   C.3       1 RES1   0.0000
    21 O21     -6.6493   6.1537  16.4738   O.3       1 RES1   0.0000
    22 C22     -4.3481   5.9034  15.5657   C.3       1 RES1   0.0000
    23 O23     -4.6578   4.6041  16.0605   O.3       1 RES1   0.0000
@<TRIPOS>BOND
     1     1     2    1
     2     2     3    2
     3     3     4    1
     4     4     5    2
     5     5     6    1
     6     6     7    2
     7     7     8    1
     8     8     9    2
     9     9    10    1
    10    11    10    1
    11    11    12    1
    12    12    13    1
    13    13    14    1
    14    14    15    1
    15    15    16    1
    16    16    17    1
    17    16    18    2
    18    16    19    2
    19    13    20    1
    20    20    21    1
    21    20    22    1
    22    22    23    1
    23     7     2    1
    24    22    11    1
    25    10     6    1
@<TRIPOS>SUBSTRUCTURE
     1 RES1        1 GROUP             0 ****  ****    0  
@<TRIPOS>MOLECULE
ligand_90
    23    25     1     0     0
SMALL
NO_CHARGES
****
Generated from the CSD

@<TRIPOS>ATOM
     1 N1       1.0920   8.8410  13.0810   N.pl3     1 RES1   0.0000
     2 C2      -0.1290   8.6680  13.6850   C.2       1 RES1   0.0000
     3 N3      -0.5370   9.5710  14.5560   N.2       1 RES1   0.0000
     4 C4      -1.7240   9.3850  15.1360   C.2       1 RES1   0.0000
     5 N5      -2.5880   8.3860  14.9790   N.2       1 RES1   0.0000
     6 C6      -2.1190   7.5100  14.0890   C.2       1 RES1   0.0000
     7 C7      -0.9250   7.5600  13.4110   C.2       1 RES1   0.0000
     8 N8      -0.7820   6.4440  12.5980   N.2       1 RES1   0.0000
     9 C9      -1.8660   5.7570  12.8100   C.2       1 RES1   0.0000
    10 N10     -2.7230   6.3490  13.6850   N.pl3     1 RES1   0.0000
    11 C11     -4.0420   5.8540  14.1020   C.3       1 RES1   0.0000
    12 O12     -4.1720   4.5215  13.6871   O.3       1 RES1   0.0000
    13 C13     -5.5418   4.2472  13.3124   C.3       1 RES1   0.0000
    14 C14     -5.5912   3.7192  11.8887   C.3       1 RES1   0.0000
    15 O15     -4.8740   2.4807  11.7598   O.3       1 RES1   0.0000
    16 S16     -4.1906   2.1452  10.3498   S.o2      1 RES1   0.0000
    17 N17     -3.4997   0.7498  10.5337   N.3       1 RES1   0.0000
    18 O18     -5.3482   2.0852   9.5360   O.2       1 RES1   0.0000
    19 O19     -3.2103   3.1274  10.0815   O.2       1 RES1   0.0000
    20 C20     -6.3010   5.5516  13.5415   C.3       1 RES1   0.0000
    21 O21     -6.8880   5.5327  14.8549   O.3       1 RES1   0.0000
    22 C22     -5.2086   6.6012  13.4686   C.3       1 RES1   0.0000
    23 O23     -5.4838   7.7659  14.2410   O.3       1 RES1   0.0000
@<TRIPOS>BOND
     1     1     2    1
     2     2     3    2
     3     3     4    1
     4     4     5    2
     5     5     6    1
     6     6     7    2
     7     7     8    1
     8     8     9    2
     9     9    10    1
    10    11    10    1
    11    11    12    1
    12    12    13    1
    13    13    14    1
    14    14    15    1
    15    15    16    1
    16    16    17    1
    17    16    18    2
    18    16    19    2
    19    13    20    1
    20    20    21    1
    21    20    22    1
    22    22    23    1
    23     7     2    1
    24    22    11    1
    25    10     6    1
@<TRIPOS>SUBSTRUCTURE
     1 RES1        1 GROUP             0 ****  ****    0  
@<TRIPOS>MOLECULE
ligand_91
    23    25     1     0     0
SMALL
NO_CHARGES
****
Generated from the CSD

@<TRIPOS>ATOM
     1 N1       1.0920   8.8410  13.0810   N.pl3     1 RES1   0.0000
     2 C2      -0.1290   8.6680  13.6850   C.2       1 RES1   0.0000
     3 N3      -0.5370   9.5710  14.5560   N.2       1 RES1   0.0000
     4 C4      -1.7240   9.3850  15.1360   C.2       1 RES1   0.0000
     5 N5      -2.5880   8.3860  14.9790   N.2       1 RES1   0.0000
     6 C6      -2.1190   7.5100  14.0890   C.2       1 RES1   0.0000
     7 C7      -0.9250   7.5600  13.4110   C.2       1 RES1   0.0000
     8 N8      -0.7820   6.4440  12.5980   N.2       1 RES1   0.0000
     9 C9      -1.8660   5.7570  12.8100   C.2       1 RES1   0.0000
    10 N10     -2.7230   6.3490  13.6850   N.pl3     1 RES1   0.0000
    11 C11     -4.0420   5.8540  14.1020   C.3       1 RES1   0.0000
    12 O12     -4.1720   4.5215  13.6871   O.3       1 RES1   0.0000
    13 C13     -5.5418   4.2472  13.3124   C.3       1 RES1   0.0000
    14 C14     -5.5912   3.7192  11.8887   C.3       1 RES1   0.0000
    15 O15     -4.8740   2.4807  11.7598   O.3       1 RES1   0.0000
    16 S16     -5.3698   1.4305  10.6557   S.o2      1 RES1   0.0000
    17 N17     -4.3966   0.2062  10.7664   N.3       1 RES1   0.0000
    18 O18     -6.6644   1.1540  11.1591   O.2       1 RES1   0.0000
    19 O19     -5.2395   2.0255   9.3802   O.2       1 RES1   0.0000
    20 C20     -6.3010   5.5516  13.5415   C.3       1 RES1   0.0000
    21 O21     -6.8880   5.5327  14.8549   O.3       1 RES1   0.0000
    22 C22     -5.2086   6.6012  13.4686   C.3       1 RES1   0.0000
    23 O23     -5.4838   7.7659  14.2410   O.3       1 RES1   0.0000
@<TRIPOS>BOND
     1     1     2    1
     2     2     3    2
     3     3     4    1
     4     4     5    2
     5     5     6    1
     6     6     7    2
     7     7     8    1
     8     8     9    2
     9     9    10    1
    10    11    10    1
    11    11    12    1
    12    12    13    1
    13    13    14    1
    14    14    15    1
    15    15    16    1
    16    16    17    1
    17    16    18    2
    18    16    19    2
    19    13    20    1
    20    20    21    1
    21    20    22    1
    22    22    23    1
    23     7     2    1
    24    22    11    1
    25    10     6    1
@<TRIPOS>SUBSTRUCTURE
     1 RES1        1 GROUP             0 ****  ****    0  
@<TRIPOS>MOLECULE
ligand_92
    23    25     1     0     0
SMALL
NO_CHARGES
****
Generated from the CSD

@<TRIPOS>ATOM
     1 N1       1.0920   8.8410  13.0810   N.pl3     1 RES1   0.0000
     2 C2      -0.1290   8.6680  13.6850   C.2       1 RES1   0.0000
     3 N3      -0.5370   9.5710  14.5560   N.2       1 RES1   0.0000
     4 C4      -1.7240   9.3850  15.1360   C.2       1 RES1   0.0000
     5 N5      -2.5880   8.3860  14.9790   N.2       1 RES1   0.0000
     6 C6      -2.1190   7.5100  14.0890   C.2       1 RES1   0.0000
     7 C7      -0.9250   7.5600  13.4110   C.2       1 RES1   0.0000
     8 N8      -0.7820   6.4440  12.5980   N.2       1 RES1   0.0000
     9 C9      -1.8660   5.7570  12.8100   C.2       1 RES1   0.0000
    10 N10     -2.7230   6.3490  13.6850   N.pl3     1 RES1   0.0000
    11 C11     -4.0420   5.8540  14.1020   C.3       1 RES1   0.0000
    12 O12     -3.8674   4.9486  15.1577   O.3       1 RES1   0.0000
    13 C13     -4.8508   3.8912  15.0756   C.3       1 RES1   0.0000
    14 C14     -4.1545   2.5415  15.0350   C.3       1 RES1   0.0000
    15 O15     -3.3896   2.3780  13.8296   O.3       1 RES1   0.0000
    16 S16     -2.5831   1.0086  13.6249   S.o2      1 RES1   0.0000
    17 N17     -3.6252  -0.1382  13.8639   N.3       1 RES1   0.0000
    18 O18     -2.2210   1.1506  12.2630   O.2       1 RES1   0.0000
    19 O19     -1.5663   0.9363  14.6039   O.2       1 RES1   0.0000
    20 C20     -5.7014   4.2135  13.8497   C.3       1 RES1   0.0000
    21 O21     -6.8606   4.9596  14.2613   O.3       1 RES1   0.0000
    22 C22     -4.7832   5.0858  13.0152   C.3       1 RES1   0.0000
    23 O23     -5.4760   6.0137  12.1859   O.3       1 RES1   0.0000
@<TRIPOS>BOND
     1     1     2    1
     2     2     3    2
     3     3     4    1
     4     4     5    2
     5     5     6    1
     6     6     7    2
     7     7     8    1
     8     8     9    2
     9     9    10    1
    10    11    10    1
    11    11    12    1
    12    12    13    1
    13    13    14    1
    14    14    15    1
    15    15    16    1
    16    16    17    1
    17    16    18    2
    18    16    19    2
    19    13    20    1
    20    20    21    1
    21    20    22    1
    22    22    23    1
    23     7     2    1
    24    22    11    1
    25    10     6    1
@<TRIPOS>SUBSTRUCTURE
     1 RES1        1 GROUP             0 ****  ****    0  
@<TRIPOS>MOLECULE
ligand_93
    23    25     1     0     0
SMALL
NO_CHARGES
****
Generated from the CSD

@<TRIPOS>ATOM
     1 N1       1.0968   8.8358  13.0900   N.pl3     1 RES1   0.0000
     2 C2      -0.1227   8.6610  13.6964   C.2       1 RES1   0.0000
     3 N3      -0.5255   9.5576  14.5764   N.2       1 RES1   0.0000
     4 C4      -1.7112   9.3698  15.1586   C.2       1 RES1   0.0000
     5 N5      -2.5784   8.3745  14.9959   N.2       1 RES1   0.0000
     6 C6      -2.1146   7.5049  14.0969   C.2       1 RES1   0.0000
     7 C7      -0.9226   7.5575  13.4156   C.2       1 RES1   0.0000
     8 N8      -0.7852   6.4481  12.5926   N.2       1 RES1   0.0000
     9 C9      -1.8704   5.7622  12.8022   C.2       1 RES1   0.0000
    10 N10     -2.7230   6.3490  13.6850   N.pl3     1 RES1   0.0000
    11 C11     -4.0420   5.8540  14.1020   C.3       1 RES1   0.0000
    12 O12     -4.9072   6.9937  14.1530   O.3       1 RES1   0.0000
    13 C13     -5.7543   6.9333  15.3342   C.3       1 RES1   0.0000
    14 C14     -5.8247   8.3484  15.8826   C.3       1 RES1   0.0000
    15 O15     -6.7498   8.4448  16.9779   O.3       1 RES1   0.0000
    16 S16     -6.9482   9.8726  17.6776   S.o2      1 RES1   0.0000
    17 N17     -5.5766  10.2055  18.3604   N.3       1 RES1   0.0000
    18 O18     -7.2001  10.6636  16.5301   O.2       1 RES1   0.0000
    19 O19     -7.9521   9.7525  18.6652   O.2       1 RES1   0.0000
    20 C20     -5.1063   5.9597  16.2815   C.3       1 RES1   0.0000
    21 O21     -6.1563   5.1579  16.8513   O.3       1 RES1   0.0000
    22 C22     -4.1156   5.1699  15.4306   C.3       1 RES1   0.0000
    23 O23     -4.6167   3.8443  15.2885   O.3       1 RES1   0.0000
@<TRIPOS>BOND
     1     1     2    1
     2     2     3    2
     3     3     4    1
     4     4     5    2
     5     5     6    1
     6     6     7    2
     7     7     8    1
     8     8     9    2
     9     9    10    1
    10    11    10    1
    11    11    12    1
    12    12    13    1
    13    13    14    1
    14    14    15    1
    15    15    16    1
    16    16    17    1
    17    16    18    2
    18    16    19    2
    19    13    20    1
    20    20    21    1
    21    20    22    1
    22    22    23    1
    23     7     2    1
    24    22    11    1
    25    10     6    1
@<TRIPOS>SUBSTRUCTURE
     1 RES1        1 GROUP             0 ****  ****    0  
@<TRIPOS>MOLECULE
ligand_94
    23    25     1     0     0
SMALL
NO_CHARGES
****
Generated from the CSD

@<TRIPOS>ATOM
     1 N1       1.0968   8.8358  13.0900   N.pl3     1 RES1   0.0000
     2 C2      -0.1227   8.6610  13.6964   C.2       1 RES1   0.0000
     3 N3      -0.5255   9.5576  14.5764   N.2       1 RES1   0.0000
     4 C4      -1.7112   9.3698  15.1586   C.2       1 RES1   0.0000
     5 N5      -2.5784   8.3745  14.9959   N.2       1 RES1   0.0000
     6 C6      -2.1146   7.5049  14.0969   C.2       1 RES1   0.0000
     7 C7      -0.9226   7.5575  13.4156   C.2       1 RES1   0.0000
     8 N8      -0.7852   6.4481  12.5926   N.2       1 RES1   0.0000
     9 C9      -1.8704   5.7622  12.8022   C.2       1 RES1   0.0000
    10 N10     -2.7230   6.3490  13.6850   N.pl3     1 RES1   0.0000
    11 C11     -4.0420   5.8540  14.1020   C.3       1 RES1   0.0000
    12 O12     -4.9072   6.9937  14.1530   O.3       1 RES1   0.0000
    13 C13     -5.7543   6.9333  15.3342   C.3       1 RES1   0.0000
    14 C14     -5.8247   8.3484  15.8826   C.3       1 RES1   0.0000
    15 O15     -6.7498   8.4448  16.9779   O.3       1 RES1   0.0000
    16 S16     -6.9482   9.8726  17.6776   S.o2      1 RES1   0.0000
    17 N17     -7.6097  10.7899  16.5916   N.3       1 RES1   0.0000
    18 O18     -7.8447   9.5054  18.7107   O.2       1 RES1   0.0000
    19 O19     -5.6761  10.3851  18.0195   O.2       1 RES1   0.0000
    20 C20     -5.1063   5.9597  16.2815   C.3       1 RES1   0.0000
    21 O21     -6.1563   5.1579  16.8513   O.3       1 RES1   0.0000
    22 C22     -4.1156   5.1699  15.4306   C.3       1 RES1   0.0000
    23 O23     -4.6167   3.8443  15.2885   O.3       1 RES1   0.0000
@<TRIPOS>BOND
     1     1     2    1
     2     2     3    2
     3     3     4    1
     4     4     5    2
     5     5     6    1
     6     6     7    2
     7     7     8    1
     8     8     9    2
     9     9    10    1
    10    11    10    1
    11    11    12    1
    12    12    13    1
    13    13    14    1
    14    14    15    1
    15    15    16    1
    16    16    17    1
    17    16    18    2
    18    16    19    2
    19    13    20    1
    20    20    21    1
    21    20    22    1
    22    22    23    1
    23     7     2    1
    24    22    11    1
    25    10     6    1
@<TRIPOS>SUBSTRUCTURE
     1 RES1        1 GROUP             0 ****  ****    0  
@<TRIPOS>MOLECULE
ligand_95
    23    25     1     0     0
SMALL
NO_CHARGES
****
Generated from the CSD

@<TRIPOS>ATOM
     1 N1       1.0920   8.8410  13.0810   N.pl3     1 RES1   0.0000
     2 C2      -0.1290   8.6680  13.6850   C.2       1 RES1   0.0000
     3 N3      -0.5370   9.5710  14.5560   N.2       1 RES1   0.0000
     4 C4      -1.7240   9.3850  15.1360   C.2       1 RES1   0.0000
     5 N5      -2.5880   8.3860  14.9790   N.2       1 RES1   0.0000
     6 C6      -2.1190   7.5100  14.0890   C.2       1 RES1   0.0000
     7 C7      -0.9250   7.5600  13.4110   C.2       1 RES1   0.0000
     8 N8      -0.7820   6.4440  12.5980   N.2       1 RES1   0.0000
     9 C9      -1.8660   5.7570  12.8100   C.2       1 RES1   0.0000
    10 N10     -2.7230   6.3490  13.6850   N.pl3     1 RES1   0.0000
    11 C11     -4.0420   5.8540  14.1020   C.3       1 RES1   0.0000
    12 O12     -5.0123   6.6636  13.4289   O.3       1 RES1   0.0000
    13 C13     -6.0988   7.0079  14.3330   C.3       1 RES1   0.0000
    14 C14     -6.4455   8.4601  14.0515   C.3       1 RES1   0.0000
    15 O15     -6.9040   8.6413  12.7018   O.3       1 RES1   0.0000
    16 S16     -8.4831   8.6223  12.4301   S.o2      1 RES1   0.0000
    17 N17     -8.6515   8.8429  10.8869   N.3       1 RES1   0.0000
    18 O18     -8.7750   7.2964  12.8334   O.2       1 RES1   0.0000
    19 O19     -9.0716   9.7003  13.1296   O.2       1 RES1   0.0000
    20 C20     -5.5879   6.7782  15.7300   C.3       1 RES1   0.0000
    21 O21     -6.6493   6.1537  16.4738   O.3       1 RES1   0.0000
    22 C22     -4.3481   5.9034  15.5657   C.3       1 RES1   0.0000
    23 O23     -4.6578   4.6041  16.0605   O.3       1 RES1   0.0000
@<TRIPOS>BOND
     1     1     2    1
     2     2     3    2
     3     3     4    1
     4     4     5    2
     5     5     6    1
     6     6     7    2
     7     7     8    1
     8     8     9    2
     9     9    10    1
    10    11    10    1
    11    11    12    1
    12    12    13    1
    13    13    14    1
    14    14    15    1
    15    15    16    1
    16    16    17    1
    17    16    18    2
    18    16    19    2
    19    13    20    1
    20    20    21    1
    21    20    22    1
    22    22    23    1
    23     7     2    1
    24    22    11    1
    25    10     6    1
@<TRIPOS>SUBSTRUCTURE
     1 RES1        1 GROUP             0 ****  ****    0  
@<TRIPOS>MOLECULE
ligand_96
    23    25     1     0     0
SMALL
NO_CHARGES
****
Generated from the CSD

@<TRIPOS>ATOM
     1 N1       1.0920   8.8410  13.0810   N.pl3     1 RES1   0.0000
     2 C2      -0.1290   8.6680  13.6850   C.2       1 RES1   0.0000
     3 N3      -0.5370   9.5710  14.5560   N.2       1 RES1   0.0000
     4 C4      -1.7240   9.3850  15.1360   C.2       1 RES1   0.0000
     5 N5      -2.5880   8.3860  14.9790   N.2       1 RES1   0.0000
     6 C6      -2.1190   7.5100  14.0890   C.2       1 RES1   0.0000
     7 C7      -0.9250   7.5600  13.4110   C.2       1 RES1   0.0000
     8 N8      -0.7820   6.4440  12.5980   N.2       1 RES1   0.0000
     9 C9      -1.8660   5.7570  12.8100   C.2       1 RES1   0.0000
    10 N10     -2.7230   6.3490  13.6850   N.pl3     1 RES1   0.0000
    11 C11     -4.0420   5.8540  14.1020   C.3       1 RES1   0.0000
    12 O12     -3.8404   4.5262  14.5983   O.3       1 RES1   0.0000
    13 C13     -4.9004   3.6455  14.1322   C.3       1 RES1   0.0000
    14 C14     -4.2341   2.3294  13.7689   C.3       1 RES1   0.0000
    15 O15     -5.2020   1.3255  13.4227   O.3       1 RES1   0.0000
    16 S16     -4.6699  -0.1290  13.0116   S.o2      1 RES1   0.0000
    17 N17     -5.9507  -0.9771  12.6974   N.3       1 RES1   0.0000
    18 O18     -3.9335   0.2098  11.8503   O.2       1 RES1   0.0000
    19 O19     -3.9916  -0.6878  14.1186   O.2       1 RES1   0.0000
    20 C20     -5.5457   4.3299  12.9573   C.3       1 RES1   0.0000
    21 O21     -6.9666   4.1439  13.0844   O.3       1 RES1   0.0000
    22 C22     -5.1008   5.7871  13.0469   C.3       1 RES1   0.0000
    23 O23     -6.2316   6.5703  13.4166   O.3       1 RES1   0.0000
@<TRIPOS>BOND
     1     1     2    1
     2     2     3    2
     3     3     4    1
     4     4     5    2
     5     5     6    1
     6     6     7    2
     7     7     8    1
     8     8     9    2
     9     9    10    1
    10    11    10    1
    11    11    12    1
    12    12    13    1
    13    13    14    1
    14    14    15    1
    15    15    16    1
    16    16    17    1
    17    16    18    2
    18    16    19    2
    19    13    20    1
    20    20    21    1
    21    20    22    1
    22    22    23    1
    23     7     2    1
    24    22    11    1
    25    10     6    1
@<TRIPOS>SUBSTRUCTURE
     1 RES1        1 GROUP             0 ****  ****    0  
@<TRIPOS>MOLECULE
ligand_97
    23    25     1     0     0
SMALL
NO_CHARGES
****
Generated from the CSD

@<TRIPOS>ATOM
     1 N1       1.0550   8.8785  13.0084   N.pl3     1 RES1   0.0000
     2 C2      -0.1774   8.7193  13.5927   C.2       1 RES1   0.0000
     3 N3      -0.6260   9.6690  14.3910   N.2       1 RES1   0.0000
     4 C4      -1.8235   9.4960  14.9530   C.2       1 RES1   0.0000
     5 N5      -2.6627   8.4701  14.8424   N.2       1 RES1   0.0000
     6 C6      -2.1533   7.5473  14.0248   C.2       1 RES1   0.0000
     7 C7      -0.9435   7.5783  13.3743   C.2       1 RES1   0.0000
     8 N8      -0.7570   6.4141  12.6417   N.2       1 RES1   0.0000
     9 C9      -1.8319   5.7191  12.8728   C.2       1 RES1   0.0000
    10 N10     -2.7230   6.3490  13.6850   N.pl3     1 RES1   0.0000
    11 C11     -4.0420   5.8540  14.1020   C.3       1 RES1   0.0000
    12 O12     -5.0292   6.6193  13.4660   O.3       1 RES1   0.0000
    13 C13     -6.1702   6.7864  14.3391   C.3       1 RES1   0.0000
    14 C14     -6.4629   8.2652  14.5278   C.3       1 RES1   0.0000
    15 O15     -6.8351   8.8919  13.2895   O.3       1 RES1   0.0000
    16 S16     -5.7216   9.7335  12.5025   S.o2      1 RES1   0.0000
    17 N17     -6.4395  10.3031  11.2303   N.3       1 RES1   0.0000
    18 O18     -5.4483  10.7275  13.4737   O.2       1 RES1   0.0000
    19 O19     -4.6886   8.8528  12.1090   O.2       1 RES1   0.0000
    20 C20     -5.8238   6.0306  15.6194   C.3       1 RES1   0.0000
    21 O21     -6.3577   4.6970  15.5403   O.3       1 RES1   0.0000
    22 C22     -4.3078   5.9928  15.5955   C.3       1 RES1   0.0000
    23 O23     -3.7545   4.8661  16.2687   O.3       1 RES1   0.0000
@<TRIPOS>BOND
     1     1     2    1
     2     2     3    2
     3     3     4    1
     4     4     5    2
     5     5     6    1
     6     6     7    2
     7     7     8    1
     8     8     9    2
     9     9    10    1
    10    11    10    1
    11    11    12    1
    12    12    13    1
    13    13    14    1
    14    14    15    1
    15    15    16    1
    16    16    17    1
    17    16    18    2
    18    16    19    2
    19    13    20    1
    20    20    21    1
    21    20    22    1
    22    22    23    1
    23     7     2    1
    24    22    11    1
    25    10     6    1
@<TRIPOS>SUBSTRUCTURE
     1 RES1        1 GROUP             0 ****  ****    0  
@<TRIPOS>MOLECULE
ligand_98
    23    25     1     0     0
SMALL
NO_CHARGES
****
Generated from the CSD

@<TRIPOS>ATOM
     1 N1       1.0968   8.8358  13.0900   N.pl3     1 RES1   0.0000
     2 C2      -0.1227   8.6610  13.6964   C.2       1 RES1   0.0000
     3 N3      -0.5255   9.5576  14.5764   N.2       1 RES1   0.0000
     4 C4      -1.7112   9.3698  15.1586   C.2       1 RES1   0.0000
     5 N5      -2.5784   8.3745  14.9959   N.2       1 RES1   0.0000
     6 C6      -2.1146   7.5049  14.0969   C.2       1 RES1   0.0000
     7 C7      -0.9226   7.5575  13.4156   C.2       1 RES1   0.0000
     8 N8      -0.7852   6.4481  12.5926   N.2       1 RES1   0.0000
     9 C9      -1.8704   5.7622  12.8022   C.2       1 RES1   0.0000
    10 N10     -2.7230   6.3490  13.6850   N.pl3     1 RES1   0.0000
    11 C11     -4.0420   5.8540  14.1020   C.3       1 RES1   0.0000
    12 O12     -4.9072   6.9937  14.1530   O.3       1 RES1   0.0000
    13 C13     -5.7543   6.9333  15.3342   C.3       1 RES1   0.0000
    14 C14     -5.8247   8.3484  15.8826   C.3       1 RES1   0.0000
    15 O15     -6.4253   9.2509  14.9395   O.3       1 RES1   0.0000
    16 S16     -6.5788  10.7902  15.3572   S.o2      1 RES1   0.0000
    17 N17     -7.2578  11.4971  14.1334   N.3       1 RES1   0.0000
    18 O18     -7.4495  10.6474  16.4651   O.2       1 RES1   0.0000
    19 O19     -5.2887  11.3307  15.5604   O.2       1 RES1   0.0000
    20 C20     -5.1063   5.9597  16.2815   C.3       1 RES1   0.0000
    21 O21     -6.1563   5.1579  16.8513   O.3       1 RES1   0.0000
    22 C22     -4.1156   5.1699  15.4306   C.3       1 RES1   0.0000
    23 O23     -4.6167   3.8443  15.2885   O.3       1 RES1   0.0000
@<TRIPOS>BOND
     1     1     2    1
     2     2     3    2
     3     3     4    1
     4     4     5    2
     5     5     6    1
     6     6     7    2
     7     7     8    1
     8     8     9    2
     9     9    10    1
    10    11    10    1
    11    11    12    1
    12    12    13    1
    13    13    14    1
    14    14    15    1
    15    15    16    1
    16    16    17    1
    17    16    18    2
    18    16    19    2
    19    13    20    1
    20    20    21    1
    21    20    22    1
    22    22    23    1
    23     7     2    1
    24    22    11    1
    25    10     6    1
@<TRIPOS>SUBSTRUCTURE
     1 RES1        1 GROUP             0 ****  ****    0  
@<TRIPOS>MOLECULE
ligand_99
    23    25     1     0     0
SMALL
NO_CHARGES
****
Generated from the CSD

@<TRIPOS>ATOM
     1 N1       1.0754   8.8584  13.0490   N.pl3     1 RES1   0.0000
     2 C2      -0.1507   8.6917  13.6444   C.2       1 RES1   0.0000
     3 N3      -0.5769   9.6163  14.4835   N.2       1 RES1   0.0000
     4 C4      -1.7686   9.4362  15.0557   C.2       1 RES1   0.0000
     5 N5      -2.6215   8.4248  14.9190   N.2       1 RES1   0.0000
     6 C6      -2.1344   7.5272  14.0608   C.2       1 RES1   0.0000
     7 C7      -0.9333   7.5685  13.3948   C.2       1 RES1   0.0000
     8 N8      -0.7708   6.4302  12.6171   N.2       1 RES1   0.0000
     9 C9      -1.8507   5.7395  12.8376   C.2       1 RES1   0.0000
    10 N10     -2.7230   6.3490  13.6850   N.pl3     1 RES1   0.0000
    11 C11     -4.0420   5.8540  14.1020   C.3       1 RES1   0.0000
    12 O12     -4.3624   6.5282  15.3238   O.3       1 RES1   0.0000
    13 C13     -4.9571   5.6000  16.2730   C.3       1 RES1   0.0000
    14 C14     -4.3687   5.9419  17.6313   C.3       1 RES1   0.0000
    15 O15     -2.9576   5.6744  17.6779   O.3       1 RES1   0.0000
    16 S16     -2.1743   5.9792  19.0421   S.o2      1 RES1   0.0000
    17 N17     -2.2320   7.5351  19.2270   N.3       1 RES1   0.0000
    18 O18     -3.0076   5.2838  19.9520   O.2       1 RES1   0.0000
    19 O19     -0.8301   5.5701  18.8886   O.2       1 RES1   0.0000
    20 C20     -4.6029   4.2148  15.8028   C.3       1 RES1   0.0000
    21 O21     -5.7756   3.3974  15.9657   O.3       1 RES1   0.0000
    22 C22     -4.1616   4.3836  14.3515   C.3       1 RES1   0.0000
    23 O23     -5.1638   3.8102  13.5175   O.3       1 RES1   0.0000
@<TRIPOS>BOND
     1     1     2    1
     2     2     3    2
     3     3     4    1
     4     4     5    2
     5     5     6    1
     6     6     7    2
     7     7     8    1
     8     8     9    2
     9     9    10    1
    10    11    10    1
    11    11    12    1
    12    12    13    1
    13    13    14    1
    14    14    15    1
    15    15    16    1
    16    16    17    1
    17    16    18    2
    18    16    19    2
    19    13    20    1
    20    20    21    1
    21    20    22    1
    22    22    23    1
    23     7     2    1
    24    22    11    1
    25    10     6    1
@<TRIPOS>SUBSTRUCTURE
     1 RES1        1 GROUP             0 ****  ****    0  
