@<TRIPOS>MOLECULE
native
    40    43     1     0     0
SMALL
NO_CHARGES
****
Generated from the CSD

@<TRIPOS>ATOM
     1 C1     -18.6450  20.7440  -3.1140   C.3       1 RES1   0.0000
     2 C2     -18.6120  19.2310  -2.9860   C.3       1 RES1   0.0000
     3 C3     -19.6680  18.7970  -1.9990   C.3       1 RES1   0.0000
     4 C4     -18.8600  18.5670  -4.3310   C.2       1 RES1   0.0000
     5 N5     -17.9780  18.8520  -5.4240   N.pl3     1 RES1   0.0000
     6 C6     -16.7140  18.2030  -5.3750   C.2       1 RES1   0.0000
     7 C7     -15.5500  19.0410  -4.8630   C.3       1 RES1   0.0000
     8 O8     -14.4350  18.1970  -4.6650   O.3       1 RES1   0.0000
     9 C9     -15.1700  20.2100  -5.8500   C.3       1 RES1   0.0000
    10 C10    -14.4870  19.7180  -7.1500   C.3       1 RES1   0.0000
    11 C11    -14.0930  20.8400  -8.0060   C.2       1 RES1   0.0000
    12 C12    -15.0870  21.5710  -8.6830   C.2       1 RES1   0.0000
    13 C13    -14.7520  22.6720  -9.4660   C.2       1 RES1   0.0000
    14 C14    -13.4230  23.0810  -9.6040   C.2       1 RES1   0.0000
    15 C15    -12.4200  22.3710  -8.9300   C.2       1 RES1   0.0000
    16 C16    -12.7600  21.2640  -8.1410   C.2       1 RES1   0.0000
    17 N17    -14.3320  21.0830  -5.1480   N.am      1 RES1   0.0000
    18 C18    -14.6550  22.3170  -4.7300   C.2       1 RES1   0.0000
    19 O19    -15.7470  22.8730  -4.8430   O.2       1 RES1   0.0000
    20 O20    -13.6170  22.9850  -4.0950   O.3       1 RES1   0.0000
    21 C21    -13.7130  24.3550  -3.7650   C.3       1 RES1   0.0000
    22 C22    -13.0640  24.6520  -2.4190   C.3       1 RES1   0.0000
    23 O23    -11.6410  24.6080  -2.6580   O.3       1 RES1   0.0000
    24 C24    -11.3970  25.1430  -3.9620   C.3       1 RES1   0.0000
    25 O25    -10.5190  24.2550  -4.6450   O.3       1 RES1   0.0000
    26 C26    -11.1880  23.6560  -5.7650   C.3       1 RES1   0.0000
    27 C27    -12.4320  24.5060  -6.0340   C.3       1 RES1   0.0000
    28 C28    -12.7650  25.1500  -4.6930   C.3       1 RES1   0.0000
    29 S29    -18.6640  19.2670  -6.8730   S.o2      1 RES1   0.0000
    30 O30    -17.6370  19.3540  -7.8430   O.2       1 RES1   0.0000
    31 O31    -19.4930  20.3870  -6.6570   O.2       1 RES1   0.0000
    32 C32    -19.7020  17.9280  -7.3300   C.2       1 RES1   0.0000
    33 C33    -21.0570  17.9600  -7.0260   C.2       1 RES1   0.0000
    34 C34    -21.9200  16.9480  -7.3170   C.2       1 RES1   0.0000
    35 C35    -21.5100  15.7930  -7.9350   C.2       1 RES1   0.0000
    36 B36    -22.5220  14.6950  -8.2160   B         1 RES1   0.0000
    37 O37    -23.8420  14.7690  -7.8830   O.3       1 RES1   0.0000
    38 O38    -22.0450  13.5880  -8.7650   O.3       1 RES1   0.0000
    39 C39    -20.1230  15.6950  -8.2500   C.2       1 RES1   0.0000
    40 C40    -19.2680  16.7470  -7.9480   C.2       1 RES1   0.0000
@<TRIPOS>BOND
     1     1     2    1
     2     2     3    1
     3     2     4    1
     4     4     5    1
     5     5     6    1
     6     6     7    1
     7     7     8    1
     8     7     9    1
     9     9    10    1
    10    10    11    1
    11    11    12    2
    12    12    13    1
    13    13    14    2
    14    14    15    1
    15    15    16    2
    16     9    17    1
    17    17    18   am
    18    18    19    2
    19    18    20    1
    20    21    20    1
    21    21    22    1
    22    22    23    1
    23    24    23    1
    24    24    25    1
    25    25    26    1
    26    26    27    1
    27    28    27    1
    28     5    29    1
    29    29    30    2
    30    29    31    2
    31    29    32    1
    32    32    33    2
    33    33    34    1
    34    34    35    2
    35    35    36    1
    36    36    37    1
    37    36    38    1
    38    35    39    1
    39    39    40    2
    40    16    11    1
    41    28    21    1
    42    40    32    1
    43    28    24    1
@<TRIPOS>SUBSTRUCTURE
     1 RES1        1 GROUP             0 ****  ****    0  
@<TRIPOS>MOLECULE
ligand_0
    40    43     1     0     0
SMALL
NO_CHARGES
****
Generated from the CSD

@<TRIPOS>ATOM
     1 C1       5.1973   9.2721  -2.9052   C.3       1 RES1   0.0000
     2 C2       4.9954   7.8465  -2.4221   C.3       1 RES1   0.0000
     3 C3       5.9480   7.5725  -1.2841   C.3       1 RES1   0.0000
     4 C4       3.5638   7.6278  -1.9595   C.2       1 RES1   0.0000
     5 N5       3.1557   6.3177  -1.5459   N.pl3     1 RES1   0.0000
     6 C6       2.7572   6.2023  -0.1860   C.2       1 RES1   0.0000
     7 C7       3.5842   5.2581   0.6765   C.3       1 RES1   0.0000
     8 O8       4.9096   5.7422   0.7378   O.3       1 RES1   0.0000
     9 C9       3.0001   5.1063   2.1329   C.3       1 RES1   0.0000
    10 C10      3.8685   4.2123   3.0523   C.3       1 RES1   0.0000
    11 C11      3.3585   4.2012   4.4258   C.2       1 RES1   0.0000
    12 C12      3.8269   5.1619   5.3414   C.2       1 RES1   0.0000
    13 C13      3.3284   5.2101   6.6401   C.2       1 RES1   0.0000
    14 C14      2.3531   4.3075   7.0720   C.2       1 RES1   0.0000
    15 C15      1.8676   3.3493   6.1717   C.2       1 RES1   0.0000
    16 C16      2.3698   3.3039   4.8643   C.2       1 RES1   0.0000
    17 N17      1.7097   4.5816   2.0043   N.am      1 RES1   0.0000
    18 C18      0.5654   5.2393   2.2489   C.2       1 RES1   0.0000
    19 O19      0.4494   6.4057   2.6238   O.2       1 RES1   0.0000
    20 O20     -0.5767   4.4836   2.0223   O.3       1 RES1   0.0000
    21 C21     -1.8698   5.0230   2.2128   C.3       1 RES1   0.0000
    22 C22     -2.1701   5.8029   0.9370   C.3       1 RES1   0.0000
    23 O23     -2.7305   4.8217   0.0463   O.3       1 RES1   0.0000
    24 C24     -3.5655   3.9666   0.8326   C.3       1 RES1   0.0000
    25 O25     -3.5492   2.6533   0.3171   O.3       1 RES1   0.0000
    26 C26     -2.4577   1.9915   0.9325   C.3       1 RES1   0.0000
    27 C27     -2.4752   2.4819   2.3663   C.3       1 RES1   0.0000
    28 C28     -2.9451   3.9365   2.2402   C.3       1 RES1   0.0000
    29 S29      2.5319   5.3096  -2.7022   S.o2      1 RES1   0.0000
    30 O30      2.3050   4.0430  -2.1129   O.2       1 RES1   0.0000
    31 O31      3.3573   5.3920  -3.8424   O.2       1 RES1   0.0000
    32 C32      0.9662   5.9696  -3.1409   C.2       1 RES1   0.0000
    33 C33     -0.1757   5.5700  -2.4584   C.2       1 RES1   0.0000
    34 C34     -1.4282   6.0103  -2.7600   C.2       1 RES1   0.0000
    35 C35     -1.6661   6.8906  -3.7859   C.2       1 RES1   0.0000
    36 B36     -3.0908   7.3290  -4.0804   B         1 RES1   0.0000
    37 O37     -4.1814   6.9018  -3.3827   O.3       1 RES1   0.0000
    38 O38     -3.2516   8.1286  -5.1240   O.3       1 RES1   0.0000
    39 C39     -0.5319   7.3174  -4.5370   C.2       1 RES1   0.0000
    40 C40      0.7347   6.8572  -4.2009   C.2       1 RES1   0.0000
@<TRIPOS>BOND
     1     1     2    1
     2     2     3    1
     3     2     4    1
     4     4     5    1
     5     5     6    1
     6     6     7    1
     7     7     8    1
     8     7     9    1
     9     9    10    1
    10    10    11    1
    11    11    12    2
    12    12    13    1
    13    13    14    2
    14    14    15    1
    15    15    16    2
    16     9    17    1
    17    17    18   am
    18    18    19    2
    19    18    20    1
    20    21    20    1
    21    21    22    1
    22    22    23    1
    23    24    23    1
    24    24    25    1
    25    25    26    1
    26    26    27    1
    27    28    27    1
    28     5    29    1
    29    29    30    2
    30    29    31    2
    31    29    32    1
    32    32    33    2
    33    33    34    1
    34    34    35    2
    35    35    36    1
    36    36    37    1
    37    36    38    1
    38    35    39    1
    39    39    40    2
    40    16    11    1
    41    28    21    1
    42    40    32    1
    43    28    24    1
@<TRIPOS>SUBSTRUCTURE
     1 RES1        1 GROUP             0 ****  ****    0  
@<TRIPOS>MOLECULE
ligand_1
    40    43     1     0     0
SMALL
NO_CHARGES
****
Generated from the CSD

@<TRIPOS>ATOM
     1 C1       5.9084   7.1885   7.6521   C.3       1 RES1   0.0000
     2 C2       5.7603   6.5458   6.2840   C.3       1 RES1   0.0000
     3 C3       6.0442   5.0681   6.4006   C.3       1 RES1   0.0000
     4 C4       4.3595   6.7592   5.7329   C.2       1 RES1   0.0000
     5 N5       4.0505   6.2971   4.4120   N.pl3     1 RES1   0.0000
     6 C6       3.0526   5.2874   4.3353   C.2       1 RES1   0.0000
     7 C7       3.4932   3.9533   3.7476   C.3       1 RES1   0.0000
     8 O8       4.4913   3.3983   4.5786   O.3       1 RES1   0.0000
     9 C9       2.2965   2.9385   3.5945   C.3       1 RES1   0.0000
    10 C10      2.7341   1.5481   3.0712   C.3       1 RES1   0.0000
    11 C11      1.6155   0.6018   3.0643   C.2       1 RES1   0.0000
    12 C12      1.3725  -0.1846   4.2059   C.2       1 RES1   0.0000
    13 C13      0.2901  -1.0586   4.2511   C.2       1 RES1   0.0000
    14 C14     -0.5828  -1.1820   3.1669   C.2       1 RES1   0.0000
    15 C15     -0.3623  -0.4003   2.0247   C.2       1 RES1   0.0000
    16 C16      0.7270   0.4801   1.9823   C.2       1 RES1   0.0000
    17 N17      1.3689   3.5264   2.7279   N.am      1 RES1   0.0000
    18 C18      0.1577   3.9923   3.0710   C.2       1 RES1   0.0000
    19 O19     -0.3455   3.9853   4.1940   O.2       1 RES1   0.0000
    20 O20     -0.5521   4.5450   2.0138   O.3       1 RES1   0.0000
    21 C21     -1.8395   5.0999   2.1977   C.3       1 RES1   0.0000
    22 C22     -2.0644   5.9990   0.9865   C.3       1 RES1   0.0000
    23 O23     -2.6073   5.1174  -0.0126   O.3       1 RES1   0.0000
    24 C24     -3.4961   4.2181   0.6568   C.3       1 RES1   0.0000
    25 O25     -3.4872   2.9564   0.0252   O.3       1 RES1   0.0000
    26 C26     -2.4399   2.2126   0.6235   C.3       1 RES1   0.0000
    27 C27     -2.5099   2.5726   2.0939   C.3       1 RES1   0.0000
    28 C28     -2.9398   4.0449   2.0808   C.3       1 RES1   0.0000
    29 S29      4.2916   7.3501   3.1568   S.o2      1 RES1   0.0000
    30 O30      4.0411   6.6629   1.9450   O.2       1 RES1   0.0000
    31 O31      5.5453   7.9683   3.3422   O.2       1 RES1   0.0000
    32 C32      3.0656   8.5956   3.3140   C.2       1 RES1   0.0000
    33 C33      1.8332   8.4445   2.6911   C.2       1 RES1   0.0000
    34 C34      0.8441   9.3788   2.7381   C.2       1 RES1   0.0000
    35 C35      0.9931  10.5678   3.4076   C.2       1 RES1   0.0000
    36 B36     -0.1447  11.5747   3.4065   B         1 RES1   0.0000
    37 O37     -1.3362  11.3807   2.7729   O.3       1 RES1   0.0000
    38 O38      0.0933  12.7252   4.0181   O.3       1 RES1   0.0000
    39 C39      2.2482  10.7875   4.0472   C.2       1 RES1   0.0000
    40 C40      3.2357   9.8126   3.9886   C.2       1 RES1   0.0000
@<TRIPOS>BOND
     1     1     2    1
     2     2     3    1
     3     2     4    1
     4     4     5    1
     5     5     6    1
     6     6     7    1
     7     7     8    1
     8     7     9    1
     9     9    10    1
    10    10    11    1
    11    11    12    2
    12    12    13    1
    13    13    14    2
    14    14    15    1
    15    15    16    2
    16     9    17    1
    17    17    18   am
    18    18    19    2
    19    18    20    1
    20    21    20    1
    21    21    22    1
    22    22    23    1
    23    24    23    1
    24    24    25    1
    25    25    26    1
    26    26    27    1
    27    28    27    1
    28     5    29    1
    29    29    30    2
    30    29    31    2
    31    29    32    1
    32    32    33    2
    33    33    34    1
    34    34    35    2
    35    35    36    1
    36    36    37    1
    37    36    38    1
    38    35    39    1
    39    39    40    2
    40    16    11    1
    41    28    21    1
    42    40    32    1
    43    28    24    1
@<TRIPOS>SUBSTRUCTURE
     1 RES1        1 GROUP             0 ****  ****    0  
@<TRIPOS>MOLECULE
ligand_2
    40    43     1     0     0
SMALL
NO_CHARGES
****
Generated from the CSD

@<TRIPOS>ATOM
     1 C1      17.1331   3.9440   5.6323   C.3       1 RES1   0.0000
     2 C2      15.9378   3.6433   4.7450   C.3       1 RES1   0.0000
     3 C3      15.9186   2.1680   4.4277   C.3       1 RES1   0.0000
     4 C4      14.6398   4.0397   5.4303   C.2       1 RES1   0.0000
     5 N5      13.4046   3.9106   4.7152   N.pl3     1 RES1   0.0000
     6 C6      12.4717   2.9907   5.2673   C.2       1 RES1   0.0000
     7 C7      12.0899   1.8115   4.3826   C.3       1 RES1   0.0000
     8 O8      13.2442   1.0356   4.1365   O.3       1 RES1   0.0000
     9 C9      10.9669   0.9132   5.0284   C.3       1 RES1   0.0000
    10 C10     10.6172  -0.3356   4.1818   C.3       1 RES1   0.0000
    11 C11      9.6641  -1.2046   4.8769   C.2       1 RES1   0.0000
    12 C12     10.1489  -2.2230   5.7186   C.2       1 RES1   0.0000
    13 C13      9.2716  -3.0355   6.4312   C.2       1 RES1   0.0000
    14 C14      7.8883  -2.8656   6.3302   C.2       1 RES1   0.0000
    15 C15      7.3868  -1.8506   5.5040   C.2       1 RES1   0.0000
    16 C16      8.2721  -1.0329   4.7890   C.2       1 RES1   0.0000
    17 N17      9.8418   1.7262   5.2032   N.am      1 RES1   0.0000
    18 C18      9.1079   1.8230   6.3229   C.2       1 RES1   0.0000
    19 O19      9.2917   1.2220   7.3809   O.2       1 RES1   0.0000
    20 O20      8.0546   2.7222   6.2285   O.3       1 RES1   0.0000
    21 C21      7.1888   2.9630   7.3191   C.3       1 RES1   0.0000
    22 C22      7.7574   3.8721   8.4090   C.3       1 RES1   0.0000
    23 O23      6.6112   4.2519   9.1860   O.3       1 RES1   0.0000
    24 C24      5.5119   4.3941   8.3043   C.3       1 RES1   0.0000
    25 O25      5.2656   5.7568   8.0321   O.3       1 RES1   0.0000
    26 C26      6.0846   6.1022   6.9285   C.3       1 RES1   0.0000
    27 C27      6.0261   4.9001   6.0087   C.3       1 RES1   0.0000
    28 C28      5.8862   3.7145   6.9710   C.3       1 RES1   0.0000
    29 S29     12.8910   5.2146   3.8330   S.o2      1 RES1   0.0000
    30 O30     11.7278   4.8389   3.1195   O.2       1 RES1   0.0000
    31 O31     13.9963   5.7177   3.1165   O.2       1 RES1   0.0000
    32 C32     12.4177   6.4418   4.9945   C.2       1 RES1   0.0000
    33 C33     11.1107   6.4932   5.4621   C.2       1 RES1   0.0000
    34 C34     10.6584   7.4332   6.3369   C.2       1 RES1   0.0000
    35 C35     11.4695   8.4268   6.8259   C.2       1 RES1   0.0000
    36 B36     10.8967   9.4551   7.7867   B         1 RES1   0.0000
    37 O37      9.6013   9.4654   8.2118   O.3       1 RES1   0.0000
    38 O38     11.7196  10.4208   8.1669   O.3       1 RES1   0.0000
    39 C39     12.8174   8.4372   6.3615   C.2       1 RES1   0.0000
    40 C40     13.2523   7.4605   5.4750   C.2       1 RES1   0.0000
@<TRIPOS>BOND
     1     1     2    1
     2     2     3    1
     3     2     4    1
     4     4     5    1
     5     5     6    1
     6     6     7    1
     7     7     8    1
     8     7     9    1
     9     9    10    1
    10    10    11    1
    11    11    12    2
    12    12    13    1
    13    13    14    2
    14    14    15    1
    15    15    16    2
    16     9    17    1
    17    17    18   am
    18    18    19    2
    19    18    20    1
    20    21    20    1
    21    21    22    1
    22    22    23    1
    23    24    23    1
    24    24    25    1
    25    25    26    1
    26    26    27    1
    27    28    27    1
    28     5    29    1
    29    29    30    2
    30    29    31    2
    31    29    32    1
    32    32    33    2
    33    33    34    1
    34    34    35    2
    35    35    36    1
    36    36    37    1
    37    36    38    1
    38    35    39    1
    39    39    40    2
    40    16    11    1
    41    28    21    1
    42    40    32    1
    43    28    24    1
@<TRIPOS>SUBSTRUCTURE
     1 RES1        1 GROUP             0 ****  ****    0  
@<TRIPOS>MOLECULE
ligand_3
    40    43     1     0     0
SMALL
NO_CHARGES
****
Generated from the CSD

@<TRIPOS>ATOM
     1 C1       6.3730   5.8382  -3.2751   C.3       1 RES1   0.0000
     2 C2       5.0394   5.2989  -2.7878   C.3       1 RES1   0.0000
     3 C3       5.2888   4.1496  -1.8420   C.3       1 RES1   0.0000
     4 C4       4.2409   6.3830  -2.0818   C.2       1 RES1   0.0000
     5 N5       2.9292   6.0775  -1.5918   N.pl3     1 RES1   0.0000
     6 C6       2.7572   6.2023  -0.1860   C.2       1 RES1   0.0000
     7 C7       3.5842   5.2581   0.6765   C.3       1 RES1   0.0000
     8 O8       4.8886   5.7844   0.8042   O.3       1 RES1   0.0000
     9 C9       2.9521   5.0376   2.1037   C.3       1 RES1   0.0000
    10 C10      3.8186   4.1465   3.0277   C.3       1 RES1   0.0000
    11 C11      3.2582   4.0719   4.3795   C.2       1 RES1   0.0000
    12 C12      3.6552   5.0187   5.3420   C.2       1 RES1   0.0000
    13 C13      3.1069   5.0062   6.6214   C.2       1 RES1   0.0000
    14 C14      2.1508   4.0549   6.9868   C.2       1 RES1   0.0000
    15 C15      1.7361   3.1095   6.0389   C.2       1 RES1   0.0000
    16 C16      2.2884   3.1252   4.7511   C.2       1 RES1   0.0000
    17 N17      1.6881   4.4704   1.9090   N.am      1 RES1   0.0000
    18 C18      0.5114   5.0773   2.1299   C.2       1 RES1   0.0000
    19 O19      0.3374   6.2253   2.5376   O.2       1 RES1   0.0000
    20 O20     -0.5920   4.2886   1.8347   O.3       1 RES1   0.0000
    21 C21     -1.9108   4.7738   1.9916   C.3       1 RES1   0.0000
    22 C22     -2.1914   5.5852   0.7310   C.3       1 RES1   0.0000
    23 O23     -2.6801   4.6151  -0.2125   O.3       1 RES1   0.0000
    24 C24     -3.5117   3.7040   0.5121   C.3       1 RES1   0.0000
    25 O25     -3.4263   2.4104  -0.0449   O.3       1 RES1   0.0000
    26 C26     -2.3349   1.7682   0.5911   C.3       1 RES1   0.0000
    27 C27     -2.4255   2.2086   2.0383   C.3       1 RES1   0.0000
    28 C28     -2.9447   3.6486   1.9413   C.3       1 RES1   0.0000
    29 S29      1.6550   6.2982  -2.6262   S.o2      1 RES1   0.0000
    30 O30      0.4811   5.8234  -1.9940   O.2       1 RES1   0.0000
    31 O31      2.0157   5.7651  -3.8808   O.2       1 RES1   0.0000
    32 C32      1.4756   8.0322  -2.8266   C.2       1 RES1   0.0000
    33 C33      0.6506   8.7519  -1.9716   C.2       1 RES1   0.0000
    34 C34      0.4337  10.0915  -2.0820   C.2       1 RES1   0.0000
    35 C35      1.0151  10.8468  -3.0697   C.2       1 RES1   0.0000
    36 B36      0.7175  12.3349  -3.1466   B         1 RES1   0.0000
    37 O37     -0.1068  12.9948  -2.2841   O.3       1 RES1   0.0000
    38 O38      1.2619  12.9874  -4.1625   O.3       1 RES1   0.0000
    39 C39      1.8548  10.1557  -3.9915   C.2       1 RES1   0.0000
    40 C40      2.0635   8.7900  -3.8489   C.2       1 RES1   0.0000
@<TRIPOS>BOND
     1     1     2    1
     2     2     3    1
     3     2     4    1
     4     4     5    1
     5     5     6    1
     6     6     7    1
     7     7     8    1
     8     7     9    1
     9     9    10    1
    10    10    11    1
    11    11    12    2
    12    12    13    1
    13    13    14    2
    14    14    15    1
    15    15    16    2
    16     9    17    1
    17    17    18   am
    18    18    19    2
    19    18    20    1
    20    21    20    1
    21    21    22    1
    22    22    23    1
    23    24    23    1
    24    24    25    1
    25    25    26    1
    26    26    27    1
    27    28    27    1
    28     5    29    1
    29    29    30    2
    30    29    31    2
    31    29    32    1
    32    32    33    2
    33    33    34    1
    34    34    35    2
    35    35    36    1
    36    36    37    1
    37    36    38    1
    38    35    39    1
    39    39    40    2
    40    16    11    1
    41    28    21    1
    42    40    32    1
    43    28    24    1
@<TRIPOS>SUBSTRUCTURE
     1 RES1        1 GROUP             0 ****  ****    0  
@<TRIPOS>MOLECULE
ligand_4
    40    43     1     0     0
SMALL
NO_CHARGES
****
Generated from the CSD

@<TRIPOS>ATOM
     1 C1       7.7253   6.1904   4.6481   C.3       1 RES1   0.0000
     2 C2       6.4542   6.2656   3.8203   C.3       1 RES1   0.0000
     3 C3       6.4030   5.0802   2.8876   C.3       1 RES1   0.0000
     4 C4       5.2242   6.2716   4.7138   C.2       1 RES1   0.0000
     5 N5       3.9269   6.3868   4.1157   N.pl3     1 RES1   0.0000
     6 C6       3.0526   5.2874   4.3353   C.2       1 RES1   0.0000
     7 C7       3.4932   3.9533   3.7476   C.3       1 RES1   0.0000
     8 O8       4.4332   3.3610   4.6196   O.3       1 RES1   0.0000
     9 C9       2.2836   2.9697   3.5138   C.3       1 RES1   0.0000
    10 C10      2.7169   1.5767   2.9939   C.3       1 RES1   0.0000
    11 C11      1.5787   0.6578   2.9114   C.2       1 RES1   0.0000
    12 C12      1.2551  -0.1386   4.0258   C.2       1 RES1   0.0000
    13 C13      0.1519  -0.9869   3.9983   C.2       1 RES1   0.0000
    14 C14     -0.6627  -1.0740   2.8663   C.2       1 RES1   0.0000
    15 C15     -0.3617  -0.2819   1.7500   C.2       1 RES1   0.0000
    16 C16      0.7485   0.5726   1.7807   C.2       1 RES1   0.0000
    17 N17      1.4189   3.5918   2.6069   N.am      1 RES1   0.0000
    18 C18      0.2015   4.0812   2.8903   C.2       1 RES1   0.0000
    19 O19     -0.3631   4.0697   3.9837   O.2       1 RES1   0.0000
    20 O20     -0.4361   4.6657   1.8046   O.3       1 RES1   0.0000
    21 C21     -1.7188   5.2480   1.9261   C.3       1 RES1   0.0000
    22 C22     -1.8560   6.1697   0.7188   C.3       1 RES1   0.0000
    23 O23     -2.3625   5.3157  -0.3224   O.3       1 RES1   0.0000
    24 C24     -3.3071   4.4278   0.2826   C.3       1 RES1   0.0000
    25 O25     -3.2918   3.1756  -0.3674   O.3       1 RES1   0.0000
    26 C26     -2.2963   2.3988   0.2757   C.3       1 RES1   0.0000
    27 C27     -2.4394   2.7389   1.7456   C.3       1 RES1   0.0000
    28 C28     -2.8345   4.2209   1.7322   C.3       1 RES1   0.0000
    29 S29      3.3291   7.9118   3.8719   S.o2      1 RES1   0.0000
    30 O30      2.1080   7.8034   3.1645   O.2       1 RES1   0.0000
    31 O31      4.3626   8.7025   3.3288   O.2       1 RES1   0.0000
    32 C32      2.9567   8.5566   5.4609   C.2       1 RES1   0.0000
    33 C33      1.6972   8.3649   6.0143   C.2       1 RES1   0.0000
    34 C34      1.3211   8.8611   7.2250   C.2       1 RES1   0.0000
    35 C35      2.1682   9.6109   8.0025   C.2       1 RES1   0.0000
    36 B36      1.6795  10.1489   9.3368   B         1 RES1   0.0000
    37 O37      0.4279   9.9370   9.8340   O.3       1 RES1   0.0000
    38 O38      2.5286  10.9169  10.0029   O.3       1 RES1   0.0000
    39 C39      3.4684   9.8597   7.4734   C.2       1 RES1   0.0000
    40 C40      3.8262   9.3337   6.2387   C.2       1 RES1   0.0000
@<TRIPOS>BOND
     1     1     2    1
     2     2     3    1
     3     2     4    1
     4     4     5    1
     5     5     6    1
     6     6     7    1
     7     7     8    1
     8     7     9    1
     9     9    10    1
    10    10    11    1
    11    11    12    2
    12    12    13    1
    13    13    14    2
    14    14    15    1
    15    15    16    2
    16     9    17    1
    17    17    18   am
    18    18    19    2
    19    18    20    1
    20    21    20    1
    21    21    22    1
    22    22    23    1
    23    24    23    1
    24    24    25    1
    25    25    26    1
    26    26    27    1
    27    28    27    1
    28     5    29    1
    29    29    30    2
    30    29    31    2
    31    29    32    1
    32    32    33    2
    33    33    34    1
    34    34    35    2
    35    35    36    1
    36    36    37    1
    37    36    38    1
    38    35    39    1
    39    39    40    2
    40    16    11    1
    41    28    21    1
    42    40    32    1
    43    28    24    1
@<TRIPOS>SUBSTRUCTURE
     1 RES1        1 GROUP             0 ****  ****    0  
@<TRIPOS>MOLECULE
ligand_5
    40    43     1     0     0
SMALL
NO_CHARGES
****
Generated from the CSD

@<TRIPOS>ATOM
     1 C1       7.8590   6.1598   6.0901   C.3       1 RES1   0.0000
     2 C2       7.1573   5.5737   4.8773   C.3       1 RES1   0.0000
     3 C3       7.1049   4.0719   5.0166   C.3       1 RES1   0.0000
     4 C4       5.7480   6.1283   4.7451   C.2       1 RES1   0.0000
     5 N5       4.9548   5.7572   3.6106   N.pl3     1 RES1   0.0000
     6 C6       3.7710   5.0269   3.9048   C.2       1 RES1   0.0000
     7 C7       3.6849   3.6250   3.3160   C.3       1 RES1   0.0000
     8 O8       4.7261   2.8397   3.8584   O.3       1 RES1   0.0000
     9 C9       2.2934   2.9390   3.5958   C.3       1 RES1   0.0000
    10 C10      2.3207   1.4008   3.4183   C.3       1 RES1   0.0000
    11 C11      1.0487   0.7927   3.8172   C.2       1 RES1   0.0000
    12 C12      0.8602   0.4089   5.1580   C.2       1 RES1   0.0000
    13 C13     -0.3525  -0.1275   5.5812   C.2       1 RES1   0.0000
    14 C14     -1.4141  -0.3019   4.6894   C.2       1 RES1   0.0000
    15 C15     -1.2483   0.0829   3.3520   C.2       1 RES1   0.0000
    16 C16     -0.0270   0.6242   2.9288   C.2       1 RES1   0.0000
    17 N17      1.3662   3.5234   2.7263   N.am      1 RES1   0.0000
    18 C18      0.1708   4.0256   3.0735   C.2       1 RES1   0.0000
    19 O19     -0.3258   4.0398   4.1993   O.2       1 RES1   0.0000
    20 O20     -0.5293   4.5918   2.0170   O.3       1 RES1   0.0000
    21 C21     -1.7804   5.2210   2.2119   C.3       1 RES1   0.0000
    22 C22     -1.9774   6.1082   0.9871   C.3       1 RES1   0.0000
    23 O23     -2.5863   5.2395   0.0153   O.3       1 RES1   0.0000
    24 C24     -3.5112   4.4039   0.7176   C.3       1 RES1   0.0000
    25 O25     -3.5838   3.1320   0.1112   O.3       1 RES1   0.0000
    26 C26     -2.5685   2.3425   0.7060   C.3       1 RES1   0.0000
    27 C27     -2.5915   2.7335   2.1699   C.3       1 RES1   0.0000
    28 C28     -2.9394   4.2269   2.1350   C.3       1 RES1   0.0000
    29 S29      5.0481   6.7171   2.2644   S.o2      1 RES1   0.0000
    30 O30      4.2886   6.1135   1.2339   O.2       1 RES1   0.0000
    31 O31      6.4082   7.0047   2.0285   O.2       1 RES1   0.0000
    32 C32      4.2580   8.2281   2.6790   C.2       1 RES1   0.0000
    33 C33      4.9913   9.2705   3.2313   C.2       1 RES1   0.0000
    34 C34      4.4462  10.4594   3.6096   C.2       1 RES1   0.0000
    35 C35      3.1050  10.7219   3.4820   C.2       1 RES1   0.0000
    36 B36      2.5584  12.0638   3.9395   B         1 RES1   0.0000
    37 O37      3.3214  13.0546   4.4824   O.3       1 RES1   0.0000
    38 O38      1.2468  12.2226   3.8454   O.3       1 RES1   0.0000
    39 C39      2.2985   9.6777   2.9417   C.2       1 RES1   0.0000
    40 C40      2.8841   8.4784   2.5574   C.2       1 RES1   0.0000
@<TRIPOS>BOND
     1     1     2    1
     2     2     3    1
     3     2     4    1
     4     4     5    1
     5     5     6    1
     6     6     7    1
     7     7     8    1
     8     7     9    1
     9     9    10    1
    10    10    11    1
    11    11    12    2
    12    12    13    1
    13    13    14    2
    14    14    15    1
    15    15    16    2
    16     9    17    1
    17    17    18   am
    18    18    19    2
    19    18    20    1
    20    21    20    1
    21    21    22    1
    22    22    23    1
    23    24    23    1
    24    24    25    1
    25    25    26    1
    26    26    27    1
    27    28    27    1
    28     5    29    1
    29    29    30    2
    30    29    31    2
    31    29    32    1
    32    32    33    2
    33    33    34    1
    34    34    35    2
    35    35    36    1
    36    36    37    1
    37    36    38    1
    38    35    39    1
    39    39    40    2
    40    16    11    1
    41    28    21    1
    42    40    32    1
    43    28    24    1
@<TRIPOS>SUBSTRUCTURE
     1 RES1        1 GROUP             0 ****  ****    0  
@<TRIPOS>MOLECULE
ligand_6
    40    43     1     0     0
SMALL
NO_CHARGES
****
Generated from the CSD

@<TRIPOS>ATOM
     1 C1      12.1330  -5.1643   4.5257   C.3       1 RES1   0.0000
     2 C2      12.1944  -3.7679   3.9316   C.3       1 RES1   0.0000
     3 C3      11.2207  -3.6784   2.7820   C.3       1 RES1   0.0000
     4 C4      11.8548  -2.7178   4.9773   C.2       1 RES1   0.0000
     5 N5      11.9528  -1.3305   4.6316   N.pl3     1 RES1   0.0000
     6 C6      10.7315  -0.6036   4.6673   C.2       1 RES1   0.0000
     7 C7      10.2884   0.0269   3.3538   C.3       1 RES1   0.0000
     8 O8      10.4099  -0.9332   2.3251   O.3       1 RES1   0.0000
     9 C9       8.8079   0.5651   3.4138   C.3       1 RES1   0.0000
    10 C10      8.3091   1.1409   2.0654   C.3       1 RES1   0.0000
    11 C11      6.8933   1.5121   2.1321   C.2       1 RES1   0.0000
    12 C12      5.9152   0.5572   1.7972   C.2       1 RES1   0.0000
    13 C13      4.5604   0.8611   1.8956   C.2       1 RES1   0.0000
    14 C14      4.1333   2.1199   2.3264   C.2       1 RES1   0.0000
    15 C15      5.0926   3.0810   2.6732   C.2       1 RES1   0.0000
    16 C16      6.4559   2.7721   2.5749   C.2       1 RES1   0.0000
    17 N17      8.7665   1.5401   4.4163   N.am      1 RES1   0.0000
    18 C18      7.8504   1.6244   5.3937   C.2       1 RES1   0.0000
    19 O19      6.8966   0.8693   5.5794   O.2       1 RES1   0.0000
    20 O20      8.0579   2.6818   6.2688   O.3       1 RES1   0.0000
    21 C21      7.1993   2.9109   7.3675   C.3       1 RES1   0.0000
    22 C22      7.7690   3.8211   8.4559   C.3       1 RES1   0.0000
    23 O23      6.6260   4.1877   9.2440   O.3       1 RES1   0.0000
    24 C24      5.5180   4.3231   8.3722   C.3       1 RES1   0.0000
    25 O25      5.2572   5.6846   8.1071   O.3       1 RES1   0.0000
    26 C26      6.0637   6.0414   6.9979   C.3       1 RES1   0.0000
    27 C27      6.0082   4.8422   6.0742   C.3       1 RES1   0.0000
    28 C28      5.8871   3.6518   7.0332   C.3       1 RES1   0.0000
    29 S29     13.3999  -0.5736   4.9062   S.o2      1 RES1   0.0000
    30 O30     13.3189   0.7421   4.3908   O.2       1 RES1   0.0000
    31 O31     14.4286  -1.4221   4.4479   O.2       1 RES1   0.0000
    32 C32     13.5666  -0.4428   6.6482   C.2       1 RES1   0.0000
    33 C33     14.1853  -1.4569   7.3682   C.2       1 RES1   0.0000
    34 C34     14.3236  -1.4448   8.7225   C.2       1 RES1   0.0000
    35 C35     13.8455  -0.4172   9.4968   C.2       1 RES1   0.0000
    36 B36     14.0183  -0.4741  11.0053   B         1 RES1   0.0000
    37 O37     14.6296  -1.4979  11.6663   O.3       1 RES1   0.0000
    38 O38     13.4762   0.5197  11.6929   O.3       1 RES1   0.0000
    39 C39     13.1796   0.6415   8.8125   C.2       1 RES1   0.0000
    40 C40     13.0606   0.6055   7.4292   C.2       1 RES1   0.0000
@<TRIPOS>BOND
     1     1     2    1
     2     2     3    1
     3     2     4    1
     4     4     5    1
     5     5     6    1
     6     6     7    1
     7     7     8    1
     8     7     9    1
     9     9    10    1
    10    10    11    1
    11    11    12    2
    12    12    13    1
    13    13    14    2
    14    14    15    1
    15    15    16    2
    16     9    17    1
    17    17    18   am
    18    18    19    2
    19    18    20    1
    20    21    20    1
    21    21    22    1
    22    22    23    1
    23    24    23    1
    24    24    25    1
    25    25    26    1
    26    26    27    1
    27    28    27    1
    28     5    29    1
    29    29    30    2
    30    29    31    2
    31    29    32    1
    32    32    33    2
    33    33    34    1
    34    34    35    2
    35    35    36    1
    36    36    37    1
    37    36    38    1
    38    35    39    1
    39    39    40    2
    40    16    11    1
    41    28    21    1
    42    40    32    1
    43    28    24    1
@<TRIPOS>SUBSTRUCTURE
     1 RES1        1 GROUP             0 ****  ****    0  
@<TRIPOS>MOLECULE
ligand_7
    40    43     1     0     0
SMALL
NO_CHARGES
****
Generated from the CSD

@<TRIPOS>ATOM
     1 C1       8.3774   4.3918  -2.1198   C.3       1 RES1   0.0000
     2 C2       6.9083   4.7446  -1.9652   C.3       1 RES1   0.0000
     3 C3       6.1388   3.4995  -1.5972   C.3       1 RES1   0.0000
     4 C4       6.7147   5.8055  -0.8936   C.2       1 RES1   0.0000
     5 N5       5.4022   6.3317  -0.6606   N.pl3     1 RES1   0.0000
     6 C6       4.8639   6.0825   0.6315   C.2       1 RES1   0.0000
     7 C7       3.5842   5.2581   0.6765   C.3       1 RES1   0.0000
     8 O8       3.8524   3.9737   0.1540   O.3       1 RES1   0.0000
     9 C9       2.9999   5.1330   2.1353   C.3       1 RES1   0.0000
    10 C10      3.8628   4.2479   3.0683   C.3       1 RES1   0.0000
    11 C11      3.3535   4.2617   4.4420   C.2       1 RES1   0.0000
    12 C12      3.8287   5.2335   5.3423   C.2       1 RES1   0.0000
    13 C13      3.3312   5.3054   6.6403   C.2       1 RES1   0.0000
    14 C14      2.3500   4.4162   7.0866   C.2       1 RES1   0.0000
    15 C15      1.8578   3.4472   6.2017   C.2       1 RES1   0.0000
    16 C16      2.3590   3.3780   4.8949   C.2       1 RES1   0.0000
    17 N17      1.7059   4.6149   2.0155   N.am      1 RES1   0.0000
    18 C18      0.5661   5.2842   2.2498   C.2       1 RES1   0.0000
    19 O19      0.4581   6.4568   2.6068   O.2       1 RES1   0.0000
    20 O20     -0.5811   4.5329   2.0346   O.3       1 RES1   0.0000
    21 C21     -1.8705   5.0841   2.2162   C.3       1 RES1   0.0000
    22 C22     -2.1648   5.8466   0.9286   C.3       1 RES1   0.0000
    23 O23     -2.7316   4.8561   0.0525   O.3       1 RES1   0.0000
    24 C24     -3.5729   4.0187   0.8511   C.3       1 RES1   0.0000
    25 O25     -3.5654   2.6977   0.3555   O.3       1 RES1   0.0000
    26 C26     -2.4789   2.0377   0.9814   C.3       1 RES1   0.0000
    27 C27     -2.4936   2.5498   2.4077   C.3       1 RES1   0.0000
    28 C28     -2.9533   4.0056   2.2594   C.3       1 RES1   0.0000
    29 S29      4.9489   7.6689  -1.5259   S.o2      1 RES1   0.0000
    30 O30      3.5925   7.9489  -1.2346   O.2       1 RES1   0.0000
    31 O31      5.3292   7.4677  -2.8688   O.2       1 RES1   0.0000
    32 C32      5.9028   9.0052  -0.9066   C.2       1 RES1   0.0000
    33 C33      5.4274   9.7713   0.1501   C.2       1 RES1   0.0000
    34 C34      6.0917  10.8426   0.6645   C.2       1 RES1   0.0000
    35 C35      7.2989  11.2629   0.1644   C.2       1 RES1   0.0000
    36 B36      7.9795  12.4769   0.7741   B         1 RES1   0.0000
    37 O37      7.4669  13.2005   1.8097   O.3       1 RES1   0.0000
    38 O38      9.1089  12.8628   0.1998   O.3       1 RES1   0.0000
    39 C39      7.8247  10.5269  -0.9376   C.2       1 RES1   0.0000
    40 C40      7.1281   9.4336  -1.4360   C.2       1 RES1   0.0000
@<TRIPOS>BOND
     1     1     2    1
     2     2     3    1
     3     2     4    1
     4     4     5    1
     5     5     6    1
     6     6     7    1
     7     7     8    1
     8     7     9    1
     9     9    10    1
    10    10    11    1
    11    11    12    2
    12    12    13    1
    13    13    14    2
    14    14    15    1
    15    15    16    2
    16     9    17    1
    17    17    18   am
    18    18    19    2
    19    18    20    1
    20    21    20    1
    21    21    22    1
    22    22    23    1
    23    24    23    1
    24    24    25    1
    25    25    26    1
    26    26    27    1
    27    28    27    1
    28     5    29    1
    29    29    30    2
    30    29    31    2
    31    29    32    1
    32    32    33    2
    33    33    34    1
    34    34    35    2
    35    35    36    1
    36    36    37    1
    37    36    38    1
    38    35    39    1
    39    39    40    2
    40    16    11    1
    41    28    21    1
    42    40    32    1
    43    28    24    1
@<TRIPOS>SUBSTRUCTURE
     1 RES1        1 GROUP             0 ****  ****    0  
@<TRIPOS>MOLECULE
ligand_8
    40    43     1     0     0
SMALL
NO_CHARGES
****
Generated from the CSD

@<TRIPOS>ATOM
     1 C1       9.1065   3.9494   3.9317   C.3       1 RES1   0.0000
     2 C2       7.7227   4.5736   3.8855   C.3       1 RES1   0.0000
     3 C3       7.1188   4.3326   2.5236   C.3       1 RES1   0.0000
     4 C4       6.8241   3.9816   4.9595   C.2       1 RES1   0.0000
     5 N5       5.5009   4.5049   5.1298   N.pl3     1 RES1   0.0000
     6 C6       4.4437   3.5877   4.8799   C.2       1 RES1   0.0000
     7 C7       3.4932   3.9533   3.7476   C.3       1 RES1   0.0000
     8 O8       4.2205   3.9892   2.5375   O.3       1 RES1   0.0000
     9 C9       2.2904   2.9421   3.6214   C.3       1 RES1   0.0000
    10 C10      2.7151   1.5443   3.1073   C.3       1 RES1   0.0000
    11 C11      1.5926   0.6028   3.1254   C.2       1 RES1   0.0000
    12 C12      1.3615  -0.1703   4.2786   C.2       1 RES1   0.0000
    13 C13      0.2762  -1.0391   4.3475   C.2       1 RES1   0.0000
    14 C14     -0.6115  -1.1703   3.2764   C.2       1 RES1   0.0000
    15 C15     -0.4030  -0.4018   2.1230   C.2       1 RES1   0.0000
    16 C16      0.6893   0.4733   2.0567   C.2       1 RES1   0.0000
    17 N17      1.3538   3.5246   2.7608   N.am      1 RES1   0.0000
    18 C18      0.1492   3.9994   3.1149   C.2       1 RES1   0.0000
    19 O19     -0.3390   4.0067   4.2445   O.2       1 RES1   0.0000
    20 O20     -0.5723   4.5438   2.0614   O.3       1 RES1   0.0000
    21 C21     -1.8549   5.1061   2.2563   C.3       1 RES1   0.0000
    22 C22     -2.0922   5.9932   1.0386   C.3       1 RES1   0.0000
    23 O23     -2.6518   5.1032   0.0563   O.3       1 RES1   0.0000
    24 C24     -3.5353   4.2149   0.7469   C.3       1 RES1   0.0000
    25 O25     -3.5400   2.9465   0.1289   O.3       1 RES1   0.0000
    26 C26     -2.4879   2.2047   0.7212   C.3       1 RES1   0.0000
    27 C27     -2.5369   2.5807   2.1885   C.3       1 RES1   0.0000
    28 C28     -2.9610   4.0546   2.1653   C.3       1 RES1   0.0000
    29 S29      5.3044   5.7577   6.1949   S.o2      1 RES1   0.0000
    30 O30      3.9604   6.1957   6.1238   O.2       1 RES1   0.0000
    31 O31      6.3372   6.6898   5.9655   O.2       1 RES1   0.0000
    32 C32      5.5510   5.0871   7.7976   C.2       1 RES1   0.0000
    33 C33      4.4767   4.5716   8.5115   C.2       1 RES1   0.0000
    34 C34      4.5806   4.0650   9.7709   C.2       1 RES1   0.0000
    35 C35      5.7734   4.0325  10.4493   C.2       1 RES1   0.0000
    36 B36      5.8168   3.4687  11.8596   B         1 RES1   0.0000
    37 O37      4.7296   2.9788  12.5205   O.3       1 RES1   0.0000
    38 O38      6.9875   3.5281  12.4763   O.3       1 RES1   0.0000
    39 C39      6.9075   4.5705   9.7733   C.2       1 RES1   0.0000
    40 C40      6.7723   5.0733   8.4857   C.2       1 RES1   0.0000
@<TRIPOS>BOND
     1     1     2    1
     2     2     3    1
     3     2     4    1
     4     4     5    1
     5     5     6    1
     6     6     7    1
     7     7     8    1
     8     7     9    1
     9     9    10    1
    10    10    11    1
    11    11    12    2
    12    12    13    1
    13    13    14    2
    14    14    15    1
    15    15    16    2
    16     9    17    1
    17    17    18   am
    18    18    19    2
    19    18    20    1
    20    21    20    1
    21    21    22    1
    22    22    23    1
    23    24    23    1
    24    24    25    1
    25    25    26    1
    26    26    27    1
    27    28    27    1
    28     5    29    1
    29    29    30    2
    30    29    31    2
    31    29    32    1
    32    32    33    2
    33    33    34    1
    34    34    35    2
    35    35    36    1
    36    36    37    1
    37    36    38    1
    38    35    39    1
    39    39    40    2
    40    16    11    1
    41    28    21    1
    42    40    32    1
    43    28    24    1
@<TRIPOS>SUBSTRUCTURE
     1 RES1        1 GROUP             0 ****  ****    0  
@<TRIPOS>MOLECULE
ligand_9
    40    43     1     0     0
SMALL
NO_CHARGES
****
Generated from the CSD

@<TRIPOS>ATOM
     1 C1       4.1499   9.6740  -3.1253   C.3       1 RES1   0.0000
     2 C2       4.4152   8.3108  -2.5105   C.3       1 RES1   0.0000
     3 C3       5.3162   8.4781  -1.3114   C.3       1 RES1   0.0000
     4 C4       3.1159   7.6432  -2.0894   C.2       1 RES1   0.0000
     5 N5       3.1557   6.3177  -1.5459   N.pl3     1 RES1   0.0000
     6 C6       2.7572   6.2023  -0.1860   C.2       1 RES1   0.0000
     7 C7       3.5842   5.2581   0.6765   C.3       1 RES1   0.0000
     8 O8       4.9215   5.7120   0.6934   O.3       1 RES1   0.0000
     9 C9       3.0345   5.1522   2.1502   C.3       1 RES1   0.0000
    10 C10      3.9049   4.2577   3.0671   C.3       1 RES1   0.0000
    11 C11      3.4304   4.2888   4.4530   C.2       1 RES1   0.0000
    12 C12      3.9448   5.2577   5.3348   C.2       1 RES1   0.0000
    13 C13      3.4812   5.3461   6.6443   C.2       1 RES1   0.0000
    14 C14      2.4963   4.4770   7.1207   C.2       1 RES1   0.0000
    15 C15      1.9653   3.5114   6.2546   C.2       1 RES1   0.0000
    16 C16      2.4324   3.4254   4.9363   C.2       1 RES1   0.0000
    17 N17      1.7291   4.6561   2.0660   N.am      1 RES1   0.0000
    18 C18      0.6073   5.3466   2.3242   C.2       1 RES1   0.0000
    19 O19      0.5286   6.5231   2.6762   O.2       1 RES1   0.0000
    20 O20     -0.5578   4.6143   2.1426   O.3       1 RES1   0.0000
    21 C21     -1.8325   5.1890   2.3526   C.3       1 RES1   0.0000
    22 C22     -2.1456   5.9488   1.0678   C.3       1 RES1   0.0000
    23 O23     -2.7513   4.9630   0.2125   O.3       1 RES1   0.0000
    24 C24     -3.5867   4.1454   1.0373   C.3       1 RES1   0.0000
    25 O25     -3.6146   2.8214   0.5503   O.3       1 RES1   0.0000
    26 C26     -2.5244   2.1463   1.1533   C.3       1 RES1   0.0000
    27 C27     -2.4946   2.6673   2.5761   C.3       1 RES1   0.0000
    28 C28     -2.9324   4.1300   2.4298   C.3       1 RES1   0.0000
    29 S29      2.9633   5.0531  -2.5976   S.o2      1 RES1   0.0000
    30 O30      3.1571   3.8467  -1.8832   O.2       1 RES1   0.0000
    31 O31      3.7592   5.3069  -3.7335   O.2       1 RES1   0.0000
    32 C32      1.2868   5.0906  -3.1143   C.2       1 RES1   0.0000
    33 C33      0.3215   4.3888  -2.4035   C.2       1 RES1   0.0000
    34 C34     -0.9920   4.3415  -2.7589   C.2       1 RES1   0.0000
    35 C35     -1.4716   4.9860  -3.8718   C.2       1 RES1   0.0000
    36 B36     -2.9464   4.8784  -4.2212   B         1 RES1   0.0000
    37 O37     -3.8547   4.1700  -3.4920   O.3       1 RES1   0.0000
    38 O38     -3.3254   5.4724  -5.3428   O.3       1 RES1   0.0000
    39 C39     -0.5199   5.7041  -4.6536   C.2       1 RES1   0.0000
    40 C40      0.8120   5.7409  -4.2618   C.2       1 RES1   0.0000
@<TRIPOS>BOND
     1     1     2    1
     2     2     3    1
     3     2     4    1
     4     4     5    1
     5     5     6    1
     6     6     7    1
     7     7     8    1
     8     7     9    1
     9     9    10    1
    10    10    11    1
    11    11    12    2
    12    12    13    1
    13    13    14    2
    14    14    15    1
    15    15    16    2
    16     9    17    1
    17    17    18   am
    18    18    19    2
    19    18    20    1
    20    21    20    1
    21    21    22    1
    22    22    23    1
    23    24    23    1
    24    24    25    1
    25    25    26    1
    26    26    27    1
    27    28    27    1
    28     5    29    1
    29    29    30    2
    30    29    31    2
    31    29    32    1
    32    32    33    2
    33    33    34    1
    34    34    35    2
    35    35    36    1
    36    36    37    1
    37    36    38    1
    38    35    39    1
    39    39    40    2
    40    16    11    1
    41    28    21    1
    42    40    32    1
    43    28    24    1
@<TRIPOS>SUBSTRUCTURE
     1 RES1        1 GROUP             0 ****  ****    0  
@<TRIPOS>MOLECULE
ligand_10
    40    43     1     0     0
SMALL
NO_CHARGES
****
Generated from the CSD

@<TRIPOS>ATOM
     1 C1       5.0609   7.9497   7.7280   C.3       1 RES1   0.0000
     2 C2       5.2291   6.9931   6.5605   C.3       1 RES1   0.0000
     3 C3       5.3571   5.5860   7.0911   C.3       1 RES1   0.0000
     4 C4       4.0440   7.0802   5.6122   C.2       1 RES1   0.0000
     5 N5       4.0505   6.2971   4.4120   N.pl3     1 RES1   0.0000
     6 C6       3.0526   5.2874   4.3353   C.2       1 RES1   0.0000
     7 C7       3.4932   3.9533   3.7476   C.3       1 RES1   0.0000
     8 O8       4.5299   3.4245   4.5479   O.3       1 RES1   0.0000
     9 C9       2.3085   2.9178   3.6505   C.3       1 RES1   0.0000
    10 C10      2.7493   1.5281   3.1279   C.3       1 RES1   0.0000
    11 C11      1.6468   0.5642   3.1732   C.2       1 RES1   0.0000
    12 C12      1.4585  -0.2118   4.3321   C.2       1 RES1   0.0000
    13 C13      0.3929  -1.1023   4.4273   C.2       1 RES1   0.0000
    14 C14     -0.5168  -1.2529   3.3774   C.2       1 RES1   0.0000
    15 C15     -0.3510  -0.4820   2.2187   C.2       1 RES1   0.0000
    16 C16      0.7216   0.4150   2.1260   C.2       1 RES1   0.0000
    17 N17      1.3404   3.4801   2.8116   N.am      1 RES1   0.0000
    18 C18      0.1351   3.9309   3.1934   C.2       1 RES1   0.0000
    19 O19     -0.3267   3.9298   4.3341   O.2       1 RES1   0.0000
    20 O20     -0.6218   4.4591   2.1565   O.3       1 RES1   0.0000
    21 C21     -1.9105   4.9957   2.3809   C.3       1 RES1   0.0000
    22 C22     -2.1942   5.8761   1.1683   C.3       1 RES1   0.0000
    23 O23     -2.7586   4.9736   0.2003   O.3       1 RES1   0.0000
    24 C24     -3.6076   4.0686   0.9123   C.3       1 RES1   0.0000
    25 O25     -3.6012   2.7995   0.2958   O.3       1 RES1   0.0000
    26 C26     -2.5207   2.0800   0.8640   C.3       1 RES1   0.0000
    27 C27     -2.5429   2.4570   2.3316   C.3       1 RES1   0.0000
    28 C28     -2.9970   3.9220   2.3169   C.3       1 RES1   0.0000
    29 S29      4.6506   7.0041   3.0400   S.o2      1 RES1   0.0000
    30 O30      4.6790   6.0303   2.0134   O.2       1 RES1   0.0000
    31 O31      5.8464   7.6693   3.3806   O.2       1 RES1   0.0000
    32 C32      3.4872   8.2292   2.5658   C.2       1 RES1   0.0000
    33 C33      2.4449   7.9063   1.7062   C.2       1 RES1   0.0000
    34 C34      1.5228   8.8063   1.2664   C.2       1 RES1   0.0000
    35 C35      1.5572  10.1277   1.6362   C.2       1 RES1   0.0000
    36 B36      0.5071  11.0835   1.0956   B         1 RES1   0.0000
    37 O37     -0.4951  10.7171   0.2469   O.3       1 RES1   0.0000
    38 O38      0.6401  12.3546   1.4435   O.3       1 RES1   0.0000
    39 C39      2.6207  10.5215   2.5003   C.2       1 RES1   0.0000
    40 C40      3.5420   9.5793   2.9388   C.2       1 RES1   0.0000
@<TRIPOS>BOND
     1     1     2    1
     2     2     3    1
     3     2     4    1
     4     4     5    1
     5     5     6    1
     6     6     7    1
     7     7     8    1
     8     7     9    1
     9     9    10    1
    10    10    11    1
    11    11    12    2
    12    12    13    1
    13    13    14    2
    14    14    15    1
    15    15    16    2
    16     9    17    1
    17    17    18   am
    18    18    19    2
    19    18    20    1
    20    21    20    1
    21    21    22    1
    22    22    23    1
    23    24    23    1
    24    24    25    1
    25    25    26    1
    26    26    27    1
    27    28    27    1
    28     5    29    1
    29    29    30    2
    30    29    31    2
    31    29    32    1
    32    32    33    2
    33    33    34    1
    34    34    35    2
    35    35    36    1
    36    36    37    1
    37    36    38    1
    38    35    39    1
    39    39    40    2
    40    16    11    1
    41    28    21    1
    42    40    32    1
    43    28    24    1
@<TRIPOS>SUBSTRUCTURE
     1 RES1        1 GROUP             0 ****  ****    0  
@<TRIPOS>MOLECULE
ligand_11
    40    43     1     0     0
SMALL
NO_CHARGES
****
Generated from the CSD

@<TRIPOS>ATOM
     1 C1       3.0480   3.4184  -4.0618   C.3       1 RES1   0.0000
     2 C2       2.5825   4.7300  -3.4537   C.3       1 RES1   0.0000
     3 C3       1.1255   4.6096  -3.0792   C.3       1 RES1   0.0000
     4 C4       3.4037   5.0792  -2.2228   C.2       1 RES1   0.0000
     5 N5       3.1557   6.3177  -1.5459   N.pl3     1 RES1   0.0000
     6 C6       2.7572   6.2023  -0.1860   C.2       1 RES1   0.0000
     7 C7       3.5842   5.2581   0.6765   C.3       1 RES1   0.0000
     8 O8       4.9275   5.6944   0.6684   O.3       1 RES1   0.0000
     9 C9       3.0546   5.1780   2.1592   C.3       1 RES1   0.0000
    10 C10      3.9265   4.2836   3.0748   C.3       1 RES1   0.0000
    11 C11      3.4726   4.3384   4.4669   C.2       1 RES1   0.0000
    12 C12      4.0124   5.3113   5.3288   C.2       1 RES1   0.0000
    13 C13      3.5691   5.4224   6.6435   C.2       1 RES1   0.0000
    14 C14      2.5798   4.5725   7.1451   C.2       1 RES1   0.0000
    15 C15      2.0238   3.6032   6.2991   C.2       1 RES1   0.0000
    16 C16      2.4705   3.4945   4.9754   C.2       1 RES1   0.0000
    17 N17      1.7417   4.6983   2.1001   N.am      1 RES1   0.0000
    18 C18      0.6330   5.4068   2.3655   C.2       1 RES1   0.0000
    19 O19      0.5748   6.5886   2.7036   O.2       1 RES1   0.0000
    20 O20     -0.5442   4.6878   2.2100   O.3       1 RES1   0.0000
    21 C21     -1.8080   5.2820   2.4309   C.3       1 RES1   0.0000
    22 C22     -2.1298   6.0297   1.1412   C.3       1 RES1   0.0000
    23 O23     -2.7607   5.0414   0.3074   O.3       1 RES1   0.0000
    24 C24     -3.5947   4.2454   1.1544   C.3       1 RES1   0.0000
    25 O25     -3.6470   2.9159   0.6848   O.3       1 RES1   0.0000
    26 C26     -2.5570   2.2340   1.2805   C.3       1 RES1   0.0000
    27 C27     -2.4997   2.7723   2.6960   C.3       1 RES1   0.0000
    28 C28     -2.9205   4.2387   2.5374   C.3       1 RES1   0.0000
    29 S29      3.9652   7.6589  -2.0827   S.o2      1 RES1   0.0000
    30 O30      3.4947   8.7816  -1.3606   O.2       1 RES1   0.0000
    31 O31      3.8930   7.6761  -3.4908   O.2       1 RES1   0.0000
    32 C32      5.6494   7.4267  -1.6479   C.2       1 RES1   0.0000
    33 C33      6.1412   7.9481  -0.4580   C.2       1 RES1   0.0000
    34 C34      7.4405   7.8391  -0.0662   C.2       1 RES1   0.0000
    35 C35      8.3844   7.2035  -0.8338   C.2       1 RES1   0.0000
    36 B36      9.8214   7.1320  -0.3454   B         1 RES1   0.0000
    37 O37     10.2561   7.6666   0.8311   O.3       1 RES1   0.0000
    38 O38     10.6894   6.5605  -1.1666   O.3       1 RES1   0.0000
    39 C39      7.9405   6.6685  -2.0785   C.2       1 RES1   0.0000
    40 C40      6.6071   6.7882  -2.4479   C.2       1 RES1   0.0000
@<TRIPOS>BOND
     1     1     2    1
     2     2     3    1
     3     2     4    1
     4     4     5    1
     5     5     6    1
     6     6     7    1
     7     7     8    1
     8     7     9    1
     9     9    10    1
    10    10    11    1
    11    11    12    2
    12    12    13    1
    13    13    14    2
    14    14    15    1
    15    15    16    2
    16     9    17    1
    17    17    18   am
    18    18    19    2
    19    18    20    1
    20    21    20    1
    21    21    22    1
    22    22    23    1
    23    24    23    1
    24    24    25    1
    25    25    26    1
    26    26    27    1
    27    28    27    1
    28     5    29    1
    29    29    30    2
    30    29    31    2
    31    29    32    1
    32    32    33    2
    33    33    34    1
    34    34    35    2
    35    35    36    1
    36    36    37    1
    37    36    38    1
    38    35    39    1
    39    39    40    2
    40    16    11    1
    41    28    21    1
    42    40    32    1
    43    28    24    1
@<TRIPOS>SUBSTRUCTURE
     1 RES1        1 GROUP             0 ****  ****    0  
@<TRIPOS>MOLECULE
ligand_12
    40    43     1     0     0
SMALL
NO_CHARGES
****
Generated from the CSD

@<TRIPOS>ATOM
     1 C1       5.7610   7.8538   1.3463   C.3       1 RES1   0.0000
     2 C2       4.8190   7.8416   2.5376   C.3       1 RES1   0.0000
     3 C3       3.4226   8.1643   2.0647   C.3       1 RES1   0.0000
     4 C4       4.8298   6.4851   3.2241   C.2       1 RES1   0.0000
     5 N5       4.0505   6.2971   4.4120   N.pl3     1 RES1   0.0000
     6 C6       3.0526   5.2874   4.3353   C.2       1 RES1   0.0000
     7 C7       3.4932   3.9533   3.7476   C.3       1 RES1   0.0000
     8 O8       4.5508   3.4393   4.5300   O.3       1 RES1   0.0000
     9 C9       2.3162   2.9066   3.6817   C.3       1 RES1   0.0000
    10 C10      2.7589   1.5174   3.1595   C.3       1 RES1   0.0000
    11 C11      1.6663   0.5439   3.2337   C.2       1 RES1   0.0000
    12 C12      1.5087  -0.2257   4.4014   C.2       1 RES1   0.0000
    13 C13      0.4535  -1.1250   4.5243   C.2       1 RES1   0.0000
    14 C14     -0.4761  -1.2910   3.4943   C.2       1 RES1   0.0000
    15 C15     -0.3410  -0.5266   2.3273   C.2       1 RES1   0.0000
    16 C16      0.7213   0.3793   2.2067   C.2       1 RES1   0.0000
    17 N17      1.3261   3.4545   2.8590   N.am      1 RES1   0.0000
    18 C18      0.1248   3.8971   3.2625   C.2       1 RES1   0.0000
    19 O19     -0.3135   3.8997   4.4123   O.2       1 RES1   0.0000
    20 O20     -0.6578   4.4114   2.2378   O.3       1 RES1   0.0000
    21 C21     -1.9466   4.9379   2.4850   C.3       1 RES1   0.0000
    22 C22     -2.2629   5.8076   1.2727   C.3       1 RES1   0.0000
    23 O23     -2.8386   4.8937   0.3222   O.3       1 RES1   0.0000
    24 C24     -3.6646   3.9859   1.0573   C.3       1 RES1   0.0000
    25 O25     -3.6592   2.7128   0.4490   O.3       1 RES1   0.0000
    26 C26     -2.5609   2.0068   0.9996   C.3       1 RES1   0.0000
    27 C27     -2.5567   2.3934   2.4650   C.3       1 RES1   0.0000
    28 C28     -3.0243   3.8541   2.4501   C.3       1 RES1   0.0000
    29 S29      4.7549   6.6868   5.8592   S.o2      1 RES1   0.0000
    30 O30      3.7865   6.5363   6.8804   O.2       1 RES1   0.0000
    31 O31      5.3976   7.9328   5.7088   O.2       1 RES1   0.0000
    32 C32      6.0022   5.4852   6.1412   C.2       1 RES1   0.0000
    33 C33      5.7236   4.3544   6.8983   C.2       1 RES1   0.0000
    34 C34      6.6447   3.3948   7.1889   C.2       1 RES1   0.0000
    35 C35      7.9453   3.4758   6.7577   C.2       1 RES1   0.0000
    36 B36      8.9272   2.3782   7.1317   B         1 RES1   0.0000
    37 O37      8.6046   1.2883   7.8845   O.3       1 RES1   0.0000
    38 O38     10.1787   2.5547   6.7355   O.3       1 RES1   0.0000
    39 C39      8.2945   4.6285   5.9948   C.2       1 RES1   0.0000
    40 C40      7.3314   5.5870   5.7076   C.2       1 RES1   0.0000
@<TRIPOS>BOND
     1     1     2    1
     2     2     3    1
     3     2     4    1
     4     4     5    1
     5     5     6    1
     6     6     7    1
     7     7     8    1
     8     7     9    1
     9     9    10    1
    10    10    11    1
    11    11    12    2
    12    12    13    1
    13    13    14    2
    14    14    15    1
    15    15    16    2
    16     9    17    1
    17    17    18   am
    18    18    19    2
    19    18    20    1
    20    21    20    1
    21    21    22    1
    22    22    23    1
    23    24    23    1
    24    24    25    1
    25    25    26    1
    26    26    27    1
    27    28    27    1
    28     5    29    1
    29    29    30    2
    30    29    31    2
    31    29    32    1
    32    32    33    2
    33    33    34    1
    34    34    35    2
    35    35    36    1
    36    36    37    1
    37    36    38    1
    38    35    39    1
    39    39    40    2
    40    16    11    1
    41    28    21    1
    42    40    32    1
    43    28    24    1
@<TRIPOS>SUBSTRUCTURE
     1 RES1        1 GROUP             0 ****  ****    0  
@<TRIPOS>MOLECULE
ligand_13
    40    43     1     0     0
SMALL
NO_CHARGES
****
Generated from the CSD

@<TRIPOS>ATOM
     1 C1      16.0453   3.5918   2.1665   C.3       1 RES1   0.0000
     2 C2      14.6123   3.9125   2.5541   C.3       1 RES1   0.0000
     3 C3      13.6823   2.9793   1.8180   C.3       1 RES1   0.0000
     4 C4      14.4096   3.7647   4.0536   C.2       1 RES1   0.0000
     5 N5      13.1292   4.0719   4.6192   N.pl3     1 RES1   0.0000
     6 C6      12.4717   2.9907   5.2673   C.2       1 RES1   0.0000
     7 C7      12.0899   1.8115   4.3826   C.3       1 RES1   0.0000
     8 O8      13.2262   0.9924   4.2018   O.3       1 RES1   0.0000
     9 C9      10.9072   0.9629   4.9879   C.3       1 RES1   0.0000
    10 C10     10.5563  -0.2888   4.1461   C.3       1 RES1   0.0000
    11 C11      9.5419  -1.1128   4.8084   C.2       1 RES1   0.0000
    12 C12      9.9507  -2.1313   5.6895   C.2       1 RES1   0.0000
    13 C13      9.0131  -2.9011   6.3719   C.2       1 RES1   0.0000
    14 C14      7.6428  -2.6872   6.2011   C.2       1 RES1   0.0000
    15 C15      7.2164  -1.6713   5.3348   C.2       1 RES1   0.0000
    16 C16      8.1623  -0.8966   4.6502   C.2       1 RES1   0.0000
    17 N17      9.8034   1.8158   5.0943   N.am      1 RES1   0.0000
    18 C18      9.0204   1.9574   6.1753   C.2       1 RES1   0.0000
    19 O19      9.1326   1.3700   7.2508   O.2       1 RES1   0.0000
    20 O20      8.0040   2.8891   6.0150   O.3       1 RES1   0.0000
    21 C21      7.0956   3.1784   7.0581   C.3       1 RES1   0.0000
    22 C22      7.6419   4.0878   8.1590   C.3       1 RES1   0.0000
    23 O23      6.4733   4.5196   8.8730   O.3       1 RES1   0.0000
    24 C24      5.4231   4.6821   7.9367   C.3       1 RES1   0.0000
    25 O25      5.2366   6.0471   7.6303   O.3       1 RES1   0.0000
    26 C26      6.1190   6.3449   6.5622   C.3       1 RES1   0.0000
    27 C27      6.0638   5.1289   5.6608   C.3       1 RES1   0.0000
    28 C28      5.8375   3.9663   6.6346   C.3       1 RES1   0.0000
    29 S29     12.8546   5.6364   5.0875   S.o2      1 RES1   0.0000
    30 O30     11.5041   5.7483   5.4959   O.2       1 RES1   0.0000
    31 O31     13.3298   6.4858   4.0671   O.2       1 RES1   0.0000
    32 C32     13.8532   5.9108   6.5041   C.2       1 RES1   0.0000
    33 C33     15.1497   6.3889   6.3622   C.2       1 RES1   0.0000
    34 C34     15.9966   6.5959   7.4079   C.2       1 RES1   0.0000
    35 C35     15.6330   6.3346   8.7054   C.2       1 RES1   0.0000
    36 B36     16.6327   6.5720   9.8247   B         1 RES1   0.0000
    37 O37     17.8993   7.0382   9.6319   O.3       1 RES1   0.0000
    38 O38     16.2352   6.2377  11.0432   O.3       1 RES1   0.0000
    39 C39     14.3194   5.8192   8.9091   C.2       1 RES1   0.0000
    40 C40     13.4751   5.6258   7.8235   C.2       1 RES1   0.0000
@<TRIPOS>BOND
     1     1     2    1
     2     2     3    1
     3     2     4    1
     4     4     5    1
     5     5     6    1
     6     6     7    1
     7     7     8    1
     8     7     9    1
     9     9    10    1
    10    10    11    1
    11    11    12    2
    12    12    13    1
    13    13    14    2
    14    14    15    1
    15    15    16    2
    16     9    17    1
    17    17    18   am
    18    18    19    2
    19    18    20    1
    20    21    20    1
    21    21    22    1
    22    22    23    1
    23    24    23    1
    24    24    25    1
    25    25    26    1
    26    26    27    1
    27    28    27    1
    28     5    29    1
    29    29    30    2
    30    29    31    2
    31    29    32    1
    32    32    33    2
    33    33    34    1
    34    34    35    2
    35    35    36    1
    36    36    37    1
    37    36    38    1
    38    35    39    1
    39    39    40    2
    40    16    11    1
    41    28    21    1
    42    40    32    1
    43    28    24    1
@<TRIPOS>SUBSTRUCTURE
     1 RES1        1 GROUP             0 ****  ****    0  
@<TRIPOS>MOLECULE
ligand_14
    40    43     1     0     0
SMALL
NO_CHARGES
****
Generated from the CSD

@<TRIPOS>ATOM
     1 C1       5.8597   8.3371  -3.3786   C.3       1 RES1   0.0000
     2 C2       5.2031   7.1031  -2.7846   C.3       1 RES1   0.0000
     3 C3       6.1677   6.4433  -1.8297   C.3       1 RES1   0.0000
     4 C4       3.9223   7.4693  -2.0520   C.2       1 RES1   0.0000
     5 N5       3.1202   6.4267  -1.4833   N.pl3     1 RES1   0.0000
     6 C6       2.9994   6.4517  -0.0670   C.2       1 RES1   0.0000
     7 C7       3.5842   5.2581   0.6765   C.3       1 RES1   0.0000
     8 O8       4.9918   5.3730   0.6844   O.3       1 RES1   0.0000
     9 C9       3.0462   5.1471   2.1542   C.3       1 RES1   0.0000
    10 C10      3.9293   4.2572   3.0635   C.3       1 RES1   0.0000
    11 C11      3.4650   4.2837   4.4530   C.2       1 RES1   0.0000
    12 C12      3.9798   5.2549   5.3319   C.2       1 RES1   0.0000
    13 C13      3.5255   5.3390   6.6450   C.2       1 RES1   0.0000
    14 C14      2.5497   4.4630   7.1278   C.2       1 RES1   0.0000
    15 C15      2.0185   3.4950   6.2646   C.2       1 RES1   0.0000
    16 C16      2.4762   3.4135   4.9427   C.2       1 RES1   0.0000
    17 N17      1.7435   4.6427   2.0792   N.am      1 RES1   0.0000
    18 C18      0.6224   5.3105   2.3941   C.2       1 RES1   0.0000
    19 O19      0.5413   6.4737   2.7876   O.2       1 RES1   0.0000
    20 O20     -0.5395   4.5705   2.2229   O.3       1 RES1   0.0000
    21 C21     -1.8104   5.1080   2.5313   C.3       1 RES1   0.0000
    22 C22     -2.1907   5.9555   1.3217   C.3       1 RES1   0.0000
    23 O23     -2.8222   5.0260   0.4231   O.3       1 RES1   0.0000
    24 C24     -3.6092   4.1367   1.2209   C.3       1 RES1   0.0000
    25 O25     -3.6426   2.8520   0.6385   O.3       1 RES1   0.0000
    26 C26     -2.5179   2.1515   1.1408   C.3       1 RES1   0.0000
    27 C27     -2.4302   2.5666   2.5957   C.3       1 RES1   0.0000
    28 C28     -2.8924   4.0289   2.5781   C.3       1 RES1   0.0000
    29 S29      1.9215   5.7821  -2.4267   S.o2      1 RES1   0.0000
    30 O30      1.3101   4.7261  -1.7097   O.2       1 RES1   0.0000
    31 O31      2.4660   5.5148  -3.6997   O.2       1 RES1   0.0000
    32 C32      0.7179   7.0432  -2.6267   C.2       1 RES1   0.0000
    33 C33      0.8112   7.9351  -3.6875   C.2       1 RES1   0.0000
    34 C34     -0.0627   8.9590  -3.8919   C.2       1 RES1   0.0000
    35 C35     -1.1163   9.2003  -3.0459   C.2       1 RES1   0.0000
    36 B36     -2.0449  10.3707  -3.3225   B         1 RES1   0.0000
    37 O37     -1.9065  11.2232  -4.3774   O.3       1 RES1   0.0000
    38 O38     -3.0005  10.5814  -2.4298   O.3       1 RES1   0.0000
    39 C39     -1.2479   8.3291  -1.9251   C.2       1 RES1   0.0000
    40 C40     -0.3456   7.2884  -1.7470   C.2       1 RES1   0.0000
@<TRIPOS>BOND
     1     1     2    1
     2     2     3    1
     3     2     4    1
     4     4     5    1
     5     5     6    1
     6     6     7    1
     7     7     8    1
     8     7     9    1
     9     9    10    1
    10    10    11    1
    11    11    12    2
    12    12    13    1
    13    13    14    2
    14    14    15    1
    15    15    16    2
    16     9    17    1
    17    17    18   am
    18    18    19    2
    19    18    20    1
    20    21    20    1
    21    21    22    1
    22    22    23    1
    23    24    23    1
    24    24    25    1
    25    25    26    1
    26    26    27    1
    27    28    27    1
    28     5    29    1
    29    29    30    2
    30    29    31    2
    31    29    32    1
    32    32    33    2
    33    33    34    1
    34    34    35    2
    35    35    36    1
    36    36    37    1
    37    36    38    1
    38    35    39    1
    39    39    40    2
    40    16    11    1
    41    28    21    1
    42    40    32    1
    43    28    24    1
@<TRIPOS>SUBSTRUCTURE
     1 RES1        1 GROUP             0 ****  ****    0  
@<TRIPOS>MOLECULE
ligand_15
    40    43     1     0     0
SMALL
NO_CHARGES
****
Generated from the CSD

@<TRIPOS>ATOM
     1 C1      16.7626   4.7037   6.4012   C.3       1 RES1   0.0000
     2 C2      15.8615   4.0374   5.3761   C.3       1 RES1   0.0000
     3 C3      16.0432   2.5414   5.4589   C.3       1 RES1   0.0000
     4 C4      14.4041   4.3936   5.6216   C.2       1 RES1   0.0000
     5 N5      13.4046   3.9106   4.7152   N.pl3     1 RES1   0.0000
     6 C6      12.4717   2.9907   5.2673   C.2       1 RES1   0.0000
     7 C7      12.0899   1.8115   4.3826   C.3       1 RES1   0.0000
     8 O8      13.2540   1.0669   4.0906   O.3       1 RES1   0.0000
     9 C9      11.0108   0.8793   5.0547   C.3       1 RES1   0.0000
    10 C10     10.6641  -0.3691   4.2062   C.3       1 RES1   0.0000
    11 C11      9.7557  -1.2683   4.9224   C.2       1 RES1   0.0000
    12 C12     10.2924  -2.2830   5.7367   C.2       1 RES1   0.0000
    13 C13      9.4590  -3.1241   6.4684   C.2       1 RES1   0.0000
    14 C14      8.0694  -2.9873   6.4144   C.2       1 RES1   0.0000
    15 C15      7.5165  -1.9767   5.6161   C.2       1 RES1   0.0000
    16 C16      8.3578  -1.1301   4.8817   C.2       1 RES1   0.0000
    17 N17      9.8726   1.6624   5.2748   N.am      1 RES1   0.0000
    18 C18      9.1737   1.7298   6.4188   C.2       1 RES1   0.0000
    19 O19      9.4067   1.1227   7.4637   O.2       1 RES1   0.0000
    20 O20      8.0963   2.6035   6.3686   O.3       1 RES1   0.0000
    21 C21      7.2612   2.8118   7.4894   C.3       1 RES1   0.0000
    22 C22      7.8429   3.7236   8.5701   C.3       1 RES1   0.0000
    23 O23      6.7139   4.0671   9.3881   O.3       1 RES1   0.0000
    24 C24      5.5831   4.1910   8.5442   C.3       1 RES1   0.0000
    25 O25      5.2950   5.5500   8.2951   O.3       1 RES1   0.0000
    26 C26      6.0687   5.9267   7.1693   C.3       1 RES1   0.0000
    27 C27      6.0094   4.7329   6.2388   C.3       1 RES1   0.0000
    28 C28      5.9299   3.5345   7.1920   C.3       1 RES1   0.0000
    29 S29     12.9834   4.8896   3.4477   S.o2      1 RES1   0.0000
    30 O30     12.0837   4.1799   2.6170   O.2       1 RES1   0.0000
    31 O31     14.1685   5.4051   2.8836   O.2       1 RES1   0.0000
    32 C32     12.1018   6.2406   4.1382   C.2       1 RES1   0.0000
    33 C33     10.7224   6.1713   4.2862   C.2       1 RES1   0.0000
    34 C34      9.9644   7.1879   4.7818   C.2       1 RES1   0.0000
    35 C35     10.5118   8.3849   5.1713   C.2       1 RES1   0.0000
    36 B36      9.6067   9.4846   5.7003   B         1 RES1   0.0000
    37 O37      8.2536   9.3688   5.8207   O.3       1 RES1   0.0000
    38 O38     10.1956  10.6334   5.9965   O.3       1 RES1   0.0000
    39 C39     11.9229   8.5211   5.0198   C.2       1 RES1   0.0000
    40 C40     12.6711   7.4638   4.5186   C.2       1 RES1   0.0000
@<TRIPOS>BOND
     1     1     2    1
     2     2     3    1
     3     2     4    1
     4     4     5    1
     5     5     6    1
     6     6     7    1
     7     7     8    1
     8     7     9    1
     9     9    10    1
    10    10    11    1
    11    11    12    2
    12    12    13    1
    13    13    14    2
    14    14    15    1
    15    15    16    2
    16     9    17    1
    17    17    18   am
    18    18    19    2
    19    18    20    1
    20    21    20    1
    21    21    22    1
    22    22    23    1
    23    24    23    1
    24    24    25    1
    25    25    26    1
    26    26    27    1
    27    28    27    1
    28     5    29    1
    29    29    30    2
    30    29    31    2
    31    29    32    1
    32    32    33    2
    33    33    34    1
    34    34    35    2
    35    35    36    1
    36    36    37    1
    37    36    38    1
    38    35    39    1
    39    39    40    2
    40    16    11    1
    41    28    21    1
    42    40    32    1
    43    28    24    1
@<TRIPOS>SUBSTRUCTURE
     1 RES1        1 GROUP             0 ****  ****    0  
@<TRIPOS>MOLECULE
ligand_16
    40    43     1     0     0
SMALL
NO_CHARGES
****
Generated from the CSD

@<TRIPOS>ATOM
     1 C1       2.4943   3.4415  -4.5250   C.3       1 RES1   0.0000
     2 C2       3.2155   4.2557  -3.4650   C.3       1 RES1   0.0000
     3 C3       2.2821   5.3197  -2.9414   C.3       1 RES1   0.0000
     4 C4       3.6786   3.3682  -2.3208   C.2       1 RES1   0.0000
     5 N5       4.4547   3.9421  -1.2615   N.pl3     1 RES1   0.0000
     6 C6       3.8522   3.9076   0.0258   C.2       1 RES1   0.0000
     7 C7       3.5842   5.2581   0.6765   C.3       1 RES1   0.0000
     8 O8       2.6652   5.9733  -0.1228   O.3       1 RES1   0.0000
     9 C9       3.0248   5.1189   2.1438   C.3       1 RES1   0.0000
    10 C10      3.9071   4.2303   3.0552   C.3       1 RES1   0.0000
    11 C11      3.4206   4.2309   4.4373   C.2       1 RES1   0.0000
    12 C12      3.9064   5.1977   5.3372   C.2       1 RES1   0.0000
    13 C13      3.4303   5.2571   6.6438   C.2       1 RES1   0.0000
    14 C14      2.4607   4.3599   7.0993   C.2       1 RES1   0.0000
    15 C15      1.9581   3.3957   6.2150   C.2       1 RES1   0.0000
    16 C16      2.4378   3.3391   4.8996   C.2       1 RES1   0.0000
    17 N17      1.7313   4.5958   2.0414   N.am      1 RES1   0.0000
    18 C18      0.5927   5.2580   2.2999   C.2       1 RES1   0.0000
    19 O19      0.4854   6.4273   2.6680   O.2       1 RES1   0.0000
    20 O20     -0.5547   4.5033   2.0978   O.3       1 RES1   0.0000
    21 C21     -1.8433   5.0471   2.3052   C.3       1 RES1   0.0000
    22 C22     -2.1623   5.8185   1.0288   C.3       1 RES1   0.0000
    23 O23     -2.7393   4.8323   0.1543   O.3       1 RES1   0.0000
    24 C24     -3.5634   3.9849   0.9601   C.3       1 RES1   0.0000
    25 O25     -3.5584   2.6679   0.4540   O.3       1 RES1   0.0000
    26 C26     -2.4587   2.0079   1.0564   C.3       1 RES1   0.0000
    27 C27     -2.4520   2.5086   2.4868   C.3       1 RES1   0.0000
    28 C28     -2.9205   3.9634   2.3578   C.3       1 RES1   0.0000
    29 S29      6.1022   3.9342  -1.4286   S.o2      1 RES1   0.0000
    30 O30      6.6633   4.6460  -0.3415   O.2       1 RES1   0.0000
    31 O31      6.4083   4.3455  -2.7422   O.2       1 RES1   0.0000
    32 C32      6.6068   2.2607  -1.2733   C.2       1 RES1   0.0000
    33 C33      6.9284   1.7417  -0.0257   C.2       1 RES1   0.0000
    34 C34      7.3590   0.4654   0.1728   C.2       1 RES1   0.0000
    35 C35      7.5213  -0.4204  -0.8631   C.2       1 RES1   0.0000
    36 B36      8.0217  -1.8257  -0.5743   B         1 RES1   0.0000
    37 O37      8.3302  -2.2861   0.6713   O.3       1 RES1   0.0000
    38 O38      8.2152  -2.6045  -1.6281   O.3       1 RES1   0.0000
    39 C39      7.2278   0.0656  -2.1709   C.2       1 RES1   0.0000
    40 C40      6.7828   1.3702  -2.3414   C.2       1 RES1   0.0000
@<TRIPOS>BOND
     1     1     2    1
     2     2     3    1
     3     2     4    1
     4     4     5    1
     5     5     6    1
     6     6     7    1
     7     7     8    1
     8     7     9    1
     9     9    10    1
    10    10    11    1
    11    11    12    2
    12    12    13    1
    13    13    14    2
    14    14    15    1
    15    15    16    2
    16     9    17    1
    17    17    18   am
    18    18    19    2
    19    18    20    1
    20    21    20    1
    21    21    22    1
    22    22    23    1
    23    24    23    1
    24    24    25    1
    25    25    26    1
    26    26    27    1
    27    28    27    1
    28     5    29    1
    29    29    30    2
    30    29    31    2
    31    29    32    1
    32    32    33    2
    33    33    34    1
    34    34    35    2
    35    35    36    1
    36    36    37    1
    37    36    38    1
    38    35    39    1
    39    39    40    2
    40    16    11    1
    41    28    21    1
    42    40    32    1
    43    28    24    1
@<TRIPOS>SUBSTRUCTURE
     1 RES1        1 GROUP             0 ****  ****    0  
@<TRIPOS>MOLECULE
ligand_17
    40    43     1     0     0
SMALL
NO_CHARGES
****
Generated from the CSD

@<TRIPOS>ATOM
     1 C1       5.1777   9.2923  -2.8897   C.3       1 RES1   0.0000
     2 C2       4.9910   7.8716  -2.3864   C.3       1 RES1   0.0000
     3 C3       5.9141   7.6386  -1.2154   C.3       1 RES1   0.0000
     4 C4       3.5509   7.6306  -1.9630   C.2       1 RES1   0.0000
     5 N5       3.1557   6.3177  -1.5459   N.pl3     1 RES1   0.0000
     6 C6       2.7572   6.2023  -0.1860   C.2       1 RES1   0.0000
     7 C7       3.5842   5.2581   0.6765   C.3       1 RES1   0.0000
     8 O8       4.9092   5.7430   0.7391   O.3       1 RES1   0.0000
     9 C9       2.9992   5.1050   2.1324   C.3       1 RES1   0.0000
    10 C10      3.8670   4.2102   3.0515   C.3       1 RES1   0.0000
    11 C11      3.3561   4.1978   4.4247   C.2       1 RES1   0.0000
    12 C12      3.8238   5.1578   5.3415   C.2       1 RES1   0.0000
    13 C13      3.3244   5.2048   6.6399   C.2       1 RES1   0.0000
    14 C14      2.3488   4.3017   7.0703   C.2       1 RES1   0.0000
    15 C15      1.8640   3.3443   6.1688   C.2       1 RES1   0.0000
    16 C16      2.3671   3.3001   4.8617   C.2       1 RES1   0.0000
    17 N17      1.7088   4.5802   2.0024   N.am      1 RES1   0.0000
    18 C18      0.5643   5.2378   2.2464   C.2       1 RES1   0.0000
    19 O19      0.4480   6.4037   2.6227   O.2       1 RES1   0.0000
    20 O20     -0.5776   4.4826   2.0174   O.3       1 RES1   0.0000
    21 C21     -1.8709   5.0220   2.2066   C.3       1 RES1   0.0000
    22 C22     -2.1689   5.8038   0.9314   C.3       1 RES1   0.0000
    23 O23     -2.7281   4.8241   0.0384   O.3       1 RES1   0.0000
    24 C24     -3.5646   3.9681   0.8220   C.3       1 RES1   0.0000
    25 O25     -3.5477   2.6555   0.3046   O.3       1 RES1   0.0000
    26 C26     -2.4574   1.9925   0.9207   C.3       1 RES1   0.0000
    27 C27     -2.4772   2.4808   2.3553   C.3       1 RES1   0.0000
    28 C28     -2.9465   3.9357   2.2306   C.3       1 RES1   0.0000
    29 S29      2.5431   5.3000  -2.6997   S.o2      1 RES1   0.0000
    30 O30      1.6544   6.0378  -3.5176   O.2       1 RES1   0.0000
    31 O31      2.0681   4.1419  -2.0505   O.2       1 RES1   0.0000
    32 C32      3.8990   4.8181  -3.7039   C.2       1 RES1   0.0000
    33 C33      4.2204   5.5492  -4.8404   C.2       1 RES1   0.0000
    34 C34      5.2349   5.2213  -5.6871   C.2       1 RES1   0.0000
    35 C35      6.0266   4.1181  -5.4863   C.2       1 RES1   0.0000
    36 B36      7.1315   3.7994  -6.4794   B         1 RES1   0.0000
    37 O37      7.4035   4.5478  -7.5860   O.3       1 RES1   0.0000
    38 O38      7.8129   2.6856  -6.2569   O.3       1 RES1   0.0000
    39 C39      5.7271   3.3162  -4.3462   C.2       1 RES1   0.0000
    40 C40      4.6910   3.6803  -3.4960   C.2       1 RES1   0.0000
@<TRIPOS>BOND
     1     1     2    1
     2     2     3    1
     3     2     4    1
     4     4     5    1
     5     5     6    1
     6     6     7    1
     7     7     8    1
     8     7     9    1
     9     9    10    1
    10    10    11    1
    11    11    12    2
    12    12    13    1
    13    13    14    2
    14    14    15    1
    15    15    16    2
    16     9    17    1
    17    17    18   am
    18    18    19    2
    19    18    20    1
    20    21    20    1
    21    21    22    1
    22    22    23    1
    23    24    23    1
    24    24    25    1
    25    25    26    1
    26    26    27    1
    27    28    27    1
    28     5    29    1
    29    29    30    2
    30    29    31    2
    31    29    32    1
    32    32    33    2
    33    33    34    1
    34    34    35    2
    35    35    36    1
    36    36    37    1
    37    36    38    1
    38    35    39    1
    39    39    40    2
    40    16    11    1
    41    28    21    1
    42    40    32    1
    43    28    24    1
@<TRIPOS>SUBSTRUCTURE
     1 RES1        1 GROUP             0 ****  ****    0  
@<TRIPOS>MOLECULE
ligand_18
    40    43     1     0     0
SMALL
NO_CHARGES
****
Generated from the CSD

@<TRIPOS>ATOM
     1 C1       5.5216   8.5120   1.1693   C.3       1 RES1   0.0000
     2 C2       5.4473   7.4529   2.2553   C.3       1 RES1   0.0000
     3 C3       4.1984   7.6730   3.0735   C.3       1 RES1   0.0000
     4 C4       5.4288   6.0574   1.6522   C.2       1 RES1   0.0000
     5 N5       5.4458   4.9196   2.5233   N.pl3     1 RES1   0.0000
     6 C6       4.2970   4.0844   2.4608   C.2       1 RES1   0.0000
     7 C7       3.4932   3.9533   3.7476   C.3       1 RES1   0.0000
     8 O8       2.9852   5.2238   4.0975   O.3       1 RES1   0.0000
     9 C9       2.3101   2.9198   3.6157   C.3       1 RES1   0.0000
    10 C10      2.7630   1.5308   3.1018   C.3       1 RES1   0.0000
    11 C11      1.6583   0.5684   3.1146   C.2       1 RES1   0.0000
    12 C12      1.4374  -0.2102   4.2660   C.2       1 RES1   0.0000
    13 C13      0.3683  -1.0993   4.3299   C.2       1 RES1   0.0000
    14 C14     -0.5127  -1.2460   3.2552   C.2       1 RES1   0.0000
    15 C15     -0.3142  -0.4725   2.1034   C.2       1 RES1   0.0000
    16 C16      0.7617   0.4232   2.0422   C.2       1 RES1   0.0000
    17 N17      1.3660   3.4856   2.7521   N.am      1 RES1   0.0000
    18 C18      0.1514   3.9373   3.1021   C.2       1 RES1   0.0000
    19 O19     -0.3412   3.9341   4.2298   O.2       1 RES1   0.0000
    20 O20     -0.5762   4.4692   2.0463   O.3       1 RES1   0.0000
    21 C21     -1.8698   5.0072   2.2369   C.3       1 RES1   0.0000
    22 C22     -2.1190   5.8911   1.0192   C.3       1 RES1   0.0000
    23 O23     -2.6581   4.9919   0.0338   O.3       1 RES1   0.0000
    24 C24     -3.5275   4.0864   0.7201   C.3       1 RES1   0.0000
    25 O25     -3.5060   2.8189   0.1006   O.3       1 RES1   0.0000
    26 C26     -2.4425   2.0963   0.6962   C.3       1 RES1   0.0000
    27 C27     -2.5042   2.4696   2.1637   C.3       1 RES1   0.0000
    28 C28     -2.9556   3.9352   2.1404   C.3       1 RES1   0.0000
    29 S29      6.9228   4.3019   2.9469   S.o2      1 RES1   0.0000
    30 O30      6.7187   3.2703   3.8942   O.2       1 RES1   0.0000
    31 O31      7.7645   5.3811   3.2863   O.2       1 RES1   0.0000
    32 C32      7.5815   3.5594   1.4999   C.2       1 RES1   0.0000
    33 C33      7.3231   2.2233   1.2214   C.2       1 RES1   0.0000
    34 C34      7.8240   1.5673   0.1387   C.2       1 RES1   0.0000
    35 C35      8.6456   2.1824  -0.7727   C.2       1 RES1   0.0000
    36 B36      9.1841   1.3875  -1.9504   B         1 RES1   0.0000
    37 O37      8.9046   0.0724  -2.1764   O.3       1 RES1   0.0000
    38 O38     10.0212   2.0276  -2.7528   O.3       1 RES1   0.0000
    39 C39      8.9642   3.5497  -0.5245   C.2       1 RES1   0.0000
    40 C40      8.4319   4.1948   0.5843   C.2       1 RES1   0.0000
@<TRIPOS>BOND
     1     1     2    1
     2     2     3    1
     3     2     4    1
     4     4     5    1
     5     5     6    1
     6     6     7    1
     7     7     8    1
     8     7     9    1
     9     9    10    1
    10    10    11    1
    11    11    12    2
    12    12    13    1
    13    13    14    2
    14    14    15    1
    15    15    16    2
    16     9    17    1
    17    17    18   am
    18    18    19    2
    19    18    20    1
    20    21    20    1
    21    21    22    1
    22    22    23    1
    23    24    23    1
    24    24    25    1
    25    25    26    1
    26    26    27    1
    27    28    27    1
    28     5    29    1
    29    29    30    2
    30    29    31    2
    31    29    32    1
    32    32    33    2
    33    33    34    1
    34    34    35    2
    35    35    36    1
    36    36    37    1
    37    36    38    1
    38    35    39    1
    39    39    40    2
    40    16    11    1
    41    28    21    1
    42    40    32    1
    43    28    24    1
@<TRIPOS>SUBSTRUCTURE
     1 RES1        1 GROUP             0 ****  ****    0  
@<TRIPOS>MOLECULE
ligand_19
    40    43     1     0     0
SMALL
NO_CHARGES
****
Generated from the CSD

@<TRIPOS>ATOM
     1 C1       5.8808   7.1886   7.6674   C.3       1 RES1   0.0000
     2 C2       5.7342   6.5226   6.3104   C.3       1 RES1   0.0000
     3 C3       5.9689   5.0394   6.4616   C.3       1 RES1   0.0000
     4 C4       4.3500   6.7687   5.7318   C.2       1 RES1   0.0000
     5 N5       4.0505   6.2971   4.4120   N.pl3     1 RES1   0.0000
     6 C6       3.0526   5.2874   4.3353   C.2       1 RES1   0.0000
     7 C7       3.4932   3.9533   3.7476   C.3       1 RES1   0.0000
     8 O8       4.4909   3.3980   4.5789   O.3       1 RES1   0.0000
     9 C9       2.2964   2.9387   3.5940   C.3       1 RES1   0.0000
    10 C10      2.7340   1.5483   3.0707   C.3       1 RES1   0.0000
    11 C11      1.6152   0.6022   3.0632   C.2       1 RES1   0.0000
    12 C12      1.3717  -0.1843   4.2046   C.2       1 RES1   0.0000
    13 C13      0.2891  -1.0582   4.2493   C.2       1 RES1   0.0000
    14 C14     -0.5834  -1.1813   3.1648   C.2       1 RES1   0.0000
    15 C15     -0.3624  -0.3995   2.0227   C.2       1 RES1   0.0000
    16 C16      0.7271   0.4808   1.9809   C.2       1 RES1   0.0000
    17 N17      1.3692   3.5268   2.7270   N.am      1 RES1   0.0000
    18 C18      0.1580   3.9929   3.0698   C.2       1 RES1   0.0000
    19 O19     -0.3456   3.9859   4.1926   O.2       1 RES1   0.0000
    20 O20     -0.5514   4.5458   2.0124   O.3       1 RES1   0.0000
    21 C21     -1.8388   5.1009   2.1959   C.3       1 RES1   0.0000
    22 C22     -2.0632   6.0001   0.9846   C.3       1 RES1   0.0000
    23 O23     -2.6057   5.1185  -0.0147   O.3       1 RES1   0.0000
    24 C24     -3.4949   4.2193   0.6543   C.3       1 RES1   0.0000
    25 O25     -3.4859   2.9576   0.0226   O.3       1 RES1   0.0000
    26 C26     -2.4389   2.2137   0.6212   C.3       1 RES1   0.0000
    27 C27     -2.5094   2.5736   2.0916   C.3       1 RES1   0.0000
    28 C28     -2.9392   4.0459   2.0785   C.3       1 RES1   0.0000
    29 S29      4.3015   7.3407   3.1509   S.o2      1 RES1   0.0000
    30 O30      3.8246   8.6186   3.5290   O.2       1 RES1   0.0000
    31 O31      3.7894   6.7415   1.9818   O.2       1 RES1   0.0000
    32 C32      6.0405   7.4694   2.9544   C.2       1 RES1   0.0000
    33 C33      6.7468   8.4616   3.6224   C.2       1 RES1   0.0000
    34 C34      8.0897   8.6471   3.4965   C.2       1 RES1   0.0000
    35 C35      8.8624   7.8614   2.6782   C.2       1 RES1   0.0000
    36 B36     10.3535   8.1329   2.5706   B         1 RES1   0.0000
    37 O37     10.9999   9.1262   3.2446   O.3       1 RES1   0.0000
    38 O38     11.0242   7.3771   1.7143   O.3       1 RES1   0.0000
    39 C39      8.1859   6.8400   1.9490   C.2       1 RES1   0.0000
    40 C40      6.8162   6.6696   2.1038   C.2       1 RES1   0.0000
@<TRIPOS>BOND
     1     1     2    1
     2     2     3    1
     3     2     4    1
     4     4     5    1
     5     5     6    1
     6     6     7    1
     7     7     8    1
     8     7     9    1
     9     9    10    1
    10    10    11    1
    11    11    12    2
    12    12    13    1
    13    13    14    2
    14    14    15    1
    15    15    16    2
    16     9    17    1
    17    17    18   am
    18    18    19    2
    19    18    20    1
    20    21    20    1
    21    21    22    1
    22    22    23    1
    23    24    23    1
    24    24    25    1
    25    25    26    1
    26    26    27    1
    27    28    27    1
    28     5    29    1
    29    29    30    2
    30    29    31    2
    31    29    32    1
    32    32    33    2
    33    33    34    1
    34    34    35    2
    35    35    36    1
    36    36    37    1
    37    36    38    1
    38    35    39    1
    39    39    40    2
    40    16    11    1
    41    28    21    1
    42    40    32    1
    43    28    24    1
@<TRIPOS>SUBSTRUCTURE
     1 RES1        1 GROUP             0 ****  ****    0  
@<TRIPOS>MOLECULE
ligand_20
    40    43     1     0     0
SMALL
NO_CHARGES
****
Generated from the CSD

@<TRIPOS>ATOM
     1 C1      13.3968  -4.0996   3.8041   C.3       1 RES1   0.0000
     2 C2      13.0284  -2.7225   4.3282   C.3       1 RES1   0.0000
     3 C3      13.0181  -1.7446   3.1788   C.3       1 RES1   0.0000
     4 C4      11.6640  -2.7441   4.9985   C.2       1 RES1   0.0000
     5 N5      11.1660  -1.5464   5.6078   N.pl3     1 RES1   0.0000
     6 C6       9.9499  -1.0456   5.0677   C.2       1 RES1   0.0000
     7 C7      10.0524  -0.3534   3.7151   C.3       1 RES1   0.0000
     8 O8      10.1398  -1.3380   2.7062   O.3       1 RES1   0.0000
     9 C9       8.8280   0.5984   3.4317   C.3       1 RES1   0.0000
    10 C10      8.8708   1.2522   2.0284   C.3       1 RES1   0.0000
    11 C11      7.6555   2.0255   1.7603   C.2       1 RES1   0.0000
    12 C12      6.5559   1.3906   1.1534   C.2       1 RES1   0.0000
    13 C13      5.3694   2.0828   0.9280   C.2       1 RES1   0.0000
    14 C14      5.2367   3.4246   1.2948   C.2       1 RES1   0.0000
    15 C15      6.3179   4.0713   1.9089   C.2       1 RES1   0.0000
    16 C16      7.5106   3.3719   2.1362   C.2       1 RES1   0.0000
    17 N17      8.8264   1.5737   4.4347   N.am      1 RES1   0.0000
    18 C18      7.9267   1.6819   5.4249   C.2       1 RES1   0.0000
    19 O19      6.9560   0.9522   5.6240   O.2       1 RES1   0.0000
    20 O20      8.1742   2.7332   6.2969   O.3       1 RES1   0.0000
    21 C21      7.3375   2.9845   7.4076   C.3       1 RES1   0.0000
    22 C22      7.9462   3.8790   8.4878   C.3       1 RES1   0.0000
    23 O23      6.8245   4.2754   9.2918   O.3       1 RES1   0.0000
    24 C24      5.7083   4.4403   8.4356   C.3       1 RES1   0.0000
    25 O25      5.4797   5.8082   8.1741   O.3       1 RES1   0.0000
    26 C26      6.2797   6.1439   7.0537   C.3       1 RES1   0.0000
    27 C27      6.1797   4.9469   6.1310   C.3       1 RES1   0.0000
    28 C28      6.0407   3.7599   7.0917   C.3       1 RES1   0.0000
    29 S29     11.5726  -1.2654   7.1883   S.o2      1 RES1   0.0000
    30 O30     11.0922   0.0157   7.5506   O.2       1 RES1   0.0000
    31 O31     12.9462  -1.5454   7.3406   O.2       1 RES1   0.0000
    32 C32     10.6894  -2.4436   8.1429   C.2       1 RES1   0.0000
    33 C33      9.4206  -2.1437   8.6220   C.2       1 RES1   0.0000
    34 C34      8.6863  -2.9900   9.3955   C.2       1 RES1   0.0000
    35 C35      9.1543  -4.2226   9.7774   C.2       1 RES1   0.0000
    36 B36      8.2902  -5.1117  10.6558   B         1 RES1   0.0000
    37 O37      7.0501  -4.7676  11.1059   O.3       1 RES1   0.0000
    38 O38      8.8317  -6.2586  11.0374   O.3       1 RES1   0.0000
    39 C39     10.4625  -4.5746   9.3332   C.2       1 RES1   0.0000
    40 C40     11.1847  -3.6938   8.5386   C.2       1 RES1   0.0000
@<TRIPOS>BOND
     1     1     2    1
     2     2     3    1
     3     2     4    1
     4     4     5    1
     5     5     6    1
     6     6     7    1
     7     7     8    1
     8     7     9    1
     9     9    10    1
    10    10    11    1
    11    11    12    2
    12    12    13    1
    13    13    14    2
    14    14    15    1
    15    15    16    2
    16     9    17    1
    17    17    18   am
    18    18    19    2
    19    18    20    1
    20    21    20    1
    21    21    22    1
    22    22    23    1
    23    24    23    1
    24    24    25    1
    25    25    26    1
    26    26    27    1
    27    28    27    1
    28     5    29    1
    29    29    30    2
    30    29    31    2
    31    29    32    1
    32    32    33    2
    33    33    34    1
    34    34    35    2
    35    35    36    1
    36    36    37    1
    37    36    38    1
    38    35    39    1
    39    39    40    2
    40    16    11    1
    41    28    21    1
    42    40    32    1
    43    28    24    1
@<TRIPOS>SUBSTRUCTURE
     1 RES1        1 GROUP             0 ****  ****    0  
@<TRIPOS>MOLECULE
ligand_21
    40    43     1     0     0
SMALL
NO_CHARGES
****
Generated from the CSD

@<TRIPOS>ATOM
     1 C1      12.2427  -5.3950   4.6455   C.3       1 RES1   0.0000
     2 C2      12.2453  -3.8776   4.5804   C.3       1 RES1   0.0000
     3 C3      12.1521  -3.4463   3.1372   C.3       1 RES1   0.0000
     4 C4      11.0805  -3.2986   5.3673   C.2       1 RES1   0.0000
     5 N5      10.9525  -1.8757   5.4808   N.pl3     1 RES1   0.0000
     6 C6       9.7985  -1.3148   4.8686   C.2       1 RES1   0.0000
     7 C7      10.0524  -0.3534   3.7151   C.3       1 RES1   0.0000
     8 O8      10.3783  -1.1022   2.5628   O.3       1 RES1   0.0000
     9 C9       8.8118   0.5734   3.4199   C.3       1 RES1   0.0000
    10 C10      8.8549   1.2283   2.0171   C.3       1 RES1   0.0000
    11 C11      7.6269   1.9770   1.7373   C.2       1 RES1   0.0000
    12 C12      6.5463   1.3201   1.1196   C.2       1 RES1   0.0000
    13 C13      5.3484   1.9882   0.8828   C.2       1 RES1   0.0000
    14 C14      5.1850   3.3269   1.2483   C.2       1 RES1   0.0000
    15 C15      6.2468   3.9953   1.8729   C.2       1 RES1   0.0000
    16 C16      7.4512   3.3200   2.1117   C.2       1 RES1   0.0000
    17 N17      8.7807   1.5483   4.4228   N.am      1 RES1   0.0000
    18 C18      7.8694   1.6380   5.4043   C.2       1 RES1   0.0000
    19 O19      6.9119   0.8887   5.5940   O.2       1 RES1   0.0000
    20 O20      8.0872   2.6939   6.2787   O.3       1 RES1   0.0000
    21 C21      7.2348   2.9279   7.3813   C.3       1 RES1   0.0000
    22 C22      7.8147   3.8343   8.4673   C.3       1 RES1   0.0000
    23 O23      6.6775   4.2077   9.2605   O.3       1 RES1   0.0000
    24 C24      5.5666   4.3501   8.3936   C.3       1 RES1   0.0000
    25 O25      5.3128   5.7131   8.1299   O.3       1 RES1   0.0000
    26 C26      6.1166   6.0653   7.0174   C.3       1 RES1   0.0000
    27 C27      6.0498   4.8667   6.0936   C.3       1 RES1   0.0000
    28 C28      5.9256   3.6769   7.0528   C.3       1 RES1   0.0000
    29 S29     11.6606  -1.1453   6.7875   S.o2      1 RES1   0.0000
    30 O30     11.5186   0.2557   6.6454   O.2       1 RES1   0.0000
    31 O31     12.9537  -1.6864   6.9406   O.2       1 RES1   0.0000
    32 C32     10.7228  -1.6257   8.1907   C.2       1 RES1   0.0000
    33 C33      9.6380  -0.8610   8.6002   C.2       1 RES1   0.0000
    34 C34      8.8823  -1.1485   9.6957   C.2       1 RES1   0.0000
    35 C35      9.1438  -2.2291  10.5006   C.2       1 RES1   0.0000
    36 B36      8.2712  -2.4836  11.7182   B         1 RES1   0.0000
    37 O37      7.2184  -1.6972  12.0816   O.3       1 RES1   0.0000
    38 O38      8.6211  -3.5063  12.4837   O.3       1 RES1   0.0000
    39 C39     10.2616  -3.0376  10.1410   C.2       1 RES1   0.0000
    40 C40     11.0093  -2.7240   9.0133   C.2       1 RES1   0.0000
@<TRIPOS>BOND
     1     1     2    1
     2     2     3    1
     3     2     4    1
     4     4     5    1
     5     5     6    1
     6     6     7    1
     7     7     8    1
     8     7     9    1
     9     9    10    1
    10    10    11    1
    11    11    12    2
    12    12    13    1
    13    13    14    2
    14    14    15    1
    15    15    16    2
    16     9    17    1
    17    17    18   am
    18    18    19    2
    19    18    20    1
    20    21    20    1
    21    21    22    1
    22    22    23    1
    23    24    23    1
    24    24    25    1
    25    25    26    1
    26    26    27    1
    27    28    27    1
    28     5    29    1
    29    29    30    2
    30    29    31    2
    31    29    32    1
    32    32    33    2
    33    33    34    1
    34    34    35    2
    35    35    36    1
    36    36    37    1
    37    36    38    1
    38    35    39    1
    39    39    40    2
    40    16    11    1
    41    28    21    1
    42    40    32    1
    43    28    24    1
@<TRIPOS>SUBSTRUCTURE
     1 RES1        1 GROUP             0 ****  ****    0  
@<TRIPOS>MOLECULE
ligand_22
    40    43     1     0     0
SMALL
NO_CHARGES
****
Generated from the CSD

@<TRIPOS>ATOM
     1 C1       8.3946   4.7411   2.7700   C.3       1 RES1   0.0000
     2 C2       6.9888   5.1295   2.3465   C.3       1 RES1   0.0000
     3 C3       6.3795   3.9938   1.5613   C.3       1 RES1   0.0000
     4 C4       6.1237   5.4410   3.5573   C.2       1 RES1   0.0000
     5 N5       4.7725   5.8747   3.3575   N.pl3     1 RES1   0.0000
     6 C6       3.7710   5.0269   3.9048   C.2       1 RES1   0.0000
     7 C7       3.6849   3.6250   3.3160   C.3       1 RES1   0.0000
     8 O8       4.6753   2.8178   3.9180   O.3       1 RES1   0.0000
     9 C9       2.2642   2.9729   3.5194   C.3       1 RES1   0.0000
    10 C10      2.2650   1.4337   3.3479   C.3       1 RES1   0.0000
    11 C11      0.9588   0.8572   3.6766   C.2       1 RES1   0.0000
    12 C12      0.6866   0.4834   5.0059   C.2       1 RES1   0.0000
    13 C13     -0.5602  -0.0227   5.3620   C.2       1 RES1   0.0000
    14 C14     -1.5741  -0.1759   4.4127   C.2       1 RES1   0.0000
    15 C15     -1.3248   0.1995   3.0856   C.2       1 RES1   0.0000
    16 C16     -0.0694   0.7103   2.7299   C.2       1 RES1   0.0000
    17 N17      1.4011   3.5752   2.5977   N.am      1 RES1   0.0000
    18 C18      0.2003   4.1067   2.8760   C.2       1 RES1   0.0000
    19 O19     -0.3581   4.1370   3.9722   O.2       1 RES1   0.0000
    20 O20     -0.4261   4.6848   1.7804   O.3       1 RES1   0.0000
    21 C21     -1.6710   5.3439   1.9032   C.3       1 RES1   0.0000
    22 C22     -1.7781   6.2305   0.6669   C.3       1 RES1   0.0000
    23 O23     -2.3521   5.3723  -0.3351   O.3       1 RES1   0.0000
    24 C24     -3.3342   4.5615   0.3165   C.3       1 RES1   0.0000
    25 O25     -3.4028   3.2892  -0.2895   O.3       1 RES1   0.0000
    26 C26     -2.4413   2.4785   0.3634   C.3       1 RES1   0.0000
    27 C27     -2.5369   2.8759   1.8227   C.3       1 RES1   0.0000
    28 C28     -2.8470   4.3769   1.7642   C.3       1 RES1   0.0000
    29 S29      4.5079   7.5003   3.1853   S.o2      1 RES1   0.0000
    30 O30      3.1411   7.6985   2.8757   O.2       1 RES1   0.0000
    31 O31      5.4858   8.0096   2.3063   O.2       1 RES1   0.0000
    32 C32      4.7959   8.2176   4.7607   C.2       1 RES1   0.0000
    33 C33      6.0667   8.6611   5.1039   C.2       1 RES1   0.0000
    34 C34      6.3772   9.1976   6.3160   C.2       1 RES1   0.0000
    35 C35      5.4454   9.3354   7.3145   C.2       1 RES1   0.0000
    36 B36      5.8624   9.9269   8.6505   B         1 RES1   0.0000
    37 O37      7.1280  10.3429   8.9404   O.3       1 RES1   0.0000
    38 O38      4.9269   9.9702   9.5872   O.3       1 RES1   0.0000
    39 C39      4.1274   8.8748   7.0259   C.2       1 RES1   0.0000
    40 C40      3.8386   8.3392   5.7775   C.2       1 RES1   0.0000
@<TRIPOS>BOND
     1     1     2    1
     2     2     3    1
     3     2     4    1
     4     4     5    1
     5     5     6    1
     6     6     7    1
     7     7     8    1
     8     7     9    1
     9     9    10    1
    10    10    11    1
    11    11    12    2
    12    12    13    1
    13    13    14    2
    14    14    15    1
    15    15    16    2
    16     9    17    1
    17    17    18   am
    18    18    19    2
    19    18    20    1
    20    21    20    1
    21    21    22    1
    22    22    23    1
    23    24    23    1
    24    24    25    1
    25    25    26    1
    26    26    27    1
    27    28    27    1
    28     5    29    1
    29    29    30    2
    30    29    31    2
    31    29    32    1
    32    32    33    2
    33    33    34    1
    34    34    35    2
    35    35    36    1
    36    36    37    1
    37    36    38    1
    38    35    39    1
    39    39    40    2
    40    16    11    1
    41    28    21    1
    42    40    32    1
    43    28    24    1
@<TRIPOS>SUBSTRUCTURE
     1 RES1        1 GROUP             0 ****  ****    0  
@<TRIPOS>MOLECULE
ligand_23
    40    43     1     0     0
SMALL
NO_CHARGES
****
Generated from the CSD

@<TRIPOS>ATOM
     1 C1       5.1773   4.5358  -3.8693   C.3       1 RES1   0.0000
     2 C2       4.6664   5.5931  -2.9061   C.3       1 RES1   0.0000
     3 C3       3.2364   5.2773  -2.5412   C.3       1 RES1   0.0000
     4 C4       5.5204   5.6403  -1.6492   C.2       1 RES1   0.0000
     5 N5       5.2227   6.6117  -0.6384   N.pl3     1 RES1   0.0000
     6 C6       4.8639   6.0825   0.6315   C.2       1 RES1   0.0000
     7 C7       3.5842   5.2581   0.6765   C.3       1 RES1   0.0000
     8 O8       3.8707   3.9495   0.2293   O.3       1 RES1   0.0000
     9 C9       2.9524   5.2060   2.1199   C.3       1 RES1   0.0000
    10 C10      3.7850   4.3718   3.1246   C.3       1 RES1   0.0000
    11 C11      3.2307   4.4543   4.4784   C.2       1 RES1   0.0000
    12 C12      3.6751   5.4720   5.3429   C.2       1 RES1   0.0000
    13 C13      3.1351   5.6086   6.6186   C.2       1 RES1   0.0000
    14 C14      2.1407   4.7407   7.0773   C.2       1 RES1   0.0000
    15 C15      1.6788   3.7265   6.2273   C.2       1 RES1   0.0000
    16 C16      2.2229   3.5921   4.9429   C.2       1 RES1   0.0000
    17 N17      1.6635   4.6790   1.9843   N.am      1 RES1   0.0000
    18 C18      0.5160   5.3562   2.1466   C.2       1 RES1   0.0000
    19 O19      0.3951   6.5453   2.4396   O.2       1 RES1   0.0000
    20 O20     -0.6228   4.5919   1.9325   O.3       1 RES1   0.0000
    21 C21     -1.9180   5.1481   2.0434   C.3       1 RES1   0.0000
    22 C22     -2.1705   5.8433   0.7096   C.3       1 RES1   0.0000
    23 O23     -2.7073   4.8079  -0.1330   O.3       1 RES1   0.0000
    24 C24     -3.5735   4.0101   0.6794   C.3       1 RES1   0.0000
    25 O25     -3.5484   2.6655   0.2523   O.3       1 RES1   0.0000
    26 C26     -2.4824   2.0412   0.9464   C.3       1 RES1   0.0000
    27 C27     -2.5446   2.6253   2.3434   C.3       1 RES1   0.0000
    28 C28     -3.0006   4.0704   2.1060   C.3       1 RES1   0.0000
    29 S29      5.9459   8.0959  -0.7664   S.o2      1 RES1   0.0000
    30 O30      5.4245   8.9341   0.2479   O.2       1 RES1   0.0000
    31 O31      5.8496   8.5124  -2.1101   O.2       1 RES1   0.0000
    32 C32      7.6475   7.8484  -0.4160   C.2       1 RES1   0.0000
    33 C33      8.1139   7.9530   0.8882   C.2       1 RES1   0.0000
    34 C34      9.4222   7.8078   1.2360   C.2       1 RES1   0.0000
    35 C35     10.4009   7.5524   0.3081   C.2       1 RES1   0.0000
    36 B36     11.8449   7.4182   0.7614   B         1 RES1   0.0000
    37 O37     12.2531   7.5357   2.0569   O.3       1 RES1   0.0000
    38 O38     12.7426   7.2359  -0.1953   O.3       1 RES1   0.0000
    39 C39      9.9827   7.4577  -1.0516   C.2       1 RES1   0.0000
    40 C40      8.6398   7.6026  -1.3751   C.2       1 RES1   0.0000
@<TRIPOS>BOND
     1     1     2    1
     2     2     3    1
     3     2     4    1
     4     4     5    1
     5     5     6    1
     6     6     7    1
     7     7     8    1
     8     7     9    1
     9     9    10    1
    10    10    11    1
    11    11    12    2
    12    12    13    1
    13    13    14    2
    14    14    15    1
    15    15    16    2
    16     9    17    1
    17    17    18   am
    18    18    19    2
    19    18    20    1
    20    21    20    1
    21    21    22    1
    22    22    23    1
    23    24    23    1
    24    24    25    1
    25    25    26    1
    26    26    27    1
    27    28    27    1
    28     5    29    1
    29    29    30    2
    30    29    31    2
    31    29    32    1
    32    32    33    2
    33    33    34    1
    34    34    35    2
    35    35    36    1
    36    36    37    1
    37    36    38    1
    38    35    39    1
    39    39    40    2
    40    16    11    1
    41    28    21    1
    42    40    32    1
    43    28    24    1
@<TRIPOS>SUBSTRUCTURE
     1 RES1        1 GROUP             0 ****  ****    0  
@<TRIPOS>MOLECULE
ligand_24
    40    43     1     0     0
SMALL
NO_CHARGES
****
Generated from the CSD

@<TRIPOS>ATOM
     1 C1      15.6737   0.4956   0.2083   C.3       1 RES1   0.0000
     2 C2      14.8953   1.4145   1.1337   C.3       1 RES1   0.0000
     3 C3      13.4381   1.3891   0.7417   C.3       1 RES1   0.0000
     4 C4      15.0465   0.9802   2.5829   C.2       1 RES1   0.0000
     5 N5      14.4689   1.7861   3.6176   N.pl3     1 RES1   0.0000
     6 C6      13.4626   1.1521   4.3965   C.2       1 RES1   0.0000
     7 C7      12.0899   1.8115   4.3826   C.3       1 RES1   0.0000
     8 O8      11.7333   2.0903   3.0447   O.3       1 RES1   0.0000
     9 C9      10.9838   0.9132   5.0570   C.3       1 RES1   0.0000
    10 C10     10.6437  -0.3581   4.2405   C.3       1 RES1   0.0000
    11 C11      9.7075  -1.2239   4.9621   C.2       1 RES1   0.0000
    12 C12     10.2122  -2.2175   5.8216   C.2       1 RES1   0.0000
    13 C13      9.3513  -3.0255   6.5588   C.2       1 RES1   0.0000
    14 C14      7.9651  -2.8756   6.4657   C.2       1 RES1   0.0000
    15 C15      7.4439  -1.8853   5.6219   C.2       1 RES1   0.0000
    16 C16      8.3127  -1.0720   4.8821   C.2       1 RES1   0.0000
    17 N17      9.8497   1.7152   5.2234   N.am      1 RES1   0.0000
    18 C18      9.1236   1.8270   6.3468   C.2       1 RES1   0.0000
    19 O19      9.3237   1.2515   7.4160   O.2       1 RES1   0.0000
    20 O20      8.0580   2.7103   6.2417   O.3       1 RES1   0.0000
    21 C21      7.1979   2.9637   7.3340   C.3       1 RES1   0.0000
    22 C22      7.7634   3.9035   8.3991   C.3       1 RES1   0.0000
    23 O23      6.6186   4.2854   9.1772   O.3       1 RES1   0.0000
    24 C24      5.5105   4.3942   8.3018   C.3       1 RES1   0.0000
    25 O25      5.2443   5.7475   8.0022   O.3       1 RES1   0.0000
    26 C26      6.0500   6.0792   6.8846   C.3       1 RES1   0.0000
    27 C27      5.9997   4.8568   5.9916   C.3       1 RES1   0.0000
    28 C28      5.8829   3.6906   6.9805   C.3       1 RES1   0.0000
    29 S29     15.4026   2.9948   4.2576   S.o2      1 RES1   0.0000
    30 O30     14.6104   3.7348   5.1675   O.2       1 RES1   0.0000
    31 O31     16.0273   3.6731   3.1908   O.2       1 RES1   0.0000
    32 C32     16.6649   2.2052   5.1863   C.2       1 RES1   0.0000
    33 C33     16.4657   1.9168   6.5304   C.2       1 RES1   0.0000
    34 C34     17.4065   1.3368   7.3255   C.2       1 RES1   0.0000
    35 C35     18.6502   0.9951   6.8558   C.2       1 RES1   0.0000
    36 B36     19.6600   0.3659   7.8009   B         1 RES1   0.0000
    37 O37     19.4169   0.1081   9.1174   O.3       1 RES1   0.0000
    38 O38     20.8595   0.1217   7.2952   O.3       1 RES1   0.0000
    39 C39     18.9190   1.2896   5.4870   C.2       1 RES1   0.0000
    40 C40     17.9367   1.8746   4.6984   C.2       1 RES1   0.0000
@<TRIPOS>BOND
     1     1     2    1
     2     2     3    1
     3     2     4    1
     4     4     5    1
     5     5     6    1
     6     6     7    1
     7     7     8    1
     8     7     9    1
     9     9    10    1
    10    10    11    1
    11    11    12    2
    12    12    13    1
    13    13    14    2
    14    14    15    1
    15    15    16    2
    16     9    17    1
    17    17    18   am
    18    18    19    2
    19    18    20    1
    20    21    20    1
    21    21    22    1
    22    22    23    1
    23    24    23    1
    24    24    25    1
    25    25    26    1
    26    26    27    1
    27    28    27    1
    28     5    29    1
    29    29    30    2
    30    29    31    2
    31    29    32    1
    32    32    33    2
    33    33    34    1
    34    34    35    2
    35    35    36    1
    36    36    37    1
    37    36    38    1
    38    35    39    1
    39    39    40    2
    40    16    11    1
    41    28    21    1
    42    40    32    1
    43    28    24    1
@<TRIPOS>SUBSTRUCTURE
     1 RES1        1 GROUP             0 ****  ****    0  
@<TRIPOS>MOLECULE
ligand_25
    40    43     1     0     0
SMALL
NO_CHARGES
****
Generated from the CSD

@<TRIPOS>ATOM
     1 C1      17.2329   3.9633   4.4088   C.3       1 RES1   0.0000
     2 C2      15.7977   3.8188   3.9336   C.3       1 RES1   0.0000
     3 C3      15.6368   2.4822   3.2514   C.3       1 RES1   0.0000
     4 C4      14.8270   3.9224   5.0991   C.2       1 RES1   0.0000
     5 N5      13.4181   3.8782   4.8409   N.pl3     1 RES1   0.0000
     6 C6      12.7311   2.7597   5.3871   C.2       1 RES1   0.0000
     7 C7      12.0899   1.8115   4.3826   C.3       1 RES1   0.0000
     8 O8      13.0973   0.9981   3.8184   O.3       1 RES1   0.0000
     9 C9      10.9737   0.9091   5.0344   C.3       1 RES1   0.0000
    10 C10     10.6232  -0.3403   4.1890   C.3       1 RES1   0.0000
    11 C11      9.6771  -1.2129   4.8891   C.2       1 RES1   0.0000
    12 C12     10.1702  -2.2303   5.7273   C.2       1 RES1   0.0000
    13 C13      9.2998  -3.0462   6.4444   C.2       1 RES1   0.0000
    14 C14      7.9154  -2.8808   6.3517   C.2       1 RES1   0.0000
    15 C15      7.4057  -1.8669   5.5292   C.2       1 RES1   0.0000
    16 C16      8.2840  -1.0458   4.8095   C.2       1 RES1   0.0000
    17 N17      9.8470   1.7182   5.2163   N.am      1 RES1   0.0000
    18 C18      9.1194   1.8118   6.3404   C.2       1 RES1   0.0000
    19 O19      9.3114   1.2107   7.3969   O.2       1 RES1   0.0000
    20 O20      8.0625   2.7075   6.2529   O.3       1 RES1   0.0000
    21 C21      7.2024   2.9448   7.3487   C.3       1 RES1   0.0000
    22 C22      7.7744   3.8550   8.4358   C.3       1 RES1   0.0000
    23 O23      6.6315   4.2305   9.2198   O.3       1 RES1   0.0000
    24 C24      5.5266   4.3696   8.3447   C.3       1 RES1   0.0000
    25 O25      5.2741   5.7317   8.0748   O.3       1 RES1   0.0000
    26 C26      6.0855   6.0805   6.9667   C.3       1 RES1   0.0000
    27 C27      6.0256   4.8789   6.0465   C.3       1 RES1   0.0000
    28 C28      5.8952   3.6921   7.0087   C.3       1 RES1   0.0000
    29 S29     12.6383   5.3193   4.6007   S.o2      1 RES1   0.0000
    30 O30     11.2952   5.0454   4.2485   O.2       1 RES1   0.0000
    31 O31     13.4251   6.0996   3.7288   O.2       1 RES1   0.0000
    32 C32     12.6150   6.1338   6.1549   C.2       1 RES1   0.0000
    33 C33     13.6547   6.9821   6.5139   C.2       1 RES1   0.0000
    34 C34     13.7258   7.6236   7.7126   C.2       1 RES1   0.0000
    35 C35     12.7645   7.4721   8.6807   C.2       1 RES1   0.0000
    36 B36     12.9132   8.2042  10.0038   B         1 RES1   0.0000
    37 O37     13.9590   9.0233  10.3105   O.3       1 RES1   0.0000
    38 O38     11.9819   7.9607  10.9136   O.3       1 RES1   0.0000
    39 C39     11.6839   6.5935   8.3756   C.2       1 RES1   0.0000
    40 C40     11.6344   5.9590   7.1412   C.2       1 RES1   0.0000
@<TRIPOS>BOND
     1     1     2    1
     2     2     3    1
     3     2     4    1
     4     4     5    1
     5     5     6    1
     6     6     7    1
     7     7     8    1
     8     7     9    1
     9     9    10    1
    10    10    11    1
    11    11    12    2
    12    12    13    1
    13    13    14    2
    14    14    15    1
    15    15    16    2
    16     9    17    1
    17    17    18   am
    18    18    19    2
    19    18    20    1
    20    21    20    1
    21    21    22    1
    22    22    23    1
    23    24    23    1
    24    24    25    1
    25    25    26    1
    26    26    27    1
    27    28    27    1
    28     5    29    1
    29    29    30    2
    30    29    31    2
    31    29    32    1
    32    32    33    2
    33    33    34    1
    34    34    35    2
    35    35    36    1
    36    36    37    1
    37    36    38    1
    38    35    39    1
    39    39    40    2
    40    16    11    1
    41    28    21    1
    42    40    32    1
    43    28    24    1
@<TRIPOS>SUBSTRUCTURE
     1 RES1        1 GROUP             0 ****  ****    0  
@<TRIPOS>MOLECULE
ligand_26
    40    43     1     0     0
SMALL
NO_CHARGES
****
Generated from the CSD

@<TRIPOS>ATOM
     1 C1       7.2555   6.9589   3.0153   C.3       1 RES1   0.0000
     2 C2       6.1440   6.6054   3.9882   C.3       1 RES1   0.0000
     3 C3       4.8116   6.8802   3.3348   C.3       1 RES1   0.0000
     4 C4       6.2254   5.1435   4.3973   C.2       1 RES1   0.0000
     5 N5       5.2861   4.6316   5.3510   N.pl3     1 RES1   0.0000
     6 C6       4.4437   3.5877   4.8799   C.2       1 RES1   0.0000
     7 C7       3.4932   3.9533   3.7476   C.3       1 RES1   0.0000
     8 O8       4.2026   3.9105   2.5271   O.3       1 RES1   0.0000
     9 C9       2.2444   2.9938   3.6767   C.3       1 RES1   0.0000
    10 C10      2.5979   1.5597   3.2108   C.3       1 RES1   0.0000
    11 C11      1.4346   0.6716   3.2803   C.2       1 RES1   0.0000
    12 C12      1.1869  -0.0462   4.4653   C.2       1 RES1   0.0000
    13 C13      0.0649  -0.8615   4.5823   C.2       1 RES1   0.0000
    14 C14     -0.8443  -0.9924   3.5293   C.2       1 RES1   0.0000
    15 C15     -0.6193  -0.2782   2.3445   C.2       1 RES1   0.0000
    16 C16      0.5101   0.5433   2.2298   C.2       1 RES1   0.0000
    17 N17      1.3217   3.5855   2.8074   N.am      1 RES1   0.0000
    18 C18      0.1453   4.1276   3.1595   C.2       1 RES1   0.0000
    19 O19     -0.3247   4.1995   4.2946   O.2       1 RES1   0.0000
    20 O20     -0.5672   4.6641   2.0959   O.3       1 RES1   0.0000
    21 C21     -1.8201   5.2911   2.2866   C.3       1 RES1   0.0000
    22 C22     -2.0361   6.1416   1.0392   C.3       1 RES1   0.0000
    23 O23     -2.6501   5.2417   0.0995   O.3       1 RES1   0.0000
    24 C24     -3.5619   4.4210   0.8357   C.3       1 RES1   0.0000
    25 O25     -3.6331   3.1318   0.2668   O.3       1 RES1   0.0000
    26 C26     -2.6063   2.3658   0.8726   C.3       1 RES1   0.0000
    27 C27     -2.6158   2.7986   2.3249   C.3       1 RES1   0.0000
    28 C28     -2.9735   4.2883   2.2511   C.3       1 RES1   0.0000
    29 S29      5.6858   4.7422   6.9542   S.o2      1 RES1   0.0000
    30 O30      4.5806   4.3004   7.7201   O.2       1 RES1   0.0000
    31 O31      6.2018   6.0339   7.1859   O.2       1 RES1   0.0000
    32 C32      6.9931   3.6016   7.2176   C.2       1 RES1   0.0000
    33 C33      6.7128   2.2905   7.5810   C.2       1 RES1   0.0000
    34 C34      7.6702   1.3565   7.8348   C.2       1 RES1   0.0000
    35 C35      9.0102   1.6445   7.7600   C.2       1 RES1   0.0000
    36 B36     10.0272   0.5597   8.0723   B         1 RES1   0.0000
    37 O37      9.6998  -0.7142   8.4313   O.3       1 RES1   0.0000
    38 O38     11.2996   0.9263   8.0424   O.3       1 RES1   0.0000
    39 C39      9.3572   2.9832   7.4134   C.2       1 RES1   0.0000
    40 C40      8.3585   3.9123   7.1524   C.2       1 RES1   0.0000
@<TRIPOS>BOND
     1     1     2    1
     2     2     3    1
     3     2     4    1
     4     4     5    1
     5     5     6    1
     6     6     7    1
     7     7     8    1
     8     7     9    1
     9     9    10    1
    10    10    11    1
    11    11    12    2
    12    12    13    1
    13    13    14    2
    14    14    15    1
    15    15    16    2
    16     9    17    1
    17    17    18   am
    18    18    19    2
    19    18    20    1
    20    21    20    1
    21    21    22    1
    22    22    23    1
    23    24    23    1
    24    24    25    1
    25    25    26    1
    26    26    27    1
    27    28    27    1
    28     5    29    1
    29    29    30    2
    30    29    31    2
    31    29    32    1
    32    32    33    2
    33    33    34    1
    34    34    35    2
    35    35    36    1
    36    36    37    1
    37    36    38    1
    38    35    39    1
    39    39    40    2
    40    16    11    1
    41    28    21    1
    42    40    32    1
    43    28    24    1
@<TRIPOS>SUBSTRUCTURE
     1 RES1        1 GROUP             0 ****  ****    0  
@<TRIPOS>MOLECULE
ligand_27
    40    43     1     0     0
SMALL
NO_CHARGES
****
Generated from the CSD

@<TRIPOS>ATOM
     1 C1      13.3828  -1.1859  -1.2237   C.3       1 RES1   0.0000
     2 C2      13.1328  -0.8610   0.2387   C.3       1 RES1   0.0000
     3 C3      12.7320   0.5889   0.3597   C.3       1 RES1   0.0000
     4 C4      12.0389  -1.7475   0.8123   C.2       1 RES1   0.0000
     5 N5      11.7316  -1.6623   2.2095   N.pl3     1 RES1   0.0000
     6 C6      10.4095  -1.2419   2.5203   C.2       1 RES1   0.0000
     7 C7      10.2884   0.0269   3.3538   C.3       1 RES1   0.0000
     8 O8      11.1230   1.0195   2.7943   O.3       1 RES1   0.0000
     9 C9       8.8052   0.5551   3.4340   C.3       1 RES1   0.0000
    10 C10      8.2763   1.1060   2.0867   C.3       1 RES1   0.0000
    11 C11      6.8592   1.4677   2.1750   C.2       1 RES1   0.0000
    12 C12      5.8822   0.5005   1.8738   C.2       1 RES1   0.0000
    13 C13      4.5272   0.7960   1.9936   C.2       1 RES1   0.0000
    14 C14      4.0989   2.0582   2.4130   C.2       1 RES1   0.0000
    15 C15      5.0573   3.0317   2.7263   C.2       1 RES1   0.0000
    16 C16      6.4207   2.7313   2.6065   C.2       1 RES1   0.0000
    17 N17      8.7756   1.5453   4.4218   N.am      1 RES1   0.0000
    18 C18      7.8778   1.6382   5.4153   C.2       1 RES1   0.0000
    19 O19      6.9336   0.8791   5.6311   O.2       1 RES1   0.0000
    20 O20      8.0940   2.7107   6.2697   O.3       1 RES1   0.0000
    21 C21      7.2549   2.9506   7.3812   C.3       1 RES1   0.0000
    22 C22      7.8383   3.8819   8.4441   C.3       1 RES1   0.0000
    23 O23      6.7079   4.2524   9.2483   O.3       1 RES1   0.0000
    24 C24      5.5824   4.3661   8.3960   C.3       1 RES1   0.0000
    25 O25      5.3061   5.7212   8.1149   O.3       1 RES1   0.0000
    26 C26      6.0885   6.0665   6.9850   C.3       1 RES1   0.0000
    27 C27      6.0244   4.8526   6.0812   C.3       1 RES1   0.0000
    28 C28      5.9308   3.6766   7.0607   C.3       1 RES1   0.0000
    29 S29     12.5737  -2.6479   3.2400   S.o2      1 RES1   0.0000
    30 O30     12.2047  -2.3234   4.5673   O.2       1 RES1   0.0000
    31 O31     13.9357  -2.5925   2.8792   O.2       1 RES1   0.0000
    32 C32     12.0156  -4.2820   2.9274   C.2       1 RES1   0.0000
    33 C33     12.6516  -5.0662   1.9735   C.2       1 RES1   0.0000
    34 C34     12.2586  -6.3291   1.6506   C.2       1 RES1   0.0000
    35 C35     11.1789  -6.9329   2.2452   C.2       1 RES1   0.0000
    36 B36     10.7834  -8.3389   1.8263   B         1 RES1   0.0000
    37 O37     11.4388  -9.0664   0.8777   O.3       1 RES1   0.0000
    38 O38      9.6943  -8.8331   2.3957   O.3       1 RES1   0.0000
    39 C39     10.4727  -6.1650   3.2169   C.2       1 RES1   0.0000
    40 C40     10.9019  -4.8820   3.5312   C.2       1 RES1   0.0000
@<TRIPOS>BOND
     1     1     2    1
     2     2     3    1
     3     2     4    1
     4     4     5    1
     5     5     6    1
     6     6     7    1
     7     7     8    1
     8     7     9    1
     9     9    10    1
    10    10    11    1
    11    11    12    2
    12    12    13    1
    13    13    14    2
    14    14    15    1
    15    15    16    2
    16     9    17    1
    17    17    18   am
    18    18    19    2
    19    18    20    1
    20    21    20    1
    21    21    22    1
    22    22    23    1
    23    24    23    1
    24    24    25    1
    25    25    26    1
    26    26    27    1
    27    28    27    1
    28     5    29    1
    29    29    30    2
    30    29    31    2
    31    29    32    1
    32    32    33    2
    33    33    34    1
    34    34    35    2
    35    35    36    1
    36    36    37    1
    37    36    38    1
    38    35    39    1
    39    39    40    2
    40    16    11    1
    41    28    21    1
    42    40    32    1
    43    28    24    1
@<TRIPOS>SUBSTRUCTURE
     1 RES1        1 GROUP             0 ****  ****    0  
@<TRIPOS>MOLECULE
ligand_28
    40    43     1     0     0
SMALL
NO_CHARGES
****
Generated from the CSD

@<TRIPOS>ATOM
     1 C1      12.5533   6.7511   1.7505   C.3       1 RES1   0.0000
     2 C2      13.0592   5.4732   2.3967   C.3       1 RES1   0.0000
     3 C3      12.8330   5.5516   3.8868   C.3       1 RES1   0.0000
     4 C4      12.3425   4.2580   1.8301   C.2       1 RES1   0.0000
     5 N5      12.7429   2.9494   2.2555   N.pl3     1 RES1   0.0000
     6 C6      11.7524   2.2024   2.9499   C.2       1 RES1   0.0000
     7 C7      12.0899   1.8115   4.3826   C.3       1 RES1   0.0000
     8 O8      12.2447   2.9871   5.1499   O.3       1 RES1   0.0000
     9 C9      10.9879   0.8888   5.0302   C.3       1 RES1   0.0000
    10 C10     10.6564  -0.3616   4.1786   C.3       1 RES1   0.0000
    11 C11      9.7240  -1.2521   4.8746   C.2       1 RES1   0.0000
    12 C12     10.2329  -2.2660   5.7076   C.2       1 RES1   0.0000
    13 C13      9.3754  -3.0987   6.4209   C.2       1 RES1   0.0000
    14 C14      7.9886  -2.9541   6.3294   C.2       1 RES1   0.0000
    15 C15      7.4631  -1.9441   5.5120   C.2       1 RES1   0.0000
    16 C16      8.3285  -1.1060   4.7963   C.2       1 RES1   0.0000
    17 N17      9.8489   1.6796   5.2164   N.am      1 RES1   0.0000
    18 C18      9.1203   1.7565   6.3411   C.2       1 RES1   0.0000
    19 O19      9.3219   1.1531   7.3946   O.2       1 RES1   0.0000
    20 O20      8.0498   2.6362   6.2583   O.3       1 RES1   0.0000
    21 C21      7.1865   2.8548   7.3555   C.3       1 RES1   0.0000
    22 C22      7.7448   3.7683   8.4470   C.3       1 RES1   0.0000
    23 O23      6.5966   4.1223   9.2331   O.3       1 RES1   0.0000
    24 C24      5.4893   4.2487   8.3590   C.3       1 RES1   0.0000
    25 O25      5.2159   5.6081   8.0960   O.3       1 RES1   0.0000
    26 C26      6.0215   5.9749   6.9894   C.3       1 RES1   0.0000
    27 C27      5.9797   4.7770   6.0632   C.3       1 RES1   0.0000
    28 C28      5.8679   3.5836   7.0196   C.3       1 RES1   0.0000
    29 S29     13.9220   2.1866   1.3779   S.o2      1 RES1   0.0000
    30 O30     14.2474   0.9732   2.0298   O.2       1 RES1   0.0000
    31 O31     14.9483   3.1197   1.1246   O.2       1 RES1   0.0000
    32 C32     13.1987   1.7722  -0.1663   C.2       1 RES1   0.0000
    33 C33     12.5603   0.5498  -0.3324   C.2       1 RES1   0.0000
    34 C34     12.0045   0.1418  -1.5064   C.2       1 RES1   0.0000
    35 C35     12.0408   0.9152  -2.6397   C.2       1 RES1   0.0000
    36 B36     11.4158   0.3928  -3.9223   B         1 RES1   0.0000
    37 O37     10.8044  -0.8205  -4.0354   O.3       1 RES1   0.0000
    38 O38     11.5446   1.1645  -4.9911   O.3       1 RES1   0.0000
    39 C39     12.7049   2.1724  -2.5340   C.2       1 RES1   0.0000
    40 C40     13.2556   2.5651  -1.3209   C.2       1 RES1   0.0000
@<TRIPOS>BOND
     1     1     2    1
     2     2     3    1
     3     2     4    1
     4     4     5    1
     5     5     6    1
     6     6     7    1
     7     7     8    1
     8     7     9    1
     9     9    10    1
    10    10    11    1
    11    11    12    2
    12    12    13    1
    13    13    14    2
    14    14    15    1
    15    15    16    2
    16     9    17    1
    17    17    18   am
    18    18    19    2
    19    18    20    1
    20    21    20    1
    21    21    22    1
    22    22    23    1
    23    24    23    1
    24    24    25    1
    25    25    26    1
    26    26    27    1
    27    28    27    1
    28     5    29    1
    29    29    30    2
    30    29    31    2
    31    29    32    1
    32    32    33    2
    33    33    34    1
    34    34    35    2
    35    35    36    1
    36    36    37    1
    37    36    38    1
    38    35    39    1
    39    39    40    2
    40    16    11    1
    41    28    21    1
    42    40    32    1
    43    28    24    1
@<TRIPOS>SUBSTRUCTURE
     1 RES1        1 GROUP             0 ****  ****    0  
@<TRIPOS>MOLECULE
ligand_29
    40    43     1     0     0
SMALL
NO_CHARGES
****
Generated from the CSD

@<TRIPOS>ATOM
     1 C1       6.5464  10.1395   0.3461   C.3       1 RES1   0.0000
     2 C2       6.1226   8.7021   0.0995   C.3       1 RES1   0.0000
     3 C3       6.6938   7.8265   1.1879   C.3       1 RES1   0.0000
     4 C4       4.6074   8.5785   0.0810   C.2       1 RES1   0.0000
     5 N5       4.0135   7.3129  -0.2341   N.pl3     1 RES1   0.0000
     6 C6       3.2469   6.7212   0.8068   C.2       1 RES1   0.0000
     7 C7       3.7220   5.3603   1.2982   C.3       1 RES1   0.0000
     8 O8       5.1175   5.4151   1.5088   O.3       1 RES1   0.0000
     9 C9       2.9962   4.9120   2.6239   C.3       1 RES1   0.0000
    10 C10      3.7429   3.7868   3.3821   C.3       1 RES1   0.0000
    11 C11      3.1032   3.4902   4.6665   C.2       1 RES1   0.0000
    12 C12      3.5123   4.1904   5.8167   C.2       1 RES1   0.0000
    13 C13      2.8931   3.9680   7.0434   C.2       1 RES1   0.0000
    14 C14      1.8521   3.0443   7.1686   C.2       1 RES1   0.0000
    15 C15      1.4247   2.3439   6.0322   C.2       1 RES1   0.0000
    16 C16      2.0485   2.5709   4.7982   C.2       1 RES1   0.0000
    17 N17      1.7078   4.5002   2.2665   N.am      1 RES1   0.0000
    18 C18      0.5672   5.1455   2.5572   C.2       1 RES1   0.0000
    19 O19      0.4534   6.1999   3.1814   O.2       1 RES1   0.0000
    20 O20     -0.5716   4.5242   2.0633   O.3       1 RES1   0.0000
    21 C21     -1.8590   5.0742   2.2620   C.3       1 RES1   0.0000
    22 C22     -2.1628   5.8529   0.9863   C.3       1 RES1   0.0000
    23 O23     -2.7376   4.8737   0.1026   O.3       1 RES1   0.0000
    24 C24     -3.5733   4.0273   0.8976   C.3       1 RES1   0.0000
    25 O25     -3.5711   2.7125   0.3857   O.3       1 RES1   0.0000
    26 C26     -2.4802   2.0438   0.9947   C.3       1 RES1   0.0000
    27 C27     -2.4830   2.5383   2.4272   C.3       1 RES1   0.0000
    28 C28     -2.9425   3.9962   2.3006   C.3       1 RES1   0.0000
    29 S29      3.6684   7.0038  -1.8240   S.o2      1 RES1   0.0000
    30 O30      3.2040   5.6709  -1.9277   O.2       1 RES1   0.0000
    31 O31      4.7805   7.3993  -2.5954   O.2       1 RES1   0.0000
    32 C32      2.3323   8.0572  -2.2536   C.2       1 RES1   0.0000
    33 C33      2.5795   9.3273  -2.7589   C.2       1 RES1   0.0000
    34 C34      1.5991  10.2143  -3.0840   C.2       1 RES1   0.0000
    35 C35      0.2674   9.9219  -2.9259   C.2       1 RES1   0.0000
    36 B36     -0.7760  10.9638  -3.2926   B         1 RES1   0.0000
    37 O37     -0.4807  12.2021  -3.7807   O.3       1 RES1   0.0000
    38 O38     -2.0370  10.6365  -3.0538   O.3       1 RES1   0.0000
    39 C39     -0.0453   8.6390  -2.3883   C.2       1 RES1   0.0000
    40 C40      0.9760   7.7522  -2.0733   C.2       1 RES1   0.0000
@<TRIPOS>BOND
     1     1     2    1
     2     2     3    1
     3     2     4    1
     4     4     5    1
     5     5     6    1
     6     6     7    1
     7     7     8    1
     8     7     9    1
     9     9    10    1
    10    10    11    1
    11    11    12    2
    12    12    13    1
    13    13    14    2
    14    14    15    1
    15    15    16    2
    16     9    17    1
    17    17    18   am
    18    18    19    2
    19    18    20    1
    20    21    20    1
    21    21    22    1
    22    22    23    1
    23    24    23    1
    24    24    25    1
    25    25    26    1
    26    26    27    1
    27    28    27    1
    28     5    29    1
    29    29    30    2
    30    29    31    2
    31    29    32    1
    32    32    33    2
    33    33    34    1
    34    34    35    2
    35    35    36    1
    36    36    37    1
    37    36    38    1
    38    35    39    1
    39    39    40    2
    40    16    11    1
    41    28    21    1
    42    40    32    1
    43    28    24    1
@<TRIPOS>SUBSTRUCTURE
     1 RES1        1 GROUP             0 ****  ****    0  
@<TRIPOS>MOLECULE
ligand_30
    40    43     1     0     0
SMALL
NO_CHARGES
****
Generated from the CSD

@<TRIPOS>ATOM
     1 C1      17.1253   3.9417   5.6626   C.3       1 RES1   0.0000
     2 C2      15.9341   3.6159   4.7786   C.3       1 RES1   0.0000
     3 C3      15.9049   2.1294   4.5194   C.3       1 RES1   0.0000
     4 C4      14.6345   4.0495   5.4376   C.2       1 RES1   0.0000
     5 N5      13.4046   3.9106   4.7152   N.pl3     1 RES1   0.0000
     6 C6      12.4717   2.9907   5.2673   C.2       1 RES1   0.0000
     7 C7      12.0899   1.8115   4.3826   C.3       1 RES1   0.0000
     8 O8      13.2441   1.0356   4.1366   O.3       1 RES1   0.0000
     9 C9      10.9667   0.9133   5.0284   C.3       1 RES1   0.0000
    10 C10     10.6171  -0.3355   4.1817   C.3       1 RES1   0.0000
    11 C11      9.6639  -1.2044   4.8768   C.2       1 RES1   0.0000
    12 C12     10.1485  -2.2228   5.7186   C.2       1 RES1   0.0000
    13 C13      9.2711  -3.0352   6.4311   C.2       1 RES1   0.0000
    14 C14      7.8878  -2.8652   6.3300   C.2       1 RES1   0.0000
    15 C15      7.3865  -1.8502   5.5037   C.2       1 RES1   0.0000
    16 C16      8.2719  -1.0326   4.7888   C.2       1 RES1   0.0000
    17 N17      9.8417   1.7263   5.2030   N.am      1 RES1   0.0000
    18 C18      9.1077   1.8233   6.3226   C.2       1 RES1   0.0000
    19 O19      9.2914   1.2223   7.3807   O.2       1 RES1   0.0000
    20 O20      8.0545   2.7225   6.2281   O.3       1 RES1   0.0000
    21 C21      7.1887   2.9634   7.3187   C.3       1 RES1   0.0000
    22 C22      7.7572   3.8725   8.4085   C.3       1 RES1   0.0000
    23 O23      6.6110   4.2524   9.1854   O.3       1 RES1   0.0000
    24 C24      5.5118   4.3946   8.3036   C.3       1 RES1   0.0000
    25 O25      5.2655   5.7574   8.0313   O.3       1 RES1   0.0000
    26 C26      6.0847   6.1027   6.9278   C.3       1 RES1   0.0000
    27 C27      6.0262   4.9006   6.0081   C.3       1 RES1   0.0000
    28 C28      5.8861   3.7150   6.9704   C.3       1 RES1   0.0000
    29 S29     12.8917   5.2065   3.8207   S.o2      1 RES1   0.0000
    30 O30     13.0896   6.3812   4.5849   O.2       1 RES1   0.0000
    31 O31     11.5984   4.9179   3.3386   O.2       1 RES1   0.0000
    32 C32     13.9590   5.3014   2.4311   C.2       1 RES1   0.0000
    33 C33     15.1083   6.0796   2.4857   C.2       1 RES1   0.0000
    34 C34     15.9680   6.2306   1.4408   C.2       1 RES1   0.0000
    35 C35     15.7577   5.6234   0.2279   C.2       1 RES1   0.0000
    36 B36     16.7481   5.8473  -0.9025   B         1 RES1   0.0000
    37 O37     17.8612   6.6277  -0.7998   O.3       1 RES1   0.0000
    38 O38     16.4476   5.2824  -2.0623   O.3       1 RES1   0.0000
    39 C39     14.5796   4.8298   0.1068   C.2       1 RES1   0.0000
    40 C40     13.7252   4.6879   1.1926   C.2       1 RES1   0.0000
@<TRIPOS>BOND
     1     1     2    1
     2     2     3    1
     3     2     4    1
     4     4     5    1
     5     5     6    1
     6     6     7    1
     7     7     8    1
     8     7     9    1
     9     9    10    1
    10    10    11    1
    11    11    12    2
    12    12    13    1
    13    13    14    2
    14    14    15    1
    15    15    16    2
    16     9    17    1
    17    17    18   am
    18    18    19    2
    19    18    20    1
    20    21    20    1
    21    21    22    1
    22    22    23    1
    23    24    23    1
    24    24    25    1
    25    25    26    1
    26    26    27    1
    27    28    27    1
    28     5    29    1
    29    29    30    2
    30    29    31    2
    31    29    32    1
    32    32    33    2
    33    33    34    1
    34    34    35    2
    35    35    36    1
    36    36    37    1
    37    36    38    1
    38    35    39    1
    39    39    40    2
    40    16    11    1
    41    28    21    1
    42    40    32    1
    43    28    24    1
@<TRIPOS>SUBSTRUCTURE
     1 RES1        1 GROUP             0 ****  ****    0  
@<TRIPOS>MOLECULE
ligand_31
    40    43     1     0     0
SMALL
NO_CHARGES
****
Generated from the CSD

@<TRIPOS>ATOM
     1 C1      12.2048  -5.0005   5.7341   C.3       1 RES1   0.0000
     2 C2      12.1216  -3.8707   4.7225   C.3       1 RES1   0.0000
     3 C3      10.9351  -4.1045   3.8195   C.3       1 RES1   0.0000
     4 C4      11.9813  -2.5270   5.4198   C.2       1 RES1   0.0000
     5 N5      11.9528  -1.3305   4.6316   N.pl3     1 RES1   0.0000
     6 C6      10.7315  -0.6036   4.6673   C.2       1 RES1   0.0000
     7 C7      10.2884   0.0269   3.3538   C.3       1 RES1   0.0000
     8 O8      10.4520  -0.9189   2.3178   O.3       1 RES1   0.0000
     9 C9       8.7922   0.5213   3.3981   C.3       1 RES1   0.0000
    10 C10      8.2955   1.0959   2.0483   C.3       1 RES1   0.0000
    11 C11      6.8686   1.4251   2.0987   C.2       1 RES1   0.0000
    12 C12      5.9235   0.4456   1.7408   C.2       1 RES1   0.0000
    13 C13      4.5592   0.7091   1.8230   C.2       1 RES1   0.0000
    14 C14      4.0897   1.9506   2.2599   C.2       1 RES1   0.0000
    15 C15      5.0157   2.9357   2.6294   C.2       1 RES1   0.0000
    16 C16      6.3886   2.6674   2.5473   C.2       1 RES1   0.0000
    17 N17      8.7085   1.4846   4.4092   N.am      1 RES1   0.0000
    18 C18      7.7769   1.5325   5.3744   C.2       1 RES1   0.0000
    19 O19      6.8431   0.7482   5.5394   O.2       1 RES1   0.0000
    20 O20      7.9414   2.5867   6.2624   O.3       1 RES1   0.0000
    21 C21      7.0614   2.7797   7.3511   C.3       1 RES1   0.0000
    22 C22      7.5892   3.6951   8.4561   C.3       1 RES1   0.0000
    23 O23      6.4253   4.0205   9.2315   O.3       1 RES1   0.0000
    24 C24      5.3260   4.1325   8.3454   C.3       1 RES1   0.0000
    25 O25      5.0292   5.4884   8.0898   O.3       1 RES1   0.0000
    26 C26      5.8402   5.8795   6.9956   C.3       1 RES1   0.0000
    27 C27      5.8325   4.6885   6.0597   C.3       1 RES1   0.0000
    28 C28      5.7329   3.4856   7.0054   C.3       1 RES1   0.0000
    29 S29     13.3926  -0.5590   4.3590   S.o2      1 RES1   0.0000
    30 O30     13.1625   0.5069   3.4567   O.2       1 RES1   0.0000
    31 O31     14.3538  -1.5360   4.0275   O.2       1 RES1   0.0000
    32 C32     13.8723   0.1483   5.8915   C.2       1 RES1   0.0000
    33 C33     13.4708   1.4364   6.2219   C.2       1 RES1   0.0000
    34 C34     13.8283   2.0661   7.3748   C.2       1 RES1   0.0000
    35 C35     14.6354   1.4714   8.3123   C.2       1 RES1   0.0000
    36 B36     15.0103   2.2366   9.5703   B         1 RES1   0.0000
    37 O37     14.5937   3.5052   9.8457   O.3       1 RES1   0.0000
    38 O38     15.8430   1.6252  10.3992   O.3       1 RES1   0.0000
    39 C39     15.0973   0.1558   8.0151   C.2       1 RES1   0.0000
    40 C40     14.7095  -0.4643   6.8344   C.2       1 RES1   0.0000
@<TRIPOS>BOND
     1     1     2    1
     2     2     3    1
     3     2     4    1
     4     4     5    1
     5     5     6    1
     6     6     7    1
     7     7     8    1
     8     7     9    1
     9     9    10    1
    10    10    11    1
    11    11    12    2
    12    12    13    1
    13    13    14    2
    14    14    15    1
    15    15    16    2
    16     9    17    1
    17    17    18   am
    18    18    19    2
    19    18    20    1
    20    21    20    1
    21    21    22    1
    22    22    23    1
    23    24    23    1
    24    24    25    1
    25    25    26    1
    26    26    27    1
    27    28    27    1
    28     5    29    1
    29    29    30    2
    30    29    31    2
    31    29    32    1
    32    32    33    2
    33    33    34    1
    34    34    35    2
    35    35    36    1
    36    36    37    1
    37    36    38    1
    38    35    39    1
    39    39    40    2
    40    16    11    1
    41    28    21    1
    42    40    32    1
    43    28    24    1
@<TRIPOS>SUBSTRUCTURE
     1 RES1        1 GROUP             0 ****  ****    0  
@<TRIPOS>MOLECULE
ligand_32
    40    43     1     0     0
SMALL
NO_CHARGES
****
Generated from the CSD

@<TRIPOS>ATOM
     1 C1       2.7094   8.5830  -2.0942   C.3       1 RES1   0.0000
     2 C2       3.1276   8.1504  -0.6997   C.3       1 RES1   0.0000
     3 C3       2.0027   7.3666  -0.0689   C.3       1 RES1   0.0000
     4 C4       4.3849   7.2970  -0.7505   C.2       1 RES1   0.0000
     5 N5       5.0022   6.8889   0.4768   N.pl3     1 RES1   0.0000
     6 C6       5.0985   5.4844   0.6754   C.2       1 RES1   0.0000
     7 C7       3.7799   4.7358   0.8169   C.3       1 RES1   0.0000
     8 O8       4.0279   3.3510   0.6917   O.3       1 RES1   0.0000
     9 C9       3.0645   5.0312   2.1903   C.3       1 RES1   0.0000
    10 C10      3.7704   4.3763   3.4033   C.3       1 RES1   0.0000
    11 C11      3.1479   4.7790   4.6671   C.2       1 RES1   0.0000
    12 C12      3.6207   5.9256   5.3323   C.2       1 RES1   0.0000
    13 C13      3.0211   6.3636   6.5096   C.2       1 RES1   0.0000
    14 C14      1.9371   5.6786   7.0648   C.2       1 RES1   0.0000
    15 C15      1.4464   4.5397   6.4118   C.2       1 RES1   0.0000
    16 C16      2.0506   4.1017   5.2258   C.2       1 RES1   0.0000
    17 N17      1.7482   4.5720   2.0738   N.am      1 RES1   0.0000
    18 C18      0.6441   5.2549   2.4152   C.2       1 RES1   0.0000
    19 O19      0.5940   6.3911   2.8850   O.2       1 RES1   0.0000
    20 O20     -0.5381   4.5678   2.1761   O.3       1 RES1   0.0000
    21 C21     -1.7980   5.1434   2.4599   C.3       1 RES1   0.0000
    22 C22     -2.1095   6.0352   1.2625   C.3       1 RES1   0.0000
    23 O23     -2.7452   5.1530   0.3203   O.3       1 RES1   0.0000
    24 C24     -3.5883   4.2729   1.0695   C.3       1 RES1   0.0000
    25 O25     -3.6494   3.0058   0.4518   O.3       1 RES1   0.0000
    26 C26     -2.5669   2.2518   0.9691   C.3       1 RES1   0.0000
    27 C27     -2.5102   2.6255   2.4367   C.3       1 RES1   0.0000
    28 C28     -2.9190   4.1039   2.4445   C.3       1 RES1   0.0000
    29 S29      6.1025   7.9207   1.1602   S.o2      1 RES1   0.0000
    30 O30      6.4910   7.3906   2.4137   O.2       1 RES1   0.0000
    31 O31      5.5670   9.2241   1.1088   O.2       1 RES1   0.0000
    32 C32      7.5164   7.8945   0.1212   C.2       1 RES1   0.0000
    33 C33      8.5328   6.9755   0.3488   C.2       1 RES1   0.0000
    34 C34      9.6740   6.9136  -0.3910   C.2       1 RES1   0.0000
    35 C35      9.9184   7.7755  -1.4309   C.2       1 RES1   0.0000
    36 B36     11.2207   7.6630  -2.2057   B         1 RES1   0.0000
    37 O37     12.1920   6.7444  -1.9381   O.3       1 RES1   0.0000
    38 O38     11.4163   8.5676  -3.1531   O.3       1 RES1   0.0000
    39 C39      8.9185   8.7566  -1.6956   C.2       1 RES1   0.0000
    40 C40      7.7609   8.7903  -0.9289   C.2       1 RES1   0.0000
@<TRIPOS>BOND
     1     1     2    1
     2     2     3    1
     3     2     4    1
     4     4     5    1
     5     5     6    1
     6     6     7    1
     7     7     8    1
     8     7     9    1
     9     9    10    1
    10    10    11    1
    11    11    12    2
    12    12    13    1
    13    13    14    2
    14    14    15    1
    15    15    16    2
    16     9    17    1
    17    17    18   am
    18    18    19    2
    19    18    20    1
    20    21    20    1
    21    21    22    1
    22    22    23    1
    23    24    23    1
    24    24    25    1
    25    25    26    1
    26    26    27    1
    27    28    27    1
    28     5    29    1
    29    29    30    2
    30    29    31    2
    31    29    32    1
    32    32    33    2
    33    33    34    1
    34    34    35    2
    35    35    36    1
    36    36    37    1
    37    36    38    1
    38    35    39    1
    39    39    40    2
    40    16    11    1
    41    28    21    1
    42    40    32    1
    43    28    24    1
@<TRIPOS>SUBSTRUCTURE
     1 RES1        1 GROUP             0 ****  ****    0  
@<TRIPOS>MOLECULE
ligand_33
    40    43     1     0     0
SMALL
NO_CHARGES
****
Generated from the CSD

@<TRIPOS>ATOM
     1 C1       3.5287   7.4835   6.3997   C.3       1 RES1   0.0000
     2 C2       3.2620   5.9963   6.2457   C.3       1 RES1   0.0000
     3 C3       2.1406   5.7969   5.2555   C.3       1 RES1   0.0000
     4 C4       4.5077   5.2682   5.7667   C.2       1 RES1   0.0000
     5 N5       4.4885   3.8383   5.6728   N.pl3     1 RES1   0.0000
     6 C6       4.7308   3.3073   4.3764   C.2       1 RES1   0.0000
     7 C7       3.6849   3.6250   3.3160   C.3       1 RES1   0.0000
     8 O8       4.2143   3.3065   2.0459   O.3       1 RES1   0.0000
     9 C9       2.3363   2.8422   3.5473   C.3       1 RES1   0.0000
    10 C10      2.4449   1.3282   3.2399   C.3       1 RES1   0.0000
    11 C11      1.2128   0.6195   3.5955   C.2       1 RES1   0.0000
    12 C12      1.0619   0.1143   4.9004   C.2       1 RES1   0.0000
    13 C13     -0.1147  -0.5218   5.2859   C.2       1 RES1   0.0000
    14 C14     -1.1761  -0.6788   4.3907   C.2       1 RES1   0.0000
    15 C15     -1.0479  -0.1742   3.0894   C.2       1 RES1   0.0000
    16 C16      0.1369   0.4673   2.7043   C.2       1 RES1   0.0000
    17 N17      1.3681   3.4456   2.7376   N.am      1 RES1   0.0000
    18 C18      0.1515   3.8501   3.1351   C.2       1 RES1   0.0000
    19 O19     -0.3313   3.7420   4.2619   O.2       1 RES1   0.0000
    20 O20     -0.5912   4.4638   2.1358   O.3       1 RES1   0.0000
    21 C21     -1.8722   5.0044   2.3929   C.3       1 RES1   0.0000
    22 C22     -2.1320   5.9794   1.2492   C.3       1 RES1   0.0000
    23 O23     -2.7047   5.1634   0.2119   O.3       1 RES1   0.0000
    24 C24     -3.5741   4.2219   0.8478   C.3       1 RES1   0.0000
    25 O25     -3.5850   3.0035   0.1362   O.3       1 RES1   0.0000
    26 C26     -2.5211   2.2239   0.6542   C.3       1 RES1   0.0000
    27 C27     -2.5474   2.4883   2.1462   C.3       1 RES1   0.0000
    28 C28     -2.9763   3.9579   2.2407   C.3       1 RES1   0.0000
    29 S29      4.8830   2.9767   7.0309   S.o2      1 RES1   0.0000
    30 O30      4.6799   1.6023   6.7607   O.2       1 RES1   0.0000
    31 O31      4.2147   3.5611   8.1263   O.2       1 RES1   0.0000
    32 C32      6.6038   3.2108   7.2822   C.2       1 RES1   0.0000
    33 C33      7.5185   2.3400   6.7038   C.2       1 RES1   0.0000
    34 C34      8.8654   2.4349   6.8781   C.2       1 RES1   0.0000
    35 C35      9.4342   3.4089   7.6603   C.2       1 RES1   0.0000
    36 B36     10.9440   3.4482   7.8264   B         1 RES1   0.0000
    37 O37     11.8005   2.5640   7.2403   O.3       1 RES1   0.0000
    38 O38     11.4173   4.3750   8.6459   O.3       1 RES1   0.0000
    39 C39      8.5405   4.3180   8.2987   C.2       1 RES1   0.0000
    40 C40      7.1715   4.2011   8.0959   C.2       1 RES1   0.0000
@<TRIPOS>BOND
     1     1     2    1
     2     2     3    1
     3     2     4    1
     4     4     5    1
     5     5     6    1
     6     6     7    1
     7     7     8    1
     8     7     9    1
     9     9    10    1
    10    10    11    1
    11    11    12    2
    12    12    13    1
    13    13    14    2
    14    14    15    1
    15    15    16    2
    16     9    17    1
    17    17    18   am
    18    18    19    2
    19    18    20    1
    20    21    20    1
    21    21    22    1
    22    22    23    1
    23    24    23    1
    24    24    25    1
    25    25    26    1
    26    26    27    1
    27    28    27    1
    28     5    29    1
    29    29    30    2
    30    29    31    2
    31    29    32    1
    32    32    33    2
    33    33    34    1
    34    34    35    2
    35    35    36    1
    36    36    37    1
    37    36    38    1
    38    35    39    1
    39    39    40    2
    40    16    11    1
    41    28    21    1
    42    40    32    1
    43    28    24    1
@<TRIPOS>SUBSTRUCTURE
     1 RES1        1 GROUP             0 ****  ****    0  
@<TRIPOS>MOLECULE
ligand_34
    40    43     1     0     0
SMALL
NO_CHARGES
****
Generated from the CSD

@<TRIPOS>ATOM
     1 C1      13.8923   5.6073   1.5399   C.3       1 RES1   0.0000
     2 C2      13.7235   5.4903   3.0447   C.3       1 RES1   0.0000
     3 C3      12.4293   6.1535   3.4483   C.3       1 RES1   0.0000
     4 C4      13.7124   4.0330   3.4779   C.2       1 RES1   0.0000
     5 N5      13.6271   3.7197   4.8737   N.pl3     1 RES1   0.0000
     6 C6      12.4717   2.9907   5.2673   C.2       1 RES1   0.0000
     7 C7      12.0899   1.8115   4.3826   C.3       1 RES1   0.0000
     8 O8      13.2600   1.0914   4.0553   O.3       1 RES1   0.0000
     9 C9      11.0458   0.8537   5.0737   C.3       1 RES1   0.0000
    10 C10     10.7013  -0.3943   4.2237   C.3       1 RES1   0.0000
    11 C11      9.8282  -1.3162   4.9549   C.2       1 RES1   0.0000
    12 C12     10.4042  -2.3269   5.7470   C.2       1 RES1   0.0000
    13 C13      9.6054  -3.1894   6.4923   C.2       1 RES1   0.0000
    14 C14      8.2126  -3.0786   6.4742   C.2       1 RES1   0.0000
    15 C15      7.6209  -2.0723   5.6985   C.2       1 RES1   0.0000
    16 C16      8.4274  -1.2042   4.9504   C.2       1 RES1   0.0000
    17 N17      9.8990   1.6134   5.3288   N.am      1 RES1   0.0000
    18 C18      9.2280   1.6584   6.4905   C.2       1 RES1   0.0000
    19 O19      9.4986   1.0477   7.5240   O.2       1 RES1   0.0000
    20 O20      8.1335   2.5120   6.4747   O.3       1 RES1   0.0000
    21 C21      7.3231   2.6955   7.6177   C.3       1 RES1   0.0000
    22 C22      7.9147   3.6096   8.6910   C.3       1 RES1   0.0000
    23 O23      6.8004   3.9252   9.5399   O.3       1 RES1   0.0000
    24 C24      5.6466   4.0343   8.7257   C.3       1 RES1   0.0000
    25 O25      5.3268   5.3895   8.4953   O.3       1 RES1   0.0000
    26 C26      6.0648   5.7896   7.3536   C.3       1 RES1   0.0000
    27 C27      6.0044   4.6024   6.4150   C.3       1 RES1   0.0000
    28 C28      5.9714   3.3951   7.3598   C.3       1 RES1   0.0000
    29 S29     15.0466   3.5804   5.7151   S.o2      1 RES1   0.0000
    30 O30     14.7367   3.3969   7.0838   O.2       1 RES1   0.0000
    31 O31     15.8797   4.6558   5.3440   O.2       1 RES1   0.0000
    32 C32     15.8129   2.1060   5.1510   C.2       1 RES1   0.0000
    33 C33     15.5816   0.9039   5.8075   C.2       1 RES1   0.0000
    34 C34     16.1633  -0.2745   5.4519   C.2       1 RES1   0.0000
    35 C35     17.0467  -0.3669   4.4054   C.2       1 RES1   0.0000
    36 B36     17.6735  -1.7102   4.0717   B         1 RES1   0.0000
    37 O37     17.4173  -2.8632   4.7527   O.3       1 RES1   0.0000
    38 O38     18.5642  -1.7114   3.0914   O.3       1 RES1   0.0000
    39 C39     17.3400   0.8420   3.7087   C.2       1 RES1   0.0000
    40 C40     16.7251   2.0276   4.0895   C.2       1 RES1   0.0000
@<TRIPOS>BOND
     1     1     2    1
     2     2     3    1
     3     2     4    1
     4     4     5    1
     5     5     6    1
     6     6     7    1
     7     7     8    1
     8     7     9    1
     9     9    10    1
    10    10    11    1
    11    11    12    2
    12    12    13    1
    13    13    14    2
    14    14    15    1
    15    15    16    2
    16     9    17    1
    17    17    18   am
    18    18    19    2
    19    18    20    1
    20    21    20    1
    21    21    22    1
    22    22    23    1
    23    24    23    1
    24    24    25    1
    25    25    26    1
    26    26    27    1
    27    28    27    1
    28     5    29    1
    29    29    30    2
    30    29    31    2
    31    29    32    1
    32    32    33    2
    33    33    34    1
    34    34    35    2
    35    35    36    1
    36    36    37    1
    37    36    38    1
    38    35    39    1
    39    39    40    2
    40    16    11    1
    41    28    21    1
    42    40    32    1
    43    28    24    1
@<TRIPOS>SUBSTRUCTURE
     1 RES1        1 GROUP             0 ****  ****    0  
@<TRIPOS>MOLECULE
ligand_35
    40    43     1     0     0
SMALL
NO_CHARGES
****
Generated from the CSD

@<TRIPOS>ATOM
     1 C1       8.9536   5.2621  -1.6563   C.3       1 RES1   0.0000
     2 C2       7.4398   5.1436  -1.6228   C.3       1 RES1   0.0000
     3 C3       7.0638   3.7900  -1.0714   C.3       1 RES1   0.0000
     4 C4       6.8286   6.2381  -0.7626   C.2       1 RES1   0.0000
     5 N5       5.4022   6.3317  -0.6606   N.pl3     1 RES1   0.0000
     6 C6       4.8639   6.0825   0.6315   C.2       1 RES1   0.0000
     7 C7       3.5842   5.2581   0.6765   C.3       1 RES1   0.0000
     8 O8       3.8385   3.9926   0.1034   O.3       1 RES1   0.0000
     9 C9       3.0327   5.0825   2.1429   C.3       1 RES1   0.0000
    10 C10      3.9151   4.1645   3.0246   C.3       1 RES1   0.0000
    11 C11      3.4368   4.1306   4.4091   C.2       1 RES1   0.0000
    12 C12      3.9337   5.0700   5.3318   C.2       1 RES1   0.0000
    13 C13      3.4657   5.0968   6.6425   C.2       1 RES1   0.0000
    14 C14      2.4935   4.1932   7.0795   C.2       1 RES1   0.0000
    15 C15      1.9799   3.2562   6.1725   C.2       1 RES1   0.0000
    16 C16      2.4515   3.2324   4.8532   C.2       1 RES1   0.0000
    17 N17      1.7356   4.5699   2.0343   N.am      1 RES1   0.0000
    18 C18      0.6024   5.2314   2.3175   C.2       1 RES1   0.0000
    19 O19      0.5042   6.3909   2.7177   O.2       1 RES1   0.0000
    20 O20     -0.5506   4.4890   2.1021   O.3       1 RES1   0.0000
    21 C21     -1.8347   5.0344   2.3319   C.3       1 RES1   0.0000
    22 C22     -2.1567   5.8418   1.0787   C.3       1 RES1   0.0000
    23 O23     -2.7447   4.8830   0.1815   O.3       1 RES1   0.0000
    24 C24     -3.5690   4.0188   0.9692   C.3       1 RES1   0.0000
    25 O25     -3.5748   2.7160   0.4276   O.3       1 RES1   0.0000
    26 C26     -2.4755   2.0336   1.0054   C.3       1 RES1   0.0000
    27 C27     -2.4573   2.4955   2.4486   C.3       1 RES1   0.0000
    28 C28     -2.9179   3.9559   2.3618   C.3       1 RES1   0.0000
    29 S29      4.6223   7.3297  -1.7275   S.o2      1 RES1   0.0000
    30 O30      3.2276   7.1823  -1.5368   O.2       1 RES1   0.0000
    31 O31      5.1618   7.1020  -3.0102   O.2       1 RES1   0.0000
    32 C32      5.0419   8.9701  -1.2670   C.2       1 RES1   0.0000
    33 C33      4.2570   9.6607  -0.3524   C.2       1 RES1   0.0000
    34 C34      4.4971  10.9451   0.0303   C.2       1 RES1   0.0000
    35 C35      5.5453  11.6739  -0.4737   C.2       1 RES1   0.0000
    36 B36      5.7470  13.1089  -0.0167   B         1 RES1   0.0000
    37 O37      4.9424  13.7450   0.8815   O.3       1 RES1   0.0000
    38 O38      6.7392  13.7710  -0.5925   O.3       1 RES1   0.0000
    39 C39      6.3721  11.0225  -1.4354   C.2       1 RES1   0.0000
    40 C40      6.1071   9.7089  -1.8004   C.2       1 RES1   0.0000
@<TRIPOS>BOND
     1     1     2    1
     2     2     3    1
     3     2     4    1
     4     4     5    1
     5     5     6    1
     6     6     7    1
     7     7     8    1
     8     7     9    1
     9     9    10    1
    10    10    11    1
    11    11    12    2
    12    12    13    1
    13    13    14    2
    14    14    15    1
    15    15    16    2
    16     9    17    1
    17    17    18   am
    18    18    19    2
    19    18    20    1
    20    21    20    1
    21    21    22    1
    22    22    23    1
    23    24    23    1
    24    24    25    1
    25    25    26    1
    26    26    27    1
    27    28    27    1
    28     5    29    1
    29    29    30    2
    30    29    31    2
    31    29    32    1
    32    32    33    2
    33    33    34    1
    34    34    35    2
    35    35    36    1
    36    36    37    1
    37    36    38    1
    38    35    39    1
    39    39    40    2
    40    16    11    1
    41    28    21    1
    42    40    32    1
    43    28    24    1
@<TRIPOS>SUBSTRUCTURE
     1 RES1        1 GROUP             0 ****  ****    0  
@<TRIPOS>MOLECULE
ligand_36
    40    43     1     0     0
SMALL
NO_CHARGES
****
Generated from the CSD

@<TRIPOS>ATOM
     1 C1       9.1990   3.4821   4.9700   C.3       1 RES1   0.0000
     2 C2       7.9256   4.1243   4.4478   C.3       1 RES1   0.0000
     3 C3       7.5824   3.5195   3.1083   C.3       1 RES1   0.0000
     4 C4       6.7743   3.9141   5.4181   C.2       1 RES1   0.0000
     5 N5       5.5009   4.5049   5.1298   N.pl3     1 RES1   0.0000
     6 C6       4.4437   3.5877   4.8799   C.2       1 RES1   0.0000
     7 C7       3.4932   3.9533   3.7476   C.3       1 RES1   0.0000
     8 O8       4.2306   4.0431   2.5464   O.3       1 RES1   0.0000
     9 C9       2.3236   2.9092   3.5829   C.3       1 RES1   0.0000
    10 C10      2.7964   1.5390   3.0374   C.3       1 RES1   0.0000
    11 C11      1.7035   0.5633   3.0196   C.2       1 RES1   0.0000
    12 C12      1.4855  -0.2463   4.1500   C.2       1 RES1   0.0000
    13 C13      0.4271  -1.1497   4.1852   C.2       1 RES1   0.0000
    14 C14     -0.4459  -1.2801   3.1019   C.2       1 RES1   0.0000
    15 C15     -0.2503  -0.4758   1.9709   C.2       1 RES1   0.0000
    16 C16      0.8150   0.4340   1.9385   C.2       1 RES1   0.0000
    17 N17      1.3777   3.4849   2.7279   N.am      1 RES1   0.0000
    18 C18      0.1556   3.9130   3.0816   C.2       1 RES1   0.0000
    19 O19     -0.3434   3.8758   4.2058   O.2       1 RES1   0.0000
    20 O20     -0.5723   4.4622   2.0350   O.3       1 RES1   0.0000
    21 C21     -1.8735   4.9795   2.2310   C.3       1 RES1   0.0000
    22 C22     -2.1266   5.8903   1.0341   C.3       1 RES1   0.0000
    23 O23     -2.6489   5.0094   0.0235   O.3       1 RES1   0.0000
    24 C24     -3.5109   4.0766   0.6818   C.3       1 RES1   0.0000
    25 O25     -3.4703   2.8252   0.0313   O.3       1 RES1   0.0000
    26 C26     -2.4014   2.1010   0.6152   C.3       1 RES1   0.0000
    27 C27     -2.4762   2.4369   2.0911   C.3       1 RES1   0.0000
    28 C28     -2.9455   3.8971   2.1014   C.3       1 RES1   0.0000
    29 S29      5.1926   6.0049   5.7603   S.o2      1 RES1   0.0000
    30 O30      3.9462   6.4507   5.2595   O.2       1 RES1   0.0000
    31 O31      6.3346   6.8061   5.5552   O.2       1 RES1   0.0000
    32 C32      5.0114   5.7855   7.4919   C.2       1 RES1   0.0000
    33 C33      3.7611   5.5175   8.0344   C.2       1 RES1   0.0000
    34 C34      3.5334   5.3676   9.3683   C.2       1 RES1   0.0000
    35 C35      4.5366   5.4812  10.2981   C.2       1 RES1   0.0000
    36 B36      4.2112   5.3191  11.7734   B         1 RES1   0.0000
    37 O37      2.9626   5.0619  12.2567   O.3       1 RES1   0.0000
    38 O38      5.2156   5.5051  12.6167   O.3       1 RES1   0.0000
    39 C39      5.8387   5.7791   9.7996   C.2       1 RES1   0.0000
    40 C40      6.0419   5.9188   8.4328   C.2       1 RES1   0.0000
@<TRIPOS>BOND
     1     1     2    1
     2     2     3    1
     3     2     4    1
     4     4     5    1
     5     5     6    1
     6     6     7    1
     7     7     8    1
     8     7     9    1
     9     9    10    1
    10    10    11    1
    11    11    12    2
    12    12    13    1
    13    13    14    2
    14    14    15    1
    15    15    16    2
    16     9    17    1
    17    17    18   am
    18    18    19    2
    19    18    20    1
    20    21    20    1
    21    21    22    1
    22    22    23    1
    23    24    23    1
    24    24    25    1
    25    25    26    1
    26    26    27    1
    27    28    27    1
    28     5    29    1
    29    29    30    2
    30    29    31    2
    31    29    32    1
    32    32    33    2
    33    33    34    1
    34    34    35    2
    35    35    36    1
    36    36    37    1
    37    36    38    1
    38    35    39    1
    39    39    40    2
    40    16    11    1
    41    28    21    1
    42    40    32    1
    43    28    24    1
@<TRIPOS>SUBSTRUCTURE
     1 RES1        1 GROUP             0 ****  ****    0  
@<TRIPOS>MOLECULE
ligand_37
    40    43     1     0     0
SMALL
NO_CHARGES
****
Generated from the CSD

@<TRIPOS>ATOM
     1 C1       4.3071   9.1983  -3.2632   C.3       1 RES1   0.0000
     2 C2       4.4382   7.8176  -2.6442   C.3       1 RES1   0.0000
     3 C3       5.3887   7.8906  -1.4741   C.3       1 RES1   0.0000
     4 C4       3.0864   7.3011  -2.1783   C.2       1 RES1   0.0000
     5 N5       2.9918   5.9751  -1.6431   N.pl3     1 RES1   0.0000
     6 C6       2.5859   5.8920  -0.2831   C.2       1 RES1   0.0000
     7 C7       3.5842   5.2581   0.6765   C.3       1 RES1   0.0000
     8 O8       4.7620   6.0375   0.6871   O.3       1 RES1   0.0000
     9 C9       3.0131   5.1283   2.1401   C.3       1 RES1   0.0000
    10 C10      3.8576   4.2009   3.0485   C.3       1 RES1   0.0000
    11 C11      5.1056   4.8476   3.4621   C.2       1 RES1   0.0000
    12 C12      6.2696   4.6500   2.6960   C.2       1 RES1   0.0000
    13 C13      7.4603   5.2874   3.0329   C.2       1 RES1   0.0000
    14 C14      7.5350   6.1376   4.1393   C.2       1 RES1   0.0000
    15 C15      6.3839   6.3540   4.9090   C.2       1 RES1   0.0000
    16 C16      5.1860   5.7125   4.5668   C.2       1 RES1   0.0000
    17 N17      1.7017   4.6542   2.0278   N.am      1 RES1   0.0000
    18 C18      0.5870   5.3558   2.2863   C.2       1 RES1   0.0000
    19 O19      0.5211   6.5255   2.6632   O.2       1 RES1   0.0000
    20 O20     -0.5864   4.6455   2.0732   O.3       1 RES1   0.0000
    21 C21     -1.8551   5.2348   2.2791   C.3       1 RES1   0.0000
    22 C22     -2.1394   6.0272   1.0073   C.3       1 RES1   0.0000
    23 O23     -2.7481   5.0697   0.1226   O.3       1 RES1   0.0000
    24 C24     -3.6067   4.2470   0.9180   C.3       1 RES1   0.0000
    25 O25     -3.6478   2.9347   0.4016   O.3       1 RES1   0.0000
    26 C26     -2.5760   2.2300   1.0038   C.3       1 RES1   0.0000
    27 C27     -2.5577   2.7192   2.4380   C.3       1 RES1   0.0000
    28 C28     -2.9717   4.1912   2.3183   C.3       1 RES1   0.0000
    29 S29      2.6698   4.7434  -2.7022   S.o2      1 RES1   0.0000
    30 O30      2.7362   3.5193  -1.9948   O.2       1 RES1   0.0000
    31 O31      3.4890   4.9195  -3.8363   O.2       1 RES1   0.0000
    32 C32      1.0068   4.9582  -3.2194   C.2       1 RES1   0.0000
    33 C33     -0.0270   4.3568  -2.5131   C.2       1 RES1   0.0000
    34 C34     -1.3379   4.4485  -2.8692   C.2       1 RES1   0.0000
    35 C35     -1.7467   5.1458  -3.9785   C.2       1 RES1   0.0000
    36 B36     -3.2243   5.1944  -4.3292   B         1 RES1   0.0000
    37 O37     -4.2022   4.5802  -3.6044   O.3       1 RES1   0.0000
    38 O38     -3.5383   5.8311  -5.4474   O.3       1 RES1   0.0000
    39 C39     -0.7246   5.7654  -4.7558   C.2       1 RES1   0.0000
    40 C40      0.6035   5.6610  -4.3632   C.2       1 RES1   0.0000
@<TRIPOS>BOND
     1     1     2    1
     2     2     3    1
     3     2     4    1
     4     4     5    1
     5     5     6    1
     6     6     7    1
     7     7     8    1
     8     7     9    1
     9     9    10    1
    10    10    11    1
    11    11    12    2
    12    12    13    1
    13    13    14    2
    14    14    15    1
    15    15    16    2
    16     9    17    1
    17    17    18   am
    18    18    19    2
    19    18    20    1
    20    21    20    1
    21    21    22    1
    22    22    23    1
    23    24    23    1
    24    24    25    1
    25    25    26    1
    26    26    27    1
    27    28    27    1
    28     5    29    1
    29    29    30    2
    30    29    31    2
    31    29    32    1
    32    32    33    2
    33    33    34    1
    34    34    35    2
    35    35    36    1
    36    36    37    1
    37    36    38    1
    38    35    39    1
    39    39    40    2
    40    16    11    1
    41    28    21    1
    42    40    32    1
    43    28    24    1
@<TRIPOS>SUBSTRUCTURE
     1 RES1        1 GROUP             0 ****  ****    0  
@<TRIPOS>MOLECULE
ligand_38
    40    43     1     0     0
SMALL
NO_CHARGES
****
Generated from the CSD

@<TRIPOS>ATOM
     1 C1       5.3505   7.8889   7.3014   C.3       1 RES1   0.0000
     2 C2       5.4068   6.9864   6.0812   C.3       1 RES1   0.0000
     3 C3       5.6085   5.5604   6.5321   C.3       1 RES1   0.0000
     4 C4       4.1269   7.0933   5.2676   C.2       1 RES1   0.0000
     5 N5       4.0245   6.3790   4.0294   N.pl3     1 RES1   0.0000
     6 C6       3.0141   5.3798   3.9817   C.2       1 RES1   0.0000
     7 C7       3.4932   3.9533   3.7476   C.3       1 RES1   0.0000
     8 O8       4.3381   3.5768   4.8149   O.3       1 RES1   0.0000
     9 C9       2.2999   2.9309   3.6211   C.3       1 RES1   0.0000
    10 C10      2.7293   1.5531   3.0590   C.3       1 RES1   0.0000
    11 C11      3.4557   0.7685   4.0608   C.2       1 RES1   0.0000
    12 C12      4.8602   0.8451   4.1086   C.2       1 RES1   0.0000
    13 C13      5.5785   0.1506   5.0777   C.2       1 RES1   0.0000
    14 C14      4.9283  -0.6421   6.0271   C.2       1 RES1   0.0000
    15 C15      3.5293  -0.7236   6.0012   C.2       1 RES1   0.0000
    16 C16      2.8084  -0.0221   5.0256   C.2       1 RES1   0.0000
    17 N17      1.3367   3.5249   2.7987   N.am      1 RES1   0.0000
    18 C18      0.1351   3.9746   3.1933   C.2       1 RES1   0.0000
    19 O19     -0.3268   3.9448   4.3335   O.2       1 RES1   0.0000
    20 O20     -0.6172   4.5385   2.1720   O.3       1 RES1   0.0000
    21 C21     -1.9015   5.0792   2.4118   C.3       1 RES1   0.0000
    22 C22     -2.1776   5.9962   1.2247   C.3       1 RES1   0.0000
    23 O23     -2.7494   5.1264   0.2314   O.3       1 RES1   0.0000
    24 C24     -3.6060   4.2086   0.9174   C.3       1 RES1   0.0000
    25 O25     -3.6101   2.9576   0.2650   O.3       1 RES1   0.0000
    26 C26     -2.5357   2.2132   0.8123   C.3       1 RES1   0.0000
    27 C27     -2.5550   2.5483   2.2901   C.3       1 RES1   0.0000
    28 C28     -2.9968   4.0169   2.3172   C.3       1 RES1   0.0000
    29 S29      4.5130   7.1592   2.6529   S.o2      1 RES1   0.0000
    30 O30      4.4411   6.2458   1.5741   O.2       1 RES1   0.0000
    31 O31      5.7417   7.7949   2.9258   O.2       1 RES1   0.0000
    32 C32      3.3282   8.4180   2.3512   C.2       1 RES1   0.0000
    33 C33      2.2120   8.1527   1.5682   C.2       1 RES1   0.0000
    34 C34      1.2666   9.0832   1.2616   C.2       1 RES1   0.0000
    35 C35      1.3489  10.3809   1.7012   C.2       1 RES1   0.0000
    36 B36      0.2679  11.3738   1.3085   B         1 RES1   0.0000
    37 O37     -0.8079  11.0641   0.5304   O.3       1 RES1   0.0000
    38 O38      0.4460  12.6218   1.7149   O.3       1 RES1   0.0000
    39 C39      2.4874  10.7166   2.4909   C.2       1 RES1   0.0000
    40 C40      3.4315   9.7440   2.7940   C.2       1 RES1   0.0000
@<TRIPOS>BOND
     1     1     2    1
     2     2     3    1
     3     2     4    1
     4     4     5    1
     5     5     6    1
     6     6     7    1
     7     7     8    1
     8     7     9    1
     9     9    10    1
    10    10    11    1
    11    11    12    2
    12    12    13    1
    13    13    14    2
    14    14    15    1
    15    15    16    2
    16     9    17    1
    17    17    18   am
    18    18    19    2
    19    18    20    1
    20    21    20    1
    21    21    22    1
    22    22    23    1
    23    24    23    1
    24    24    25    1
    25    25    26    1
    26    26    27    1
    27    28    27    1
    28     5    29    1
    29    29    30    2
    30    29    31    2
    31    29    32    1
    32    32    33    2
    33    33    34    1
    34    34    35    2
    35    35    36    1
    36    36    37    1
    37    36    38    1
    38    35    39    1
    39    39    40    2
    40    16    11    1
    41    28    21    1
    42    40    32    1
    43    28    24    1
@<TRIPOS>SUBSTRUCTURE
     1 RES1        1 GROUP             0 ****  ****    0  
@<TRIPOS>MOLECULE
ligand_39
    40    43     1     0     0
SMALL
NO_CHARGES
****
Generated from the CSD

@<TRIPOS>ATOM
     1 C1       3.6222   8.3983  -3.3640   C.3       1 RES1   0.0000
     2 C2       4.6818   8.1363  -2.3080   C.3       1 RES1   0.0000
     3 C3       4.6266   9.2325  -1.2722   C.3       1 RES1   0.0000
     4 C4       4.4627   6.7871  -1.6423   C.2       1 RES1   0.0000
     5 N5       5.4022   6.3317  -0.6606   N.pl3     1 RES1   0.0000
     6 C6       4.8639   6.0825   0.6315   C.2       1 RES1   0.0000
     7 C7       3.5842   5.2581   0.6765   C.3       1 RES1   0.0000
     8 O8       3.8436   3.9856   0.1215   O.3       1 RES1   0.0000
     9 C9       3.0209   5.1007   2.1405   C.3       1 RES1   0.0000
    10 C10      3.9129   4.2198   3.0498   C.3       1 RES1   0.0000
    11 C11      3.4207   4.2039   4.4298   C.2       1 RES1   0.0000
    12 C12      3.8879   5.1722   5.3381   C.2       1 RES1   0.0000
    13 C13      3.4054   5.2157   6.6430   C.2       1 RES1   0.0000
    14 C14      2.4478   4.3007   7.0885   C.2       1 RES1   0.0000
    15 C15      1.9638   3.3348   6.1958   C.2       1 RES1   0.0000
    16 C16      2.4498   3.2941   4.8821   C.2       1 RES1   0.0000
    17 N17      1.7361   4.5585   2.0291   N.am      1 RES1   0.0000
    18 C18      0.5863   5.2014   2.2870   C.2       1 RES1   0.0000
    19 O19      0.4595   6.3665   2.6623   O.2       1 RES1   0.0000
    20 O20     -0.5485   4.4305   2.0752   O.3       1 RES1   0.0000
    21 C21     -1.8462   4.9531   2.2806   C.3       1 RES1   0.0000
    22 C22     -2.1717   5.7279   1.0078   C.3       1 RES1   0.0000
    23 O23     -2.7298   4.7387   0.1246   O.3       1 RES1   0.0000
    24 C24     -3.5441   3.8735   0.9213   C.3       1 RES1   0.0000
    25 O25     -3.5167   2.5600   0.4067   O.3       1 RES1   0.0000
    26 C26     -2.4095   1.9130   1.0095   C.3       1 RES1   0.0000
    27 C27     -2.4164   2.4045   2.4431   C.3       1 RES1   0.0000
    28 C28     -2.9067   3.8527   2.3215   C.3       1 RES1   0.0000
    29 S29      6.7335   5.5073  -1.1995   S.o2      1 RES1   0.0000
    30 O30      7.5634   5.2267  -0.0879   O.2       1 RES1   0.0000
    31 O31      7.2740   6.2191  -2.2902   O.2       1 RES1   0.0000
    32 C32      6.1482   3.9718  -1.8152   C.2       1 RES1   0.0000
    33 C33      6.1561   2.8453  -1.0025   C.2       1 RES1   0.0000
    34 C34      5.7502   1.6133  -1.4160   C.2       1 RES1   0.0000
    35 C35      5.3033   1.3817  -2.6930   C.2       1 RES1   0.0000
    36 B36      4.8808  -0.0215  -3.0947   B         1 RES1   0.0000
    37 O37      4.9131  -1.0980  -2.2588   O.3       1 RES1   0.0000
    38 O38      4.5218  -0.1834  -4.3594   O.3       1 RES1   0.0000
    39 C39      5.2954   2.4984  -3.5792   C.2       1 RES1   0.0000
    40 C40      5.7079   3.7450  -3.1265   C.2       1 RES1   0.0000
@<TRIPOS>BOND
     1     1     2    1
     2     2     3    1
     3     2     4    1
     4     4     5    1
     5     5     6    1
     6     6     7    1
     7     7     8    1
     8     7     9    1
     9     9    10    1
    10    10    11    1
    11    11    12    2
    12    12    13    1
    13    13    14    2
    14    14    15    1
    15    15    16    2
    16     9    17    1
    17    17    18   am
    18    18    19    2
    19    18    20    1
    20    21    20    1
    21    21    22    1
    22    22    23    1
    23    24    23    1
    24    24    25    1
    25    25    26    1
    26    26    27    1
    27    28    27    1
    28     5    29    1
    29    29    30    2
    30    29    31    2
    31    29    32    1
    32    32    33    2
    33    33    34    1
    34    34    35    2
    35    35    36    1
    36    36    37    1
    37    36    38    1
    38    35    39    1
    39    39    40    2
    40    16    11    1
    41    28    21    1
    42    40    32    1
    43    28    24    1
@<TRIPOS>SUBSTRUCTURE
     1 RES1        1 GROUP             0 ****  ****    0  
@<TRIPOS>MOLECULE
ligand_40
    40    43     1     0     0
SMALL
NO_CHARGES
****
Generated from the CSD

@<TRIPOS>ATOM
     1 C1      11.0319  -5.3748   6.7057   C.3       1 RES1   0.0000
     2 C2      11.4295  -4.0284   6.1264   C.3       1 RES1   0.0000
     3 C3      11.2558  -4.0663   4.6277   C.3       1 RES1   0.0000
     4 C4      10.5815  -2.9124   6.7152   C.2       1 RES1   0.0000
     5 N5      10.8653  -1.5547   6.3546   N.pl3     1 RES1   0.0000
     6 C6       9.8276  -0.8775   5.6576   C.2       1 RES1   0.0000
     7 C7      10.1680  -0.3940   4.2541   C.3       1 RES1   0.0000
     8 O8      10.4820  -1.5131   3.4517   O.3       1 RES1   0.0000
     9 C9       8.9914   0.4243   3.5975   C.3       1 RES1   0.0000
    10 C10      9.2808   0.8507   2.1370   C.3       1 RES1   0.0000
    11 C11      8.1156   1.4961   1.5264   C.2       1 RES1   0.0000
    12 C12      7.1719   0.7073   0.8424   C.2       1 RES1   0.0000
    13 C13      6.0295   1.2812   0.2920   C.2       1 RES1   0.0000
    14 C14      5.7881   2.6533   0.4004   C.2       1 RES1   0.0000
    15 C15      6.7120   3.4538   1.0860   C.2       1 RES1   0.0000
    16 C16      7.8605   2.8734   1.6406   C.2       1 RES1   0.0000
    17 N17      8.7687   1.5432   4.4071   N.am      1 RES1   0.0000
    18 C18      7.8396   1.6442   5.3707   C.2       1 RES1   0.0000
    19 O19      6.8729   0.9031   5.5453   O.2       1 RES1   0.0000
    20 O20      8.0489   2.7023   6.2446   O.3       1 RES1   0.0000
    21 C21      7.1775   2.9477   7.3295   C.3       1 RES1   0.0000
    22 C22      7.7435   3.8547   8.4225   C.3       1 RES1   0.0000
    23 O23      6.5942   4.2403   9.1921   O.3       1 RES1   0.0000
    24 C24      5.5011   4.3872   8.3034   C.3       1 RES1   0.0000
    25 O25      5.2630   5.7510   8.0290   O.3       1 RES1   0.0000
    26 C26      6.0906   6.0919   6.9304   C.3       1 RES1   0.0000
    27 C27      6.0322   4.8897   6.0109   C.3       1 RES1   0.0000
    28 C28      5.8806   3.7052   6.9728   C.3       1 RES1   0.0000
    29 S29     11.9386  -0.7200   7.2999   S.o2      1 RES1   0.0000
    30 O30     12.1631   0.5455   6.7073   O.2       1 RES1   0.0000
    31 O31     13.0432  -1.5602   7.5499   O.2       1 RES1   0.0000
    32 C32     11.1342  -0.4429   8.8346   C.2       1 RES1   0.0000
    33 C33     10.3754   0.7046   9.0277   C.2       1 RES1   0.0000
    34 C34      9.7489   1.0072  10.1979   C.2       1 RES1   0.0000
    35 C35      9.8274   0.1934  11.3005   C.2       1 RES1   0.0000
    36 B36      9.1177   0.5986  12.5814   B         1 RES1   0.0000
    37 O37      8.3882   1.7418  12.7220   O.3       1 RES1   0.0000
    38 O38      9.2899  -0.2019  13.6226   O.3       1 RES1   0.0000
    39 C39     10.6133  -0.9886  11.1671   C.2       1 RES1   0.0000
    40 C40     11.2344  -1.2749   9.9583   C.2       1 RES1   0.0000
@<TRIPOS>BOND
     1     1     2    1
     2     2     3    1
     3     2     4    1
     4     4     5    1
     5     5     6    1
     6     6     7    1
     7     7     8    1
     8     7     9    1
     9     9    10    1
    10    10    11    1
    11    11    12    2
    12    12    13    1
    13    13    14    2
    14    14    15    1
    15    15    16    2
    16     9    17    1
    17    17    18   am
    18    18    19    2
    19    18    20    1
    20    21    20    1
    21    21    22    1
    22    22    23    1
    23    24    23    1
    24    24    25    1
    25    25    26    1
    26    26    27    1
    27    28    27    1
    28     5    29    1
    29    29    30    2
    30    29    31    2
    31    29    32    1
    32    32    33    2
    33    33    34    1
    34    34    35    2
    35    35    36    1
    36    36    37    1
    37    36    38    1
    38    35    39    1
    39    39    40    2
    40    16    11    1
    41    28    21    1
    42    40    32    1
    43    28    24    1
@<TRIPOS>SUBSTRUCTURE
     1 RES1        1 GROUP             0 ****  ****    0  
@<TRIPOS>MOLECULE
ligand_41
    40    43     1     0     0
SMALL
NO_CHARGES
****
Generated from the CSD

@<TRIPOS>ATOM
     1 C1      12.8313   6.4249   2.3189   C.3       1 RES1   0.0000
     2 C2      13.2016   5.8863   3.6898   C.3       1 RES1   0.0000
     3 C3      12.1645   6.3329   4.6911   C.3       1 RES1   0.0000
     4 C4      13.2813   4.3682   3.6731   C.2       1 RES1   0.0000
     5 N5      13.6826   3.6766   4.8624   N.pl3     1 RES1   0.0000
     6 C6      12.7311   2.7597   5.3871   C.2       1 RES1   0.0000
     7 C7      12.0899   1.8115   4.3826   C.3       1 RES1   0.0000
     8 O8      13.1062   1.0528   3.7611   O.3       1 RES1   0.0000
     9 C9      11.0348   0.8498   5.0513   C.3       1 RES1   0.0000
    10 C10     10.7016  -0.3915   4.1873   C.3       1 RES1   0.0000
    11 C11      9.8170  -1.3178   4.8988   C.2       1 RES1   0.0000
    12 C12     10.3803  -2.3349   5.6919   C.2       1 RES1   0.0000
    13 C13      9.5698  -3.2019   6.4191   C.2       1 RES1   0.0000
    14 C14      8.1775  -3.0895   6.3814   C.2       1 RES1   0.0000
    15 C15      7.5983  -2.0769   5.6045   C.2       1 RES1   0.0000
    16 C16      8.4165  -1.2043   4.8746   C.2       1 RES1   0.0000
    17 N17      9.8852   1.6088   5.2951   N.am      1 RES1   0.0000
    18 C18      9.1972   1.6462   6.4471   C.2       1 RES1   0.0000
    19 O19      9.4520   1.0276   7.4800   O.2       1 RES1   0.0000
    20 O20      8.1039   2.5010   6.4214   O.3       1 RES1   0.0000
    21 C21      7.2770   2.6771   7.5537   C.3       1 RES1   0.0000
    22 C22      7.8536   3.5827   8.6423   C.3       1 RES1   0.0000
    23 O23      6.7273   3.8933   9.4770   O.3       1 RES1   0.0000
    24 C24      5.5857   4.0096   8.6468   C.3       1 RES1   0.0000
    25 O25      5.2707   5.3668   8.4215   O.3       1 RES1   0.0000
    26 C26      6.0257   5.7744   7.2938   C.3       1 RES1   0.0000
    27 C27      5.9779   4.5941   6.3457   C.3       1 RES1   0.0000
    28 C28      5.9299   3.3800   7.2812   C.3       1 RES1   0.0000
    29 S29     15.3048   3.4488   5.1051   S.o2      1 RES1   0.0000
    30 O30     15.4851   2.8487   6.3741   O.2       1 RES1   0.0000
    31 O31     15.9612   4.6656   4.8280   O.2       1 RES1   0.0000
    32 C32     15.8266   2.2862   3.8987   C.2       1 RES1   0.0000
    33 C33     16.1927   2.7146   2.6290   C.2       1 RES1   0.0000
    34 C34     16.5764   1.8731   1.6299   C.2       1 RES1   0.0000
    35 C35     16.6228   0.5117   1.7987   C.2       1 RES1   0.0000
    36 B36     17.0440  -0.3723   0.6368   B         1 RES1   0.0000
    37 O37     17.3890   0.0983  -0.5954   O.3       1 RES1   0.0000
    38 O38     17.0038  -1.6785   0.8526   O.3       1 RES1   0.0000
    39 C39     16.2347   0.0130   3.0767   C.2       1 RES1   0.0000
    40 C40     15.8554   0.8964   4.0790   C.2       1 RES1   0.0000
@<TRIPOS>BOND
     1     1     2    1
     2     2     3    1
     3     2     4    1
     4     4     5    1
     5     5     6    1
     6     6     7    1
     7     7     8    1
     8     7     9    1
     9     9    10    1
    10    10    11    1
    11    11    12    2
    12    12    13    1
    13    13    14    2
    14    14    15    1
    15    15    16    2
    16     9    17    1
    17    17    18   am
    18    18    19    2
    19    18    20    1
    20    21    20    1
    21    21    22    1
    22    22    23    1
    23    24    23    1
    24    24    25    1
    25    25    26    1
    26    26    27    1
    27    28    27    1
    28     5    29    1
    29    29    30    2
    30    29    31    2
    31    29    32    1
    32    32    33    2
    33    33    34    1
    34    34    35    2
    35    35    36    1
    36    36    37    1
    37    36    38    1
    38    35    39    1
    39    39    40    2
    40    16    11    1
    41    28    21    1
    42    40    32    1
    43    28    24    1
@<TRIPOS>SUBSTRUCTURE
     1 RES1        1 GROUP             0 ****  ****    0  
@<TRIPOS>MOLECULE
ligand_42
    40    43     1     0     0
SMALL
NO_CHARGES
****
Generated from the CSD

@<TRIPOS>ATOM
     1 C1       4.9711   8.1112   6.3387   C.3       1 RES1   0.0000
     2 C2       5.3844   6.6574   6.4873   C.3       1 RES1   0.0000
     3 C3       4.6140   6.0404   7.6290   C.3       1 RES1   0.0000
     4 C4       5.1158   5.8832   5.2067   C.2       1 RES1   0.0000
     5 N5       5.5009   4.5049   5.1298   N.pl3     1 RES1   0.0000
     6 C6       4.4437   3.5877   4.8799   C.2       1 RES1   0.0000
     7 C7       3.4932   3.9533   3.7476   C.3       1 RES1   0.0000
     8 O8       4.2271   4.0236   2.5430   O.3       1 RES1   0.0000
     9 C9       2.3114   2.9209   3.5969   C.3       1 RES1   0.0000
    10 C10      2.7715   1.5307   3.0925   C.3       1 RES1   0.0000
    11 C11      1.6656   0.5695   3.0878   C.2       1 RES1   0.0000
    12 C12      1.4244  -0.2073   4.2362   C.2       1 RES1   0.0000
    13 C13      0.3535  -1.0953   4.2830   C.2       1 RES1   0.0000
    14 C14     -0.5093  -1.2424   3.1938   C.2       1 RES1   0.0000
    15 C15     -0.2905  -0.4705   2.0445   C.2       1 RES1   0.0000
    16 C16      0.7873   0.4239   2.0005   C.2       1 RES1   0.0000
    17 N17      1.3827   3.4866   2.7167   N.am      1 RES1   0.0000
    18 C18      0.1628   3.9400   3.0454   C.2       1 RES1   0.0000
    19 O19     -0.3489   3.9388   4.1646   O.2       1 RES1   0.0000
    20 O20     -0.5461   4.4713   1.9768   O.3       1 RES1   0.0000
    21 C21     -1.8422   5.0109   2.1447   C.3       1 RES1   0.0000
    22 C22     -2.0698   5.8935   0.9219   C.3       1 RES1   0.0000
    23 O23     -2.5930   4.9936  -0.0714   O.3       1 RES1   0.0000
    24 C24     -3.4749   4.0900   0.6012   C.3       1 RES1   0.0000
    25 O25     -3.4444   2.8216  -0.0161   O.3       1 RES1   0.0000
    26 C26     -2.3919   2.0986   0.5983   C.3       1 RES1   0.0000
    27 C27     -2.4780   2.4739   2.0641   C.3       1 RES1   0.0000
    28 C28     -2.9274   3.9400   2.0312   C.3       1 RES1   0.0000
    29 S29      7.0490   4.1684   4.6476   S.o2      1 RES1   0.0000
    30 O30      7.2439   2.7685   4.7217   O.2       1 RES1   0.0000
    31 O31      7.9210   5.0158   5.3616   O.2       1 RES1   0.0000
    32 C32      7.1489   4.6207   2.9551   C.2       1 RES1   0.0000
    33 C33      6.9565   3.6657   1.9649   C.2       1 RES1   0.0000
    34 C34      7.0501   3.9303   0.6327   C.2       1 RES1   0.0000
    35 C35      7.3570   5.1802   0.1557   C.2       1 RES1   0.0000
    36 B36      7.4624   5.4038  -1.3435   B         1 RES1   0.0000
    37 O37      7.2697   4.4289  -2.2769   O.3       1 RES1   0.0000
    38 O38      7.8244   6.6184  -1.7286   O.3       1 RES1   0.0000
    39 C39      7.5880   6.1962   1.1289   C.2       1 RES1   0.0000
    40 C40      7.4777   5.8982   2.4809   C.2       1 RES1   0.0000
@<TRIPOS>BOND
     1     1     2    1
     2     2     3    1
     3     2     4    1
     4     4     5    1
     5     5     6    1
     6     6     7    1
     7     7     8    1
     8     7     9    1
     9     9    10    1
    10    10    11    1
    11    11    12    2
    12    12    13    1
    13    13    14    2
    14    14    15    1
    15    15    16    2
    16     9    17    1
    17    17    18   am
    18    18    19    2
    19    18    20    1
    20    21    20    1
    21    21    22    1
    22    22    23    1
    23    24    23    1
    24    24    25    1
    25    25    26    1
    26    26    27    1
    27    28    27    1
    28     5    29    1
    29    29    30    2
    30    29    31    2
    31    29    32    1
    32    32    33    2
    33    33    34    1
    34    34    35    2
    35    35    36    1
    36    36    37    1
    37    36    38    1
    38    35    39    1
    39    39    40    2
    40    16    11    1
    41    28    21    1
    42    40    32    1
    43    28    24    1
@<TRIPOS>SUBSTRUCTURE
     1 RES1        1 GROUP             0 ****  ****    0  
@<TRIPOS>MOLECULE
ligand_43
    40    43     1     0     0
SMALL
NO_CHARGES
****
Generated from the CSD

@<TRIPOS>ATOM
     1 C1      16.2910   5.6793   6.3959   C.3       1 RES1   0.0000
     2 C2      15.1222   5.3060   5.5008   C.3       1 RES1   0.0000
     3 C3      15.5050   4.1098   4.6640   C.3       1 RES1   0.0000
     4 C4      13.8875   4.9827   6.3270   C.2       1 RES1   0.0000
     5 N5      12.6695   4.6353   5.6565   N.pl3     1 RES1   0.0000
     6 C6      12.1405   3.3545   5.9742   C.2       1 RES1   0.0000
     7 C7      12.1299   2.3347   4.8433   C.3       1 RES1   0.0000
     8 O8      13.4372   1.8267   4.6772   O.3       1 RES1   0.0000
     9 C9      11.1237   1.1508   5.1098   C.3       1 RES1   0.0000
    10 C10     11.1863   0.0382   4.0342   C.3       1 RES1   0.0000
    11 C11     10.3268  -1.0954   4.3852   C.2       1 RES1   0.0000
    12 C12     10.8582  -2.1508   5.1497   C.2       1 RES1   0.0000
    13 C13     10.0573  -3.2197   5.5414   C.2       1 RES1   0.0000
    14 C14      8.7070  -3.2770   5.1862   C.2       1 RES1   0.0000
    15 C15      8.1576  -2.2306   4.4327   C.2       1 RES1   0.0000
    16 C16      8.9656  -1.1548   4.0411   C.2       1 RES1   0.0000
    17 N17      9.8423   1.7085   5.1740   N.am      1 RES1   0.0000
    18 C18      9.0676   1.7751   6.2682   C.2       1 RES1   0.0000
    19 O19      9.2427   1.1858   7.3342   O.2       1 RES1   0.0000
    20 O20      7.9786   2.6255   6.1349   O.3       1 RES1   0.0000
    21 C21      7.0454   2.8004   7.1816   C.3       1 RES1   0.0000
    22 C22      7.5052   3.7213   8.3121   C.3       1 RES1   0.0000
    23 O23      6.3008   4.0247   9.0327   O.3       1 RES1   0.0000
    24 C24      5.2425   4.1208   8.0963   C.3       1 RES1   0.0000
    25 O25      4.9351   5.4723   7.8300   O.3       1 RES1   0.0000
    26 C26      5.7898   5.8802   6.7759   C.3       1 RES1   0.0000
    27 C27      5.8461   4.6921   5.8381   C.3       1 RES1   0.0000
    28 C28      5.7227   3.4848   6.7755   C.3       1 RES1   0.0000
    29 S29     11.6741   5.8729   5.1875   S.o2      1 RES1   0.0000
    30 O30     10.5355   5.3145   4.5590   O.2       1 RES1   0.0000
    31 O31     12.4515   6.8116   4.4783   O.2       1 RES1   0.0000
    32 C32     11.1273   6.6530   6.6611   C.2       1 RES1   0.0000
    33 C33      9.9638   6.2245   7.2873   C.2       1 RES1   0.0000
    34 C34      9.4570   6.7986   8.4130   C.2       1 RES1   0.0000
    35 C35     10.0609   7.8702   9.0221   C.2       1 RES1   0.0000
    36 B36      9.4334   8.4744  10.2671   B         1 RES1   0.0000
    37 O37      8.2850   8.0176  10.8426   O.3       1 RES1   0.0000
    38 O38     10.0334   9.5468  10.7615   O.3       1 RES1   0.0000
    39 C39     11.2478   8.3679   8.4088   C.2       1 RES1   0.0000
    40 C40     11.7453   7.7567   7.2652   C.2       1 RES1   0.0000
@<TRIPOS>BOND
     1     1     2    1
     2     2     3    1
     3     2     4    1
     4     4     5    1
     5     5     6    1
     6     6     7    1
     7     7     8    1
     8     7     9    1
     9     9    10    1
    10    10    11    1
    11    11    12    2
    12    12    13    1
    13    13    14    2
    14    14    15    1
    15    15    16    2
    16     9    17    1
    17    17    18   am
    18    18    19    2
    19    18    20    1
    20    21    20    1
    21    21    22    1
    22    22    23    1
    23    24    23    1
    24    24    25    1
    25    25    26    1
    26    26    27    1
    27    28    27    1
    28     5    29    1
    29    29    30    2
    30    29    31    2
    31    29    32    1
    32    32    33    2
    33    33    34    1
    34    34    35    2
    35    35    36    1
    36    36    37    1
    37    36    38    1
    38    35    39    1
    39    39    40    2
    40    16    11    1
    41    28    21    1
    42    40    32    1
    43    28    24    1
@<TRIPOS>SUBSTRUCTURE
     1 RES1        1 GROUP             0 ****  ****    0  
@<TRIPOS>MOLECULE
ligand_44
    40    43     1     0     0
SMALL
NO_CHARGES
****
Generated from the CSD

@<TRIPOS>ATOM
     1 C1       4.4730   6.4366  -3.9708   C.3       1 RES1   0.0000
     2 C2       5.0924   5.8357  -2.7210   C.3       1 RES1   0.0000
     3 C3       5.1514   6.8914  -1.6441   C.3       1 RES1   0.0000
     4 C4       4.2822   4.6458  -2.2320   C.2       1 RES1   0.0000
     5 N5       4.7372   3.9141  -1.0869   N.pl3     1 RES1   0.0000
     6 C6       3.8522   3.9076   0.0258   C.2       1 RES1   0.0000
     7 C7       3.5842   5.2581   0.6765   C.3       1 RES1   0.0000
     8 O8       2.6182   5.9477  -0.0891   O.3       1 RES1   0.0000
     9 C9       3.0896   5.1205   2.1670   C.3       1 RES1   0.0000
    10 C10      4.0521   4.2986   3.0596   C.3       1 RES1   0.0000
    11 C11      3.6341   4.3242   4.4637   C.2       1 RES1   0.0000
    12 C12      4.1221   5.3387   5.3084   C.2       1 RES1   0.0000
    13 C13      3.7082   5.4210   6.6348   C.2       1 RES1   0.0000
    14 C14      2.8008   4.5003   7.1654   C.2       1 RES1   0.0000
    15 C15      2.2968   3.4883   6.3370   C.2       1 RES1   0.0000
    16 C16      2.7136   3.4087   5.0016   C.2       1 RES1   0.0000
    17 N17      1.8228   4.5285   2.1255   N.am      1 RES1   0.0000
    18 C18      0.6613   5.1354   2.4161   C.2       1 RES1   0.0000
    19 O19      0.5063   6.3050   2.7660   O.2       1 RES1   0.0000
    20 O20     -0.4513   4.3176   2.2736   O.3       1 RES1   0.0000
    21 C21     -1.7580   4.7974   2.5213   C.3       1 RES1   0.0000
    22 C22     -2.1662   5.5242   1.2441   C.3       1 RES1   0.0000
    23 O23     -2.7231   4.4911   0.4118   O.3       1 RES1   0.0000
    24 C24     -3.4696   3.6187   1.2653   C.3       1 RES1   0.0000
    25 O25     -3.4140   2.2935   0.7843   O.3       1 RES1   0.0000
    26 C26     -2.2585   1.7047   1.3553   C.3       1 RES1   0.0000
    27 C27     -2.2236   2.2349   2.7746   C.3       1 RES1   0.0000
    28 C28     -2.7733   3.6602   2.6367   C.3       1 RES1   0.0000
    29 S29      5.7827   2.6566  -1.3478   S.o2      1 RES1   0.0000
    30 O30      6.2009   2.1573  -0.0912   O.2       1 RES1   0.0000
    31 O31      6.7599   3.0871  -2.2687   O.2       1 RES1   0.0000
    32 C32      4.8496   1.3917  -2.1281   C.2       1 RES1   0.0000
    33 C33      4.1980   0.4324  -1.3634   C.2       1 RES1   0.0000
    34 C34      3.4830  -0.5977  -1.8938   C.2       1 RES1   0.0000
    35 C35      3.3562  -0.7779  -3.2485   C.2       1 RES1   0.0000
    36 B36      2.5576  -1.9587  -3.7747   B         1 RES1   0.0000
    37 O37      1.9403  -2.8785  -2.9800   O.3       1 RES1   0.0000
    38 O38      2.5316  -2.1059  -5.0908   O.3       1 RES1   0.0000
    39 C39      4.0245   0.1648  -4.0835   C.2       1 RES1   0.0000
    40 C40      4.7400   1.2099  -3.5137   C.2       1 RES1   0.0000
@<TRIPOS>BOND
     1     1     2    1
     2     2     3    1
     3     2     4    1
     4     4     5    1
     5     5     6    1
     6     6     7    1
     7     7     8    1
     8     7     9    1
     9     9    10    1
    10    10    11    1
    11    11    12    2
    12    12    13    1
    13    13    14    2
    14    14    15    1
    15    15    16    2
    16     9    17    1
    17    17    18   am
    18    18    19    2
    19    18    20    1
    20    21    20    1
    21    21    22    1
    22    22    23    1
    23    24    23    1
    24    24    25    1
    25    25    26    1
    26    26    27    1
    27    28    27    1
    28     5    29    1
    29    29    30    2
    30    29    31    2
    31    29    32    1
    32    32    33    2
    33    33    34    1
    34    34    35    2
    35    35    36    1
    36    36    37    1
    37    36    38    1
    38    35    39    1
    39    39    40    2
    40    16    11    1
    41    28    21    1
    42    40    32    1
    43    28    24    1
@<TRIPOS>SUBSTRUCTURE
     1 RES1        1 GROUP             0 ****  ****    0  
@<TRIPOS>MOLECULE
ligand_45
    40    43     1     0     0
SMALL
NO_CHARGES
****
Generated from the CSD

@<TRIPOS>ATOM
     1 C1       6.3776   5.7963  -3.2591   C.3       1 RES1   0.0000
     2 C2       5.0376   5.2721  -2.7731   C.3       1 RES1   0.0000
     3 C3       5.2735   4.1289  -1.8164   C.3       1 RES1   0.0000
     4 C4       4.2448   6.3687  -2.0800   C.2       1 RES1   0.0000
     5 N5       2.9292   6.0775  -1.5918   N.pl3     1 RES1   0.0000
     6 C6       2.7572   6.2023  -0.1860   C.2       1 RES1   0.0000
     7 C7       3.5842   5.2581   0.6765   C.3       1 RES1   0.0000
     8 O8       4.8870   5.7872   0.8087   O.3       1 RES1   0.0000
     9 C9       2.9490   5.0329   2.1016   C.3       1 RES1   0.0000
    10 C10      3.8153   4.1420   3.0259   C.3       1 RES1   0.0000
    11 C11      3.2517   4.0631   4.3760   C.2       1 RES1   0.0000
    12 C12      3.6439   5.0088   5.3417   C.2       1 RES1   0.0000
    13 C13      3.0923   4.9922   6.6196   C.2       1 RES1   0.0000
    14 C14      2.1377   4.0377   6.9805   C.2       1 RES1   0.0000
    15 C15      1.7277   3.0933   6.0295   C.2       1 RES1   0.0000
    16 C16      2.2832   3.1132   4.7432   C.2       1 RES1   0.0000
    17 N17      1.6869   4.4631   1.9024   N.am      1 RES1   0.0000
    18 C18      0.5082   5.0666   2.1219   C.2       1 RES1   0.0000
    19 O19      0.3303   6.2132   2.5318   O.2       1 RES1   0.0000
    20 O20     -0.5926   4.2758   1.8220   O.3       1 RES1   0.0000
    21 C21     -1.9129   4.7574   1.9768   C.3       1 RES1   0.0000
    22 C22     -2.1924   5.5710   0.7175   C.3       1 RES1   0.0000
    23 O23     -2.6764   4.6020  -0.2296   O.3       1 RES1   0.0000
    24 C24     -3.5075   3.6871   0.4908   C.3       1 RES1   0.0000
    25 O25     -3.4175   2.3950  -0.0690   O.3       1 RES1   0.0000
    26 C26     -2.3261   1.7540   0.5682   C.3       1 RES1   0.0000
    27 C27     -2.4214   2.1908   2.0162   C.3       1 RES1   0.0000
    28 C28     -2.9439   3.6298   1.9213   C.3       1 RES1   0.0000
    29 S29      1.6587   6.3143  -2.6272   S.o2      1 RES1   0.0000
    30 O30      1.8619   7.5380  -3.3087   O.2       1 RES1   0.0000
    31 O31      0.4647   6.1301  -1.9000   O.2       1 RES1   0.0000
    32 C32      1.7478   5.0308  -3.8206   C.2       1 RES1   0.0000
    33 C33      2.4311   5.2328  -5.0130   C.2       1 RES1   0.0000
    34 C34      2.5174   4.2999  -6.0008   C.2       1 RES1   0.0000
    35 C35      1.9174   3.0696  -5.8986   C.2       1 RES1   0.0000
    36 B36      2.0386   2.0804  -7.0455   B         1 RES1   0.0000
    37 O37      2.7177   2.3298  -8.2011   O.3       1 RES1   0.0000
    38 O38      1.3813   0.9392  -6.9041   O.3       1 RES1   0.0000
    39 C39      1.1816   2.8153  -4.7042   C.2       1 RES1   0.0000
    40 C40      1.1179   3.7834  -3.7104   C.2       1 RES1   0.0000
@<TRIPOS>BOND
     1     1     2    1
     2     2     3    1
     3     2     4    1
     4     4     5    1
     5     5     6    1
     6     6     7    1
     7     7     8    1
     8     7     9    1
     9     9    10    1
    10    10    11    1
    11    11    12    2
    12    12    13    1
    13    13    14    2
    14    14    15    1
    15    15    16    2
    16     9    17    1
    17    17    18   am
    18    18    19    2
    19    18    20    1
    20    21    20    1
    21    21    22    1
    22    22    23    1
    23    24    23    1
    24    24    25    1
    25    25    26    1
    26    26    27    1
    27    28    27    1
    28     5    29    1
    29    29    30    2
    30    29    31    2
    31    29    32    1
    32    32    33    2
    33    33    34    1
    34    34    35    2
    35    35    36    1
    36    36    37    1
    37    36    38    1
    38    35    39    1
    39    39    40    2
    40    16    11    1
    41    28    21    1
    42    40    32    1
    43    28    24    1
@<TRIPOS>SUBSTRUCTURE
     1 RES1        1 GROUP             0 ****  ****    0  
@<TRIPOS>MOLECULE
ligand_46
    40    43     1     0     0
SMALL
NO_CHARGES
****
Generated from the CSD

@<TRIPOS>ATOM
     1 C1       6.3588   7.7985   4.6306   C.3       1 RES1   0.0000
     2 C2       6.3659   6.3049   4.3555   C.3       1 RES1   0.0000
     3 C3       5.6790   5.5910   5.4940   C.3       1 RES1   0.0000
     4 C4       5.6569   5.9906   3.0478   C.2       1 RES1   0.0000
     5 N5       5.6020   4.6332   2.5916   N.pl3     1 RES1   0.0000
     6 C6       4.2970   4.0844   2.4608   C.2       1 RES1   0.0000
     7 C7       3.4932   3.9533   3.7476   C.3       1 RES1   0.0000
     8 O8       2.9338   5.2109   4.0641   O.3       1 RES1   0.0000
     9 C9       2.3525   2.8708   3.6372   C.3       1 RES1   0.0000
    10 C10      2.8697   1.4760   3.2064   C.3       1 RES1   0.0000
    11 C11      1.8069   0.4691   3.2639   C.2       1 RES1   0.0000
    12 C12      1.6066  -0.2526   4.4555   C.2       1 RES1   0.0000
    13 C13      0.5757  -1.1820   4.5602   C.2       1 RES1   0.0000
    14 C14     -0.2863  -1.4264   3.4879   C.2       1 RES1   0.0000
    15 C15     -0.1083  -0.7108   2.2961   C.2       1 RES1   0.0000
    16 C16      0.9292   0.2256   2.1938   C.2       1 RES1   0.0000
    17 N17      1.4132   3.3571   2.7216   N.am      1 RES1   0.0000
    18 C18      0.1736   3.7796   3.0162   C.2       1 RES1   0.0000
    19 O19     -0.3501   3.8139   4.1293   O.2       1 RES1   0.0000
    20 O20     -0.5428   4.2307   1.9161   O.3       1 RES1   0.0000
    21 C21     -1.8599   4.7284   2.0451   C.3       1 RES1   0.0000
    22 C22     -2.1067   5.5407   0.7782   C.3       1 RES1   0.0000
    23 O23     -2.5849   4.5741  -0.1743   O.3       1 RES1   0.0000
    24 C24     -3.4397   3.6717   0.5339   C.3       1 RES1   0.0000
    25 O25     -3.3549   2.3767  -0.0198   O.3       1 RES1   0.0000
    26 C26     -2.2830   1.7251   0.6393   C.3       1 RES1   0.0000
    27 C27     -2.3995   2.1681   2.0839   C.3       1 RES1   0.0000
    28 C28     -2.9030   3.6128   1.9746   C.3       1 RES1   0.0000
    29 S29      6.8494   4.0922   1.6463   S.o2      1 RES1   0.0000
    30 O30      6.6643   2.7084   1.4142   O.2       1 RES1   0.0000
    31 O31      8.0573   4.5293   2.2280   O.2       1 RES1   0.0000
    32 C32      6.6879   4.9073   0.1008   C.2       1 RES1   0.0000
    33 C33      5.9317   4.3352  -0.9143   C.2       1 RES1   0.0000
    34 C34      5.7853   4.8881  -2.1498   C.2       1 RES1   0.0000
    35 C35      6.3920   6.0690  -2.4985   C.2       1 RES1   0.0000
    36 B36      6.2009   6.6228  -3.9004   B         1 RES1   0.0000
    37 O37      5.4511   6.0181  -4.8653   O.3       1 RES1   0.0000
    38 O38      6.8670   7.7315  -4.1859   O.3       1 RES1   0.0000
    39 C39      7.2007   6.6900  -1.5020   C.2       1 RES1   0.0000
    40 C40      7.3249   6.1063  -0.2479   C.2       1 RES1   0.0000
@<TRIPOS>BOND
     1     1     2    1
     2     2     3    1
     3     2     4    1
     4     4     5    1
     5     5     6    1
     6     6     7    1
     7     7     8    1
     8     7     9    1
     9     9    10    1
    10    10    11    1
    11    11    12    2
    12    12    13    1
    13    13    14    2
    14    14    15    1
    15    15    16    2
    16     9    17    1
    17    17    18   am
    18    18    19    2
    19    18    20    1
    20    21    20    1
    21    21    22    1
    22    22    23    1
    23    24    23    1
    24    24    25    1
    25    25    26    1
    26    26    27    1
    27    28    27    1
    28     5    29    1
    29    29    30    2
    30    29    31    2
    31    29    32    1
    32    32    33    2
    33    33    34    1
    34    34    35    2
    35    35    36    1
    36    36    37    1
    37    36    38    1
    38    35    39    1
    39    39    40    2
    40    16    11    1
    41    28    21    1
    42    40    32    1
    43    28    24    1
@<TRIPOS>SUBSTRUCTURE
     1 RES1        1 GROUP             0 ****  ****    0  
@<TRIPOS>MOLECULE
ligand_47
    40    43     1     0     0
SMALL
NO_CHARGES
****
Generated from the CSD

@<TRIPOS>ATOM
     1 C1       7.7289   6.1654   4.6116   C.3       1 RES1   0.0000
     2 C2       6.4504   6.2479   3.7960   C.3       1 RES1   0.0000
     3 C3       6.3813   5.0606   2.8670   C.3       1 RES1   0.0000
     4 C4       5.2292   6.2652   4.7015   C.2       1 RES1   0.0000
     5 N5       3.9269   6.3868   4.1157   N.pl3     1 RES1   0.0000
     6 C6       3.0526   5.2874   4.3353   C.2       1 RES1   0.0000
     7 C7       3.4932   3.9533   3.7476   C.3       1 RES1   0.0000
     8 O8       4.4291   3.3585   4.6223   O.3       1 RES1   0.0000
     9 C9       2.2828   2.9719   3.5083   C.3       1 RES1   0.0000
    10 C10      2.7159   1.5787   2.9887   C.3       1 RES1   0.0000
    11 C11      1.5765   0.6617   2.9009   C.2       1 RES1   0.0000
    12 C12      1.2474  -0.1352   4.0134   C.2       1 RES1   0.0000
    13 C13      0.1430  -0.9817   3.9809   C.2       1 RES1   0.0000
    14 C14     -0.6675  -1.0664   2.8458   C.2       1 RES1   0.0000
    15 C15     -0.3610  -0.2737   1.7313   C.2       1 RES1   0.0000
    16 C16      0.7504   0.5790   1.7671   C.2       1 RES1   0.0000
    17 N17      1.4226   3.5963   2.5988   N.am      1 RES1   0.0000
    18 C18      0.2048   4.0871   2.8780   C.2       1 RES1   0.0000
    19 O19     -0.3640   4.0752   3.9691   O.2       1 RES1   0.0000
    20 O20     -0.4277   4.6737   1.7905   O.3       1 RES1   0.0000
    21 C21     -1.7100   5.2578   1.9077   C.3       1 RES1   0.0000
    22 C22     -1.8411   6.1811   0.7009   C.3       1 RES1   0.0000
    23 O23     -2.3448   5.3290  -0.3433   O.3       1 RES1   0.0000
    24 C24     -3.2931   4.4418   0.2571   C.3       1 RES1   0.0000
    25 O25     -3.2772   3.1903  -0.3943   O.3       1 RES1   0.0000
    26 C26     -2.2853   2.4114   0.2518   C.3       1 RES1   0.0000
    27 C27     -2.4336   2.7500   1.7215   C.3       1 RES1   0.0000
    28 C28     -2.8265   4.2325   1.7082   C.3       1 RES1   0.0000
    29 S29      3.3297   7.9145   3.8879   S.o2      1 RES1   0.0000
    30 O30      3.6163   8.6813   5.0425   O.2       1 RES1   0.0000
    31 O31      1.9903   7.7991   3.4626   O.2       1 RES1   0.0000
    32 C32      4.2425   8.6090   2.5598   C.2       1 RES1   0.0000
    33 C33      5.3809   9.3631   2.8144   C.2       1 RES1   0.0000
    34 C34      6.1230   9.9615   1.8424   C.2       1 RES1   0.0000
    35 C35      5.7932   9.8733   0.5129   C.2       1 RES1   0.0000
    36 B36      6.6552  10.5793  -0.5201   B         1 RES1   0.0000
    37 O37      7.7627  11.3145  -0.2174   O.3       1 RES1   0.0000
    38 O38      6.2409  10.5041  -1.7760   O.3       1 RES1   0.0000
    39 C39      4.6193   9.1298   0.1941   C.2       1 RES1   0.0000
    40 C40      3.8867   8.5240   1.2066   C.2       1 RES1   0.0000
@<TRIPOS>BOND
     1     1     2    1
     2     2     3    1
     3     2     4    1
     4     4     5    1
     5     5     6    1
     6     6     7    1
     7     7     8    1
     8     7     9    1
     9     9    10    1
    10    10    11    1
    11    11    12    2
    12    12    13    1
    13    13    14    2
    14    14    15    1
    15    15    16    2
    16     9    17    1
    17    17    18   am
    18    18    19    2
    19    18    20    1
    20    21    20    1
    21    21    22    1
    22    22    23    1
    23    24    23    1
    24    24    25    1
    25    25    26    1
    26    26    27    1
    27    28    27    1
    28     5    29    1
    29    29    30    2
    30    29    31    2
    31    29    32    1
    32    32    33    2
    33    33    34    1
    34    34    35    2
    35    35    36    1
    36    36    37    1
    37    36    38    1
    38    35    39    1
    39    39    40    2
    40    16    11    1
    41    28    21    1
    42    40    32    1
    43    28    24    1
@<TRIPOS>SUBSTRUCTURE
     1 RES1        1 GROUP             0 ****  ****    0  
@<TRIPOS>MOLECULE
ligand_48
    40    43     1     0     0
SMALL
NO_CHARGES
****
Generated from the CSD

@<TRIPOS>ATOM
     1 C1      14.8836  -0.1949   5.3695   C.3       1 RES1   0.0000
     2 C2      13.6110  -0.6238   6.0788   C.3       1 RES1   0.0000
     3 C3      13.1181   0.5150   6.9378   C.3       1 RES1   0.0000
     4 C4      12.5369  -1.0156   5.0768   C.2       1 RES1   0.0000
     5 N5      11.2812  -1.5122   5.5570   N.pl3     1 RES1   0.0000
     6 C6      10.1395  -0.7525   5.1822   C.2       1 RES1   0.0000
     7 C7      10.0524  -0.3534   3.7151   C.3       1 RES1   0.0000
     8 O8      10.0690  -1.5234   2.9242   O.3       1 RES1   0.0000
     9 C9       8.7600   0.4914   3.3969   C.3       1 RES1   0.0000
    10 C10      8.7850   1.1463   1.9936   C.3       1 RES1   0.0000
    11 C11      7.5163   1.8141   1.6913   C.2       1 RES1   0.0000
    12 C12      6.4910   1.0885   1.0567   C.2       1 RES1   0.0000
    13 C13      5.2568   1.6779   0.7981   C.2       1 RES1   0.0000
    14 C14      5.0014   3.0037   1.1580   C.2       1 RES1   0.0000
    15 C15      6.0072   3.7396   1.7992   C.2       1 RES1   0.0000
    16 C16      7.2482   3.1435   2.0599   C.2       1 RES1   0.0000
    17 N17      8.6491   1.4633   4.3970   N.am      1 RES1   0.0000
    18 C18      7.7173   1.4952   5.3626   C.2       1 RES1   0.0000
    19 O19      6.8068   0.6860   5.5376   O.2       1 RES1   0.0000
    20 O20      7.8516   2.5637   6.2384   O.3       1 RES1   0.0000
    21 C21      6.9672   2.7435   7.3258   C.3       1 RES1   0.0000
    22 C22      7.4690   3.6865   8.4197   C.3       1 RES1   0.0000
    23 O23      6.2967   3.9867   9.1926   O.3       1 RES1   0.0000
    24 C24      5.1939   4.0564   8.3065   C.3       1 RES1   0.0000
    25 O25      4.8576   5.4001   8.0358   O.3       1 RES1   0.0000
    26 C26      5.6560   5.8021   6.9363   C.3       1 RES1   0.0000
    27 C27      5.6822   4.6008   6.0141   C.3       1 RES1   0.0000
    28 C28      5.6184   3.4064   6.9736   C.3       1 RES1   0.0000
    29 S29     11.1616  -3.1383   5.8468   S.o2      1 RES1   0.0000
    30 O30      9.8922  -3.3965   6.4172   O.2       1 RES1   0.0000
    31 O31     12.3172  -3.5417   6.5469   O.2       1 RES1   0.0000
    32 C32     11.1990  -3.9241   4.2783   C.2       1 RES1   0.0000
    33 C33     10.0133  -4.2342   3.6245   C.2       1 RES1   0.0000
    34 C34      9.9582  -4.8720   2.4229   C.2       1 RES1   0.0000
    35 C35     11.0889  -5.2742   1.7567   C.2       1 RES1   0.0000
    36 B36     10.9564  -5.9966   0.4266   B         1 RES1   0.0000
    37 O37      9.7654  -6.2834  -0.1719   O.3       1 RES1   0.0000
    38 O38     12.0857  -6.4115  -0.1275   O.3       1 RES1   0.0000
    39 C39     12.3356  -5.0024   2.3927   C.2       1 RES1   0.0000
    40 C40     12.3606  -4.3432   3.6149   C.2       1 RES1   0.0000
@<TRIPOS>BOND
     1     1     2    1
     2     2     3    1
     3     2     4    1
     4     4     5    1
     5     5     6    1
     6     6     7    1
     7     7     8    1
     8     7     9    1
     9     9    10    1
    10    10    11    1
    11    11    12    2
    12    12    13    1
    13    13    14    2
    14    14    15    1
    15    15    16    2
    16     9    17    1
    17    17    18   am
    18    18    19    2
    19    18    20    1
    20    21    20    1
    21    21    22    1
    22    22    23    1
    23    24    23    1
    24    24    25    1
    25    25    26    1
    26    26    27    1
    27    28    27    1
    28     5    29    1
    29    29    30    2
    30    29    31    2
    31    29    32    1
    32    32    33    2
    33    33    34    1
    34    34    35    2
    35    35    36    1
    36    36    37    1
    37    36    38    1
    38    35    39    1
    39    39    40    2
    40    16    11    1
    41    28    21    1
    42    40    32    1
    43    28    24    1
@<TRIPOS>SUBSTRUCTURE
     1 RES1        1 GROUP             0 ****  ****    0  
@<TRIPOS>MOLECULE
ligand_49
    40    43     1     0     0
SMALL
NO_CHARGES
****
Generated from the CSD

@<TRIPOS>ATOM
     1 C1      12.1034  -5.1657   4.5414   C.3       1 RES1   0.0000
     2 C2      12.1425  -3.7736   3.9355   C.3       1 RES1   0.0000
     3 C3      11.1161  -3.6875   2.8324   C.3       1 RES1   0.0000
     4 C4      11.8568  -2.7151   4.9887   C.2       1 RES1   0.0000
     5 N5      11.9528  -1.3305   4.6316   N.pl3     1 RES1   0.0000
     6 C6      10.7315  -0.6036   4.6673   C.2       1 RES1   0.0000
     7 C7      10.2884   0.0269   3.3538   C.3       1 RES1   0.0000
     8 O8      10.4126  -0.9323   2.3246   O.3       1 RES1   0.0000
     9 C9       8.8068   0.5623   3.4128   C.3       1 RES1   0.0000
    10 C10      8.3082   1.1380   2.0643   C.3       1 RES1   0.0000
    11 C11      6.8916   1.5065   2.1300   C.2       1 RES1   0.0000
    12 C12      5.9156   0.5499   1.7935   C.2       1 RES1   0.0000
    13 C13      4.5601   0.8512   1.8909   C.2       1 RES1   0.0000
    14 C14      4.1303   2.1089   2.3222   C.2       1 RES1   0.0000
    15 C15      5.0875   3.0717   2.6704   C.2       1 RES1   0.0000
    16 C16      6.4514   2.7653   2.5732   C.2       1 RES1   0.0000
    17 N17      8.7627   1.5365   4.4158   N.am      1 RES1   0.0000
    18 C18      7.8456   1.6186   5.3925   C.2       1 RES1   0.0000
    19 O19      6.8930   0.8615   5.5769   O.2       1 RES1   0.0000
    20 O20      8.0503   2.6758   6.2685   O.3       1 RES1   0.0000
    21 C21      7.1903   2.9025   7.3666   C.3       1 RES1   0.0000
    22 C22      7.7572   3.8131   8.4560   C.3       1 RES1   0.0000
    23 O23      6.6129   4.1771   9.2433   O.3       1 RES1   0.0000
    24 C24      5.5054   4.3110   8.3706   C.3       1 RES1   0.0000
    25 O25      5.2423   5.6721   8.1061   O.3       1 RES1   0.0000
    26 C26      6.0491   6.0311   6.9979   C.3       1 RES1   0.0000
    27 C27      5.9967   4.8324   6.0734   C.3       1 RES1   0.0000
    28 C28      5.8769   3.6412   7.0315   C.3       1 RES1   0.0000
    29 S29     13.4010  -0.5711   4.8934   S.o2      1 RES1   0.0000
    30 O30     13.8915  -0.9721   6.1590   O.2       1 RES1   0.0000
    31 O31     13.2239   0.8040   4.6365   O.2       1 RES1   0.0000
    32 C32     14.5101  -1.1910   3.6831   C.2       1 RES1   0.0000
    33 C33     14.6041  -0.5749   2.4417   C.2       1 RES1   0.0000
    34 C34     15.4147  -1.0145   1.4402   C.2       1 RES1   0.0000
    35 C35     16.2087  -2.1258   1.5774   C.2       1 RES1   0.0000
    36 B36     17.0779  -2.5725   0.4139   B         1 RES1   0.0000
    37 O37     17.1300  -1.9347  -0.7900   O.3       1 RES1   0.0000
    38 O38     17.7682  -3.6882   0.5956   O.3       1 RES1   0.0000
    39 C39     16.1356  -2.8129   2.8244   C.2       1 RES1   0.0000
    40 C40     15.3051  -2.3361   3.8304   C.2       1 RES1   0.0000
@<TRIPOS>BOND
     1     1     2    1
     2     2     3    1
     3     2     4    1
     4     4     5    1
     5     5     6    1
     6     6     7    1
     7     7     8    1
     8     7     9    1
     9     9    10    1
    10    10    11    1
    11    11    12    2
    12    12    13    1
    13    13    14    2
    14    14    15    1
    15    15    16    2
    16     9    17    1
    17    17    18   am
    18    18    19    2
    19    18    20    1
    20    21    20    1
    21    21    22    1
    22    22    23    1
    23    24    23    1
    24    24    25    1
    25    25    26    1
    26    26    27    1
    27    28    27    1
    28     5    29    1
    29    29    30    2
    30    29    31    2
    31    29    32    1
    32    32    33    2
    33    33    34    1
    34    34    35    2
    35    35    36    1
    36    36    37    1
    37    36    38    1
    38    35    39    1
    39    39    40    2
    40    16    11    1
    41    28    21    1
    42    40    32    1
    43    28    24    1
@<TRIPOS>SUBSTRUCTURE
     1 RES1        1 GROUP             0 ****  ****    0  
@<TRIPOS>MOLECULE
ligand_50
    40    43     1     0     0
SMALL
NO_CHARGES
****
Generated from the CSD

@<TRIPOS>ATOM
     1 C1       0.8469  -1.6013   6.3769   C.3       1 RES1   0.0000
     2 C2       1.8086  -0.6212   5.7280   C.3       1 RES1   0.0000
     3 C3       2.0993  -1.0762   4.3187   C.3       1 RES1   0.0000
     4 C4       1.2217   0.7811   5.7058   C.2       1 RES1   0.0000
     5 N5       2.0176   1.8638   5.2076   N.pl3     1 RES1   0.0000
     6 C6       1.5142   2.5079   4.0444   C.2       1 RES1   0.0000
     7 C7       2.4012   2.4473   2.8080   C.3       1 RES1   0.0000
     8 O8       2.5533   1.0967   2.4237   O.3       1 RES1   0.0000
     9 C9       1.8176   3.2848   1.6068   C.3       1 RES1   0.0000
    10 C10      2.6631   3.1751   0.3139   C.3       1 RES1   0.0000
    11 C11      2.0192   3.8638  -0.8076   C.2       1 RES1   0.0000
    12 C12      1.1276   3.1519  -1.6317   C.2       1 RES1   0.0000
    13 C13      0.4621   3.7871  -2.6762   C.2       1 RES1   0.0000
    14 C14      0.6608   5.1454  -2.9377   C.2       1 RES1   0.0000
    15 C15      1.5380   5.8731  -2.1220   C.2       1 RES1   0.0000
    16 C16      2.2055   5.2318  -1.0700   C.2       1 RES1   0.0000
    17 N17      1.7354   4.6140   2.0356   N.am      1 RES1   0.0000
    18 C18      0.6041   5.2869   2.2982   C.2       1 RES1   0.0000
    19 O19      0.5095   6.4558   2.6712   O.2       1 RES1   0.0000
    20 O20     -0.5514   4.5451   2.0944   O.3       1 RES1   0.0000
    21 C21     -1.8340   5.1016   2.3056   C.3       1 RES1   0.0000
    22 C22     -2.1464   5.8815   1.0327   C.3       1 RES1   0.0000
    23 O23     -2.7347   4.9050   0.1550   O.3       1 RES1   0.0000
    24 C24     -3.5667   4.0630   0.9583   C.3       1 RES1   0.0000
    25 O25     -3.5761   2.7481   0.4468   O.3       1 RES1   0.0000
    26 C26     -2.4827   2.0741   1.0452   C.3       1 RES1   0.0000
    27 C27     -2.4690   2.5689   2.4776   C.3       1 RES1   0.0000
    28 C28     -2.9224   4.0290   2.3551   C.3       1 RES1   0.0000
    29 S29      2.9570   2.6869   6.2950   S.o2      1 RES1   0.0000
    30 O30      3.7418   3.6260   5.5840   O.2       1 RES1   0.0000
    31 O31      3.6049   1.7400   7.1147   O.2       1 RES1   0.0000
    32 C32      1.8536   3.5938   7.3145   C.2       1 RES1   0.0000
    33 C33      1.4780   4.8837   6.9618   C.2       1 RES1   0.0000
    34 C34      0.6538   5.6626   7.7154   C.2       1 RES1   0.0000
    35 C35      0.1286   5.2306   8.9077   C.2       1 RES1   0.0000
    36 B36     -0.7715   6.1569   9.7080   B         1 RES1   0.0000
    37 O37     -1.1062   7.4203   9.3201   O.3       1 RES1   0.0000
    38 O38     -1.1896   5.6974  10.8779   O.3       1 RES1   0.0000
    39 C39      0.4993   3.9208   9.3316   C.2       1 RES1   0.0000
    40 C40      1.3356   3.1465   8.5379   C.2       1 RES1   0.0000
@<TRIPOS>BOND
     1     1     2    1
     2     2     3    1
     3     2     4    1
     4     4     5    1
     5     5     6    1
     6     6     7    1
     7     7     8    1
     8     7     9    1
     9     9    10    1
    10    10    11    1
    11    11    12    2
    12    12    13    1
    13    13    14    2
    14    14    15    1
    15    15    16    2
    16     9    17    1
    17    17    18   am
    18    18    19    2
    19    18    20    1
    20    21    20    1
    21    21    22    1
    22    22    23    1
    23    24    23    1
    24    24    25    1
    25    25    26    1
    26    26    27    1
    27    28    27    1
    28     5    29    1
    29    29    30    2
    30    29    31    2
    31    29    32    1
    32    32    33    2
    33    33    34    1
    34    34    35    2
    35    35    36    1
    36    36    37    1
    37    36    38    1
    38    35    39    1
    39    39    40    2
    40    16    11    1
    41    28    21    1
    42    40    32    1
    43    28    24    1
@<TRIPOS>SUBSTRUCTURE
     1 RES1        1 GROUP             0 ****  ****    0  
@<TRIPOS>MOLECULE
ligand_51
    40    43     1     0     0
SMALL
NO_CHARGES
****
Generated from the CSD

@<TRIPOS>ATOM
     1 C1      14.5211   2.2297   5.3628   C.3       1 RES1   0.0000
     2 C2      13.7347   1.0064   5.8008   C.3       1 RES1   0.0000
     3 C3      12.8370   1.3845   6.9535   C.3       1 RES1   0.0000
     4 C4      12.8988   0.4596   4.6546   C.2       1 RES1   0.0000
     5 N5      12.1344  -0.7359   4.8558   N.pl3     1 RES1   0.0000
     6 C6      10.7315  -0.6036   4.6673   C.2       1 RES1   0.0000
     7 C7      10.2884   0.0269   3.3538   C.3       1 RES1   0.0000
     8 O8      10.3417  -0.9534   2.3385   O.3       1 RES1   0.0000
     9 C9       8.8363   0.6348   3.4376   C.3       1 RES1   0.0000
    10 C10      8.3329   1.2096   2.0905   C.3       1 RES1   0.0000
    11 C11      6.9377   1.6477   2.1827   C.2       1 RES1   0.0000
    12 C12      5.9088   0.7338   1.8880   C.2       1 RES1   0.0000
    13 C13      4.5722   1.1025   2.0118   C.2       1 RES1   0.0000
    14 C14      4.2143   2.3872   2.4288   C.2       1 RES1   0.0000
    15 C15      5.2251   3.3083   2.7356   C.2       1 RES1   0.0000
    16 C16      6.5698   2.9343   2.6119   C.2       1 RES1   0.0000
    17 N17      8.8639   1.6279   4.4225   N.am      1 RES1   0.0000
    18 C18      7.9761   1.7721   5.4189   C.2       1 RES1   0.0000
    19 O19      6.9931   1.0658   5.6404   O.2       1 RES1   0.0000
    20 O20      8.2531   2.8338   6.2692   O.3       1 RES1   0.0000
    21 C21      7.4324   3.1219   7.3829   C.3       1 RES1   0.0000
    22 C22      8.0693   4.0234   8.4409   C.3       1 RES1   0.0000
    23 O23      6.9636   4.4568   9.2480   O.3       1 RES1   0.0000
    24 C24      5.8427   4.6287   8.3993   C.3       1 RES1   0.0000
    25 O25      5.6390   5.9960   8.1150   O.3       1 RES1   0.0000
    26 C26      6.4347   6.2952   6.9813   C.3       1 RES1   0.0000
    27 C27      6.3017   5.0840   6.0815   C.3       1 RES1   0.0000
    28 C28      6.1483   3.9175   7.0650   C.3       1 RES1   0.0000
    29 S29     12.8941  -2.1836   4.5918   S.o2      1 RES1   0.0000
    30 O30     11.9874  -3.2251   4.9023   O.2       1 RES1   0.0000
    31 O31     14.1405  -2.1473   5.2502   O.2       1 RES1   0.0000
    32 C32     13.2147  -2.2666   2.8686   C.2       1 RES1   0.0000
    33 C33     14.3715  -1.7027   2.3459   C.2       1 RES1   0.0000
    34 C34     14.6754  -1.6968   1.0188   C.2       1 RES1   0.0000
    35 C35     13.8437  -2.2480   0.0763   C.2       1 RES1   0.0000
    36 B36     14.2350  -2.1927  -1.3909   B         1 RES1   0.0000
    37 O37     15.3823  -1.6206  -1.8546   O.3       1 RES1   0.0000
    38 O38     13.3551  -2.6868  -2.2488   O.3       1 RES1   0.0000
    39 C39     12.6289  -2.8215   0.5537   C.2       1 RES1   0.0000
    40 C40     12.3497  -2.8197   1.9142   C.2       1 RES1   0.0000
@<TRIPOS>BOND
     1     1     2    1
     2     2     3    1
     3     2     4    1
     4     4     5    1
     5     5     6    1
     6     6     7    1
     7     7     8    1
     8     7     9    1
     9     9    10    1
    10    10    11    1
    11    11    12    2
    12    12    13    1
    13    13    14    2
    14    14    15    1
    15    15    16    2
    16     9    17    1
    17    17    18   am
    18    18    19    2
    19    18    20    1
    20    21    20    1
    21    21    22    1
    22    22    23    1
    23    24    23    1
    24    24    25    1
    25    25    26    1
    26    26    27    1
    27    28    27    1
    28     5    29    1
    29    29    30    2
    30    29    31    2
    31    29    32    1
    32    32    33    2
    33    33    34    1
    34    34    35    2
    35    35    36    1
    36    36    37    1
    37    36    38    1
    38    35    39    1
    39    39    40    2
    40    16    11    1
    41    28    21    1
    42    40    32    1
    43    28    24    1
@<TRIPOS>SUBSTRUCTURE
     1 RES1        1 GROUP             0 ****  ****    0  
@<TRIPOS>MOLECULE
ligand_52
    40    43     1     0     0
SMALL
NO_CHARGES
****
Generated from the CSD

@<TRIPOS>ATOM
     1 C1      -0.3994  -1.2199  -2.9660   C.3       1 RES1   0.0000
     2 C2       0.5539  -0.8874  -1.8314   C.3       1 RES1   0.0000
     3 C3       1.5939   0.0854  -2.3310   C.3       1 RES1   0.0000
     4 C4      -0.1938  -0.2827  -0.6539   C.2       1 RES1   0.0000
     5 N5       0.5248   0.0216   0.5481   N.pl3     1 RES1   0.0000
     6 C6       0.5641   1.3971   0.9055   C.2       1 RES1   0.0000
     7 C7       1.9454   2.0360   0.9598   C.3       1 RES1   0.0000
     8 O8       2.5048   2.0197  -0.3370   O.3       1 RES1   0.0000
     9 C9       1.9041   3.5134   1.5082   C.3       1 RES1   0.0000
    10 C10      3.2817   4.2201   1.4724   C.3       1 RES1   0.0000
    11 C11      3.1733   5.6260   1.8707   C.2       1 RES1   0.0000
    12 C12      2.9294   6.6028   0.8874   C.2       1 RES1   0.0000
    13 C13      2.7732   7.9411   1.2368   C.2       1 RES1   0.0000
    14 C14      2.8558   8.3528   2.5695   C.2       1 RES1   0.0000
    15 C15      3.0890   7.3930   3.5640   C.2       1 RES1   0.0000
    16 C16      3.2443   6.0461   3.2099   C.2       1 RES1   0.0000
    17 N17      1.4112   3.4514   2.8160   N.am      1 RES1   0.0000
    18 C18      0.2452   3.9623   3.2419   C.2       1 RES1   0.0000
    19 O19     -0.2129   3.9068   4.3827   O.2       1 RES1   0.0000
    20 O20     -0.4705   4.6275   2.2559   O.3       1 RES1   0.0000
    21 C21     -1.6687   5.3179   2.5507   C.3       1 RES1   0.0000
    22 C22     -1.8755   6.2772   1.3832   C.3       1 RES1   0.0000
    23 O23     -2.5871   5.4969   0.4060   O.3       1 RES1   0.0000
    24 C24     -3.5229   4.6817   1.1177   C.3       1 RES1   0.0000
    25 O25     -3.7053   3.4492   0.4554   O.3       1 RES1   0.0000
    26 C26     -2.7102   2.5720   0.9536   C.3       1 RES1   0.0000
    27 C27     -2.6317   2.8876   2.4338   C.3       1 RES1   0.0000
    28 C28     -2.8889   4.3986   2.4906   C.3       1 RES1   0.0000
    29 S29      0.6157  -1.1595   1.7054   S.o2      1 RES1   0.0000
    30 O30      1.4589  -0.7000   2.7451   O.2       1 RES1   0.0000
    31 O31      0.9279  -2.3752   1.0627   O.2       1 RES1   0.0000
    32 C32     -0.9984  -1.3209   2.3747   C.2       1 RES1   0.0000
    33 C33     -1.3803  -0.5544   3.4684   C.2       1 RES1   0.0000
    34 C34     -2.6009  -0.6452   4.0645   C.2       1 RES1   0.0000
    35 C35     -3.5625  -1.5233   3.6306   C.2       1 RES1   0.0000
    36 B36     -4.8985  -1.5861   4.3517   B         1 RES1   0.0000
    37 O37     -5.2231  -0.8142   5.4276   O.3       1 RES1   0.0000
    38 O38     -5.7533  -2.5006   3.9186   O.3       1 RES1   0.0000
    39 C39     -3.2169  -2.3532   2.5241   C.2       1 RES1   0.0000
    40 C40     -1.9667  -2.2325   1.9314   C.2       1 RES1   0.0000
@<TRIPOS>BOND
     1     1     2    1
     2     2     3    1
     3     2     4    1
     4     4     5    1
     5     5     6    1
     6     6     7    1
     7     7     8    1
     8     7     9    1
     9     9    10    1
    10    10    11    1
    11    11    12    2
    12    12    13    1
    13    13    14    2
    14    14    15    1
    15    15    16    2
    16     9    17    1
    17    17    18   am
    18    18    19    2
    19    18    20    1
    20    21    20    1
    21    21    22    1
    22    22    23    1
    23    24    23    1
    24    24    25    1
    25    25    26    1
    26    26    27    1
    27    28    27    1
    28     5    29    1
    29    29    30    2
    30    29    31    2
    31    29    32    1
    32    32    33    2
    33    33    34    1
    34    34    35    2
    35    35    36    1
    36    36    37    1
    37    36    38    1
    38    35    39    1
    39    39    40    2
    40    16    11    1
    41    28    21    1
    42    40    32    1
    43    28    24    1
@<TRIPOS>SUBSTRUCTURE
     1 RES1        1 GROUP             0 ****  ****    0  
@<TRIPOS>MOLECULE
ligand_53
    40    43     1     0     0
SMALL
NO_CHARGES
****
Generated from the CSD

@<TRIPOS>ATOM
     1 C1       8.3928   4.3954  -2.0921   C.3       1 RES1   0.0000
     2 C2       6.9194   4.7250  -1.9279   C.3       1 RES1   0.0000
     3 C3       6.1795   3.4785  -1.5079   C.3       1 RES1   0.0000
     4 C4       6.7200   5.8171  -0.8891   C.2       1 RES1   0.0000
     5 N5       5.4022   6.3317  -0.6606   N.pl3     1 RES1   0.0000
     6 C6       4.8639   6.0825   0.6315   C.2       1 RES1   0.0000
     7 C7       3.5842   5.2581   0.6765   C.3       1 RES1   0.0000
     8 O8       3.8526   3.9735   0.1546   O.3       1 RES1   0.0000
     9 C9       2.9995   5.1337   2.1352   C.3       1 RES1   0.0000
    10 C10      3.8623   4.2492   3.0689   C.3       1 RES1   0.0000
    11 C11      3.3526   4.2636   4.4425   C.2       1 RES1   0.0000
    12 C12      3.8273   5.2360   5.3423   C.2       1 RES1   0.0000
    13 C13      3.3294   5.3085   6.6402   C.2       1 RES1   0.0000
    14 C14      2.3483   4.4193   7.0867   C.2       1 RES1   0.0000
    15 C15      1.8566   3.4497   6.2021   C.2       1 RES1   0.0000
    16 C16      2.3582   3.3799   4.8956   C.2       1 RES1   0.0000
    17 N17      1.7057   4.6152   2.0153   N.am      1 RES1   0.0000
    18 C18      0.5657   5.2843   2.2489   C.2       1 RES1   0.0000
    19 O19      0.4572   6.4571   2.6053   O.2       1 RES1   0.0000
    20 O20     -0.5814   4.5326   2.0337   O.3       1 RES1   0.0000
    21 C21     -1.8709   5.0836   2.2146   C.3       1 RES1   0.0000
    22 C22     -2.1650   5.8454   0.9265   C.3       1 RES1   0.0000
    23 O23     -2.7313   4.8542   0.0508   O.3       1 RES1   0.0000
    24 C24     -3.5726   4.0171   0.8496   C.3       1 RES1   0.0000
    25 O25     -3.5647   2.6958   0.3547   O.3       1 RES1   0.0000
    26 C26     -2.4782   2.0364   0.9813   C.3       1 RES1   0.0000
    27 C27     -2.4935   2.5493   2.4073   C.3       1 RES1   0.0000
    28 C28     -2.9535   4.0049   2.2581   C.3       1 RES1   0.0000
    29 S29      4.9378   7.6611  -1.5321   S.o2      1 RES1   0.0000
    30 O30      6.0178   8.5755  -1.5585   O.2       1 RES1   0.0000
    31 O31      3.6914   8.0939  -1.0346   O.2       1 RES1   0.0000
    32 C32      4.6811   7.1084  -3.1776   C.2       1 RES1   0.0000
    33 C33      5.7214   7.1474  -4.0973   C.2       1 RES1   0.0000
    34 C34      5.5931   6.7681  -5.3986   C.2       1 RES1   0.0000
    35 C35      4.4032   6.3193  -5.9150   C.2       1 RES1   0.0000
    36 B36      4.3242   5.9275  -7.3809   B         1 RES1   0.0000
    37 O37      5.3759   5.9899  -8.2463   O.3       1 RES1   0.0000
    38 O38      3.1301   5.5651  -7.8248   O.3       1 RES1   0.0000
    39 C39      3.2933   6.2801  -5.0210   C.2       1 RES1   0.0000
    40 C40      3.4565   6.6659  -3.6968   C.2       1 RES1   0.0000
@<TRIPOS>BOND
     1     1     2    1
     2     2     3    1
     3     2     4    1
     4     4     5    1
     5     5     6    1
     6     6     7    1
     7     7     8    1
     8     7     9    1
     9     9    10    1
    10    10    11    1
    11    11    12    2
    12    12    13    1
    13    13    14    2
    14    14    15    1
    15    15    16    2
    16     9    17    1
    17    17    18   am
    18    18    19    2
    19    18    20    1
    20    21    20    1
    21    21    22    1
    22    22    23    1
    23    24    23    1
    24    24    25    1
    25    25    26    1
    26    26    27    1
    27    28    27    1
    28     5    29    1
    29    29    30    2
    30    29    31    2
    31    29    32    1
    32    32    33    2
    33    33    34    1
    34    34    35    2
    35    35    36    1
    36    36    37    1
    37    36    38    1
    38    35    39    1
    39    39    40    2
    40    16    11    1
    41    28    21    1
    42    40    32    1
    43    28    24    1
@<TRIPOS>SUBSTRUCTURE
     1 RES1        1 GROUP             0 ****  ****    0  
@<TRIPOS>MOLECULE
ligand_54
    40    43     1     0     0
SMALL
NO_CHARGES
****
Generated from the CSD

@<TRIPOS>ATOM
     1 C1      16.6460   4.7308   5.8957   C.3       1 RES1   0.0000
     2 C2      15.6422   4.1344   4.9243   C.3       1 RES1   0.0000
     3 C3      15.8140   2.6353   4.8971   C.3       1 RES1   0.0000
     4 C4      14.2196   4.4826   5.3321   C.2       1 RES1   0.0000
     5 N5      13.1329   4.0800   4.4890   N.pl3     1 RES1   0.0000
     6 C6      12.2142   3.1643   5.0709   C.2       1 RES1   0.0000
     7 C7      12.0899   1.8115   4.3826   C.3       1 RES1   0.0000
     8 O8      13.3428   1.1611   4.4292   O.3       1 RES1   0.0000
     9 C9      10.9866   0.8993   5.0428   C.3       1 RES1   0.0000
    10 C10     10.6066  -0.3278   4.1778   C.3       1 RES1   0.0000
    11 C11     11.6514  -1.3543   4.2157   C.2       1 RES1   0.0000
    12 C12     12.6542  -1.3521   3.2282   C.2       1 RES1   0.0000
    13 C13     13.6884  -2.2832   3.2618   C.2       1 RES1   0.0000
    14 C14     13.7597  -3.2455   4.2725   C.2       1 RES1   0.0000
    15 C15     12.7751  -3.2577   5.2699   C.2       1 RES1   0.0000
    16 C16     11.7360  -2.3183   5.2348   C.2       1 RES1   0.0000
    17 N17      9.8697   1.7094   5.2741   N.am      1 RES1   0.0000
    18 C18      9.1731   1.7799   6.4194   C.2       1 RES1   0.0000
    19 O19      9.3901   1.1529   7.4558   O.2       1 RES1   0.0000
    20 O20      8.1193   2.6827   6.3816   O.3       1 RES1   0.0000
    21 C21      7.2903   2.8980   7.5055   C.3       1 RES1   0.0000
    22 C22      7.8963   3.7793   8.5980   C.3       1 RES1   0.0000
    23 O23      6.7771   4.1417   9.4212   O.3       1 RES1   0.0000
    24 C24      5.6498   4.3070   8.5798   C.3       1 RES1   0.0000
    25 O25      5.3978   5.6764   8.3491   O.3       1 RES1   0.0000
    26 C26      6.1810   6.0475   7.2280   C.3       1 RES1   0.0000
    27 C27      6.0897   4.8684   6.2816   C.3       1 RES1   0.0000
    28 C28      5.9786   3.6597   7.2187   C.3       1 RES1   0.0000
    29 S29     12.6472   5.1363   3.3096   S.o2      1 RES1   0.0000
    30 O30     11.6542   4.5020   2.5254   O.2       1 RES1   0.0000
    31 O31     13.8010   5.6371   2.6721   O.2       1 RES1   0.0000
    32 C32     11.8803   6.4811   4.1357   C.2       1 RES1   0.0000
    33 C33     10.5162   6.4536   4.3966   C.2       1 RES1   0.0000
    34 C34      9.8429   7.4701   5.0024   C.2       1 RES1   0.0000
    35 C35     10.4679   8.6256   5.4004   C.2       1 RES1   0.0000
    36 B36      9.6541   9.7287   6.0559   B         1 RES1   0.0000
    37 O37      8.3121   9.6551   6.2849   O.3       1 RES1   0.0000
    38 O38     10.3108  10.8393   6.3552   O.3       1 RES1   0.0000
    39 C39     11.8658   8.7190   5.1364   C.2       1 RES1   0.0000
    40 C40     12.5273   7.6625   4.5240   C.2       1 RES1   0.0000
@<TRIPOS>BOND
     1     1     2    1
     2     2     3    1
     3     2     4    1
     4     4     5    1
     5     5     6    1
     6     6     7    1
     7     7     8    1
     8     7     9    1
     9     9    10    1
    10    10    11    1
    11    11    12    2
    12    12    13    1
    13    13    14    2
    14    14    15    1
    15    15    16    2
    16     9    17    1
    17    17    18   am
    18    18    19    2
    19    18    20    1
    20    21    20    1
    21    21    22    1
    22    22    23    1
    23    24    23    1
    24    24    25    1
    25    25    26    1
    26    26    27    1
    27    28    27    1
    28     5    29    1
    29    29    30    2
    30    29    31    2
    31    29    32    1
    32    32    33    2
    33    33    34    1
    34    34    35    2
    35    35    36    1
    36    36    37    1
    37    36    38    1
    38    35    39    1
    39    39    40    2
    40    16    11    1
    41    28    21    1
    42    40    32    1
    43    28    24    1
@<TRIPOS>SUBSTRUCTURE
     1 RES1        1 GROUP             0 ****  ****    0  
@<TRIPOS>MOLECULE
ligand_55
    40    43     1     0     0
SMALL
NO_CHARGES
****
Generated from the CSD

@<TRIPOS>ATOM
     1 C1       2.7857   9.8602  -2.9010   C.3       1 RES1   0.0000
     2 C2       3.5130   8.6878  -2.2661   C.3       1 RES1   0.0000
     3 C3       4.0673   9.1172  -0.9297   C.3       1 RES1   0.0000
     4 C4       2.5764   7.5049  -2.0793   C.2       1 RES1   0.0000
     5 N5       3.0969   6.2780  -1.5524   N.pl3     1 RES1   0.0000
     6 C6       2.5859   5.8920  -0.2831   C.2       1 RES1   0.0000
     7 C7       3.5842   5.2581   0.6765   C.3       1 RES1   0.0000
     8 O8       4.7759   6.0160   0.6585   O.3       1 RES1   0.0000
     9 C9       3.0286   5.1662   2.1490   C.3       1 RES1   0.0000
    10 C10      3.8908   4.2737   3.0756   C.3       1 RES1   0.0000
    11 C11      3.4115   4.3177   4.4595   C.2       1 RES1   0.0000
    12 C12      3.9281   5.2902   5.3359   C.2       1 RES1   0.0000
    13 C13      3.4603   5.3909   6.6431   C.2       1 RES1   0.0000
    14 C14      2.4688   4.5308   7.1223   C.2       1 RES1   0.0000
    15 C15      1.9356   3.5618   6.2615   C.2       1 RES1   0.0000
    16 C16      2.4069   3.4635   4.9455   C.2       1 RES1   0.0000
    17 N17      1.7208   4.6768   2.0637   N.am      1 RES1   0.0000
    18 C18      0.6020   5.3754   2.3127   C.2       1 RES1   0.0000
    19 O19      0.5286   6.5550   2.6557   O.2       1 RES1   0.0000
    20 O20     -0.5666   4.6483   2.1323   O.3       1 RES1   0.0000
    21 C21     -1.8388   5.2317   2.3334   C.3       1 RES1   0.0000
    22 C22     -2.1430   5.9837   1.0419   C.3       1 RES1   0.0000
    23 O23     -2.7511   4.9950   0.1918   O.3       1 RES1   0.0000
    24 C24     -3.5941   4.1882   1.0196   C.3       1 RES1   0.0000
    25 O25     -3.6277   2.8608   0.5423   O.3       1 RES1   0.0000
    26 C26     -2.5434   2.1841   1.1541   C.3       1 RES1   0.0000
    27 C27     -2.5158   2.7154   2.5731   C.3       1 RES1   0.0000
    28 C28     -2.9449   4.1794   2.4145   C.3       1 RES1   0.0000
    29 S29      3.6256   5.1429  -2.6360   S.o2      1 RES1   0.0000
    30 O30      4.2199   4.0807  -1.9136   O.2       1 RES1   0.0000
    31 O31      4.3855   5.8040  -3.6228   O.2       1 RES1   0.0000
    32 C32      2.1923   4.5032  -3.4206   C.2       1 RES1   0.0000
    33 C33      1.5371   3.4011  -2.8862   C.2       1 RES1   0.0000
    34 C34      0.4405   2.8268  -3.4529   C.2       1 RES1   0.0000
    35 C35     -0.1070   3.2935  -4.6219   C.2       1 RES1   0.0000
    36 B36     -1.3218   2.5956  -5.2100   B         1 RES1   0.0000
    37 O37     -1.9260   1.5103  -4.6482   O.3       1 RES1   0.0000
    38 O38     -1.7566   3.0604  -6.3716   O.3       1 RES1   0.0000
    39 C39      0.5391   4.4103  -5.2284   C.2       1 RES1   0.0000
    40 C40      1.6516   4.9800  -4.6228   C.2       1 RES1   0.0000
@<TRIPOS>BOND
     1     1     2    1
     2     2     3    1
     3     2     4    1
     4     4     5    1
     5     5     6    1
     6     6     7    1
     7     7     8    1
     8     7     9    1
     9     9    10    1
    10    10    11    1
    11    11    12    2
    12    12    13    1
    13    13    14    2
    14    14    15    1
    15    15    16    2
    16     9    17    1
    17    17    18   am
    18    18    19    2
    19    18    20    1
    20    21    20    1
    21    21    22    1
    22    22    23    1
    23    24    23    1
    24    24    25    1
    25    25    26    1
    26    26    27    1
    27    28    27    1
    28     5    29    1
    29    29    30    2
    30    29    31    2
    31    29    32    1
    32    32    33    2
    33    33    34    1
    34    34    35    2
    35    35    36    1
    36    36    37    1
    37    36    38    1
    38    35    39    1
    39    39    40    2
    40    16    11    1
    41    28    21    1
    42    40    32    1
    43    28    24    1
@<TRIPOS>SUBSTRUCTURE
     1 RES1        1 GROUP             0 ****  ****    0  
@<TRIPOS>MOLECULE
ligand_56
    40    43     1     0     0
SMALL
NO_CHARGES
****
Generated from the CSD

@<TRIPOS>ATOM
     1 C1       9.1052   3.9194   3.9428   C.3       1 RES1   0.0000
     2 C2       7.7170   4.5317   3.8738   C.3       1 RES1   0.0000
     3 C3       7.1126   4.2312   2.5239   C.3       1 RES1   0.0000
     4 C4       6.8242   3.9778   4.9727   C.2       1 RES1   0.0000
     5 N5       5.5009   4.5049   5.1298   N.pl3     1 RES1   0.0000
     6 C6       4.4437   3.5877   4.8799   C.2       1 RES1   0.0000
     7 C7       3.4932   3.9533   3.7476   C.3       1 RES1   0.0000
     8 O8       4.2204   3.9884   2.5374   O.3       1 RES1   0.0000
     9 C9       2.2899   2.9425   3.6219   C.3       1 RES1   0.0000
    10 C10      2.7141   1.5443   3.1085   C.3       1 RES1   0.0000
    11 C11      1.5911   0.6033   3.1271   C.2       1 RES1   0.0000
    12 C12      1.3597  -0.1691   4.2806   C.2       1 RES1   0.0000
    13 C13      0.2740  -1.0374   4.3500   C.2       1 RES1   0.0000
    14 C14     -0.6138  -1.1687   3.2790   C.2       1 RES1   0.0000
    15 C15     -0.4050  -0.4009   2.1252   C.2       1 RES1   0.0000
    16 C16      0.6877   0.4738   2.0584   C.2       1 RES1   0.0000
    17 N17      1.3535   3.5251   2.7611   N.am      1 RES1   0.0000
    18 C18      0.1492   4.0006   3.1151   C.2       1 RES1   0.0000
    19 O19     -0.3390   4.0086   4.2446   O.2       1 RES1   0.0000
    20 O20     -0.5721   4.5448   2.0613   O.3       1 RES1   0.0000
    21 C21     -1.8544   5.1078   2.2560   C.3       1 RES1   0.0000
    22 C22     -2.0914   5.9945   1.0379   C.3       1 RES1   0.0000
    23 O23     -2.6514   5.1044   0.0560   O.3       1 RES1   0.0000
    24 C24     -3.5353   4.2168   0.7471   C.3       1 RES1   0.0000
    25 O25     -3.5407   2.9481   0.1296   O.3       1 RES1   0.0000
    26 C26     -2.4889   2.2061   0.7221   C.3       1 RES1   0.0000
    27 C27     -2.5377   2.5827   2.1893   C.3       1 RES1   0.0000
    28 C28     -2.9610   4.0568   2.1654   C.3       1 RES1   0.0000
    29 S29      5.2995   5.7664   6.1836   S.o2      1 RES1   0.0000
    30 O30      6.0551   5.4972   7.3497   O.2       1 RES1   0.0000
    31 O31      3.9166   6.0112   6.3100   O.2       1 RES1   0.0000
    32 C32      6.0115   7.1728   5.4129   C.2       1 RES1   0.0000
    33 C33      7.3447   7.4917   5.6375   C.2       1 RES1   0.0000
    34 C34      7.9603   8.5824   5.1036   C.2       1 RES1   0.0000
    35 C35      7.2979   9.4731   4.2961   C.2       1 RES1   0.0000
    36 B36      8.0400  10.6796   3.7464   B         1 RES1   0.0000
    37 O37      9.3512  10.9519   4.0021   O.3       1 RES1   0.0000
    38 O38      7.3216  11.5294   3.0279   O.3       1 RES1   0.0000
    39 C39      5.9189   9.2083   4.0497   C.2       1 RES1   0.0000
    40 C40      5.3201   8.0832   4.6017   C.2       1 RES1   0.0000
@<TRIPOS>BOND
     1     1     2    1
     2     2     3    1
     3     2     4    1
     4     4     5    1
     5     5     6    1
     6     6     7    1
     7     7     8    1
     8     7     9    1
     9     9    10    1
    10    10    11    1
    11    11    12    2
    12    12    13    1
    13    13    14    2
    14    14    15    1
    15    15    16    2
    16     9    17    1
    17    17    18   am
    18    18    19    2
    19    18    20    1
    20    21    20    1
    21    21    22    1
    22    22    23    1
    23    24    23    1
    24    24    25    1
    25    25    26    1
    26    26    27    1
    27    28    27    1
    28     5    29    1
    29    29    30    2
    30    29    31    2
    31    29    32    1
    32    32    33    2
    33    33    34    1
    34    34    35    2
    35    35    36    1
    36    36    37    1
    37    36    38    1
    38    35    39    1
    39    39    40    2
    40    16    11    1
    41    28    21    1
    42    40    32    1
    43    28    24    1
@<TRIPOS>SUBSTRUCTURE
     1 RES1        1 GROUP             0 ****  ****    0  
@<TRIPOS>MOLECULE
ligand_57
    40    43     1     0     0
SMALL
NO_CHARGES
****
Generated from the CSD

@<TRIPOS>ATOM
     1 C1       2.8115   2.3585  -4.3502   C.3       1 RES1   0.0000
     2 C2       3.2117   3.5085  -3.4424   C.3       1 RES1   0.0000
     3 C3       1.9725   4.2643  -3.0293   C.3       1 RES1   0.0000
     4 C4       3.9392   2.9983  -2.2088   C.2       1 RES1   0.0000
     5 N5       4.4547   3.9421  -1.2615   N.pl3     1 RES1   0.0000
     6 C6       3.8522   3.9076   0.0258   C.2       1 RES1   0.0000
     7 C7       3.5842   5.2581   0.6765   C.3       1 RES1   0.0000
     8 O8       2.7079   5.9951  -0.1504   O.3       1 RES1   0.0000
     9 C9       2.9689   5.1186   2.1212   C.3       1 RES1   0.0000
    10 C10      3.8013   4.2082   3.0575   C.3       1 RES1   0.0000
    11 C11      3.2645   4.2078   4.4208   C.2       1 RES1   0.0000
    12 C12      3.7338   5.1596   5.3453   C.2       1 RES1   0.0000
    13 C13      3.2111   5.2183   6.6340   C.2       1 RES1   0.0000
    14 C14      2.2098   4.3354   7.0469   C.2       1 RES1   0.0000
    15 C15      1.7232   3.3865   6.1374   C.2       1 RES1   0.0000
    16 C16      2.2499   3.3305   4.8400   C.2       1 RES1   0.0000
    17 N17      1.6711   4.6195   1.9675   N.am      1 RES1   0.0000
    18 C18      0.5355   5.3000   2.1892   C.2       1 RES1   0.0000
    19 O19      0.4353   6.4684   2.5620   O.2       1 RES1   0.0000
    20 O20     -0.6167   4.5672   1.9395   O.3       1 RES1   0.0000
    21 C21     -1.9024   5.1325   2.1037   C.3       1 RES1   0.0000
    22 C22     -2.1607   5.9183   0.8223   C.3       1 RES1   0.0000
    23 O23     -2.7223   4.9486  -0.0801   O.3       1 RES1   0.0000
    24 C24     -3.5903   4.1104   0.6885   C.3       1 RES1   0.0000
    25 O25     -3.5897   2.7971   0.1728   O.3       1 RES1   0.0000
    26 C26     -2.5246   2.1134   0.8101   C.3       1 RES1   0.0000
    27 C27     -2.5617   2.6040   2.2435   C.3       1 RES1   0.0000
    28 C28     -2.9996   4.0678   2.1085   C.3       1 RES1   0.0000
    29 S29      6.0226   4.4396  -1.4523   S.o2      1 RES1   0.0000
    30 O30      6.2882   5.4503  -0.4978   O.2       1 RES1   0.0000
    31 O31      6.2259   4.7232  -2.8185   O.2       1 RES1   0.0000
    32 C32      7.0311   3.0616  -1.0482   C.2       1 RES1   0.0000
    33 C33      7.4588   2.8693   0.2593   C.2       1 RES1   0.0000
    34 C34      8.2685   1.8452   0.6457   C.2       1 RES1   0.0000
    35 C35      8.7417   0.9124  -0.2432   C.2       1 RES1   0.0000
    36 B36      9.6556  -0.1961   0.2514   B         1 RES1   0.0000
    37 O37     10.0522  -0.3381   1.5480   O.3       1 RES1   0.0000
    38 O38     10.1247  -1.0216  -0.6722   O.3       1 RES1   0.0000
    39 C39      8.3532   1.0737  -1.6054   C.2       1 RES1   0.0000
    40 C40      7.5199   2.1239  -1.9684   C.2       1 RES1   0.0000
@<TRIPOS>BOND
     1     1     2    1
     2     2     3    1
     3     2     4    1
     4     4     5    1
     5     5     6    1
     6     6     7    1
     7     7     8    1
     8     7     9    1
     9     9    10    1
    10    10    11    1
    11    11    12    2
    12    12    13    1
    13    13    14    2
    14    14    15    1
    15    15    16    2
    16     9    17    1
    17    17    18   am
    18    18    19    2
    19    18    20    1
    20    21    20    1
    21    21    22    1
    22    22    23    1
    23    24    23    1
    24    24    25    1
    25    25    26    1
    26    26    27    1
    27    28    27    1
    28     5    29    1
    29    29    30    2
    30    29    31    2
    31    29    32    1
    32    32    33    2
    33    33    34    1
    34    34    35    2
    35    35    36    1
    36    36    37    1
    37    36    38    1
    38    35    39    1
    39    39    40    2
    40    16    11    1
    41    28    21    1
    42    40    32    1
    43    28    24    1
@<TRIPOS>SUBSTRUCTURE
     1 RES1        1 GROUP             0 ****  ****    0  
@<TRIPOS>MOLECULE
ligand_58
    40    43     1     0     0
SMALL
NO_CHARGES
****
Generated from the CSD

@<TRIPOS>ATOM
     1 C1       7.5127   4.3310  -1.8912   C.3       1 RES1   0.0000
     2 C2       6.0037   4.2700  -1.7302   C.3       1 RES1   0.0000
     3 C3       5.6528   3.1316  -0.8037   C.3       1 RES1   0.0000
     4 C4       5.4645   5.5760  -1.1689   C.2       1 RES1   0.0000
     5 N5       4.0508   5.7288  -0.9902   N.pl3     1 RES1   0.0000
     6 C6       3.6236   5.9456   0.3484   C.2       1 RES1   0.0000
     7 C7       3.8895   4.8108   1.3287   C.3       1 RES1   0.0000
     8 O8       5.2319   4.8889   1.7608   O.3       1 RES1   0.0000
     9 C9       2.9219   4.8508   2.5725   C.3       1 RES1   0.0000
    10 C10      3.4327   4.0184   3.7745   C.3       1 RES1   0.0000
    11 C11      2.5699   4.1850   4.9469   C.2       1 RES1   0.0000
    12 C12      2.8486   5.2142   5.8655   C.2       1 RES1   0.0000
    13 C13      2.0219   5.4310   6.9642   C.2       1 RES1   0.0000
    14 C14      0.8961   4.6341   7.1878   C.2       1 RES1   0.0000
    15 C15      0.5971   3.6099   6.2789   C.2       1 RES1   0.0000
    16 C16      1.4299   3.3949   5.1726   C.2       1 RES1   0.0000
    17 N17      1.6766   4.3842   2.1381   N.am      1 RES1   0.0000
    18 C18      0.4920   4.9707   2.3717   C.2       1 RES1   0.0000
    19 O19      0.2932   6.0093   3.0012   O.2       1 RES1   0.0000
    20 O20     -0.5865   4.3037   1.8069   O.3       1 RES1   0.0000
    21 C21     -1.9078   4.7896   1.9393   C.3       1 RES1   0.0000
    22 C22     -2.1768   5.5717   0.6580   C.3       1 RES1   0.0000
    23 O23     -2.6540   4.5797  -0.2684   O.3       1 RES1   0.0000
    24 C24     -3.4913   3.6833   0.4679   C.3       1 RES1   0.0000
    25 O25     -3.3977   2.3777  -0.0588   O.3       1 RES1   0.0000
    26 C26     -2.3117   1.7523   0.6026   C.3       1 RES1   0.0000
    27 C27     -2.4181   2.2250   2.0386   C.3       1 RES1   0.0000
    28 C28     -2.9389   3.6613   1.9038   C.3       1 RES1   0.0000
    29 S29      3.1774   6.3202  -2.2668   S.o2      1 RES1   0.0000
    30 O30      1.8043   6.2729  -1.9266   O.2       1 RES1   0.0000
    31 O31      3.6124   5.6603  -3.4345   O.2       1 RES1   0.0000
    32 C32      3.6181   8.0112  -2.4262   C.2       1 RES1   0.0000
    33 C33      4.6826   8.3815  -3.2380   C.2       1 RES1   0.0000
    34 C34      5.1063   9.6666  -3.3878   C.2       1 RES1   0.0000
    35 C35      4.5112  10.7137  -2.7294   C.2       1 RES1   0.0000
    36 B36      5.0444  12.1225  -2.9282   B         1 RES1   0.0000
    37 O37      6.0992  12.4337  -3.7341   O.3       1 RES1   0.0000
    38 O38      4.4628  13.0733  -2.2126   O.3       1 RES1   0.0000
    39 C39      3.4264  10.3894  -1.8630   C.2       1 RES1   0.0000
    40 C40      3.0114   9.0701  -1.7365   C.2       1 RES1   0.0000
@<TRIPOS>BOND
     1     1     2    1
     2     2     3    1
     3     2     4    1
     4     4     5    1
     5     5     6    1
     6     6     7    1
     7     7     8    1
     8     7     9    1
     9     9    10    1
    10    10    11    1
    11    11    12    2
    12    12    13    1
    13    13    14    2
    14    14    15    1
    15    15    16    2
    16     9    17    1
    17    17    18   am
    18    18    19    2
    19    18    20    1
    20    21    20    1
    21    21    22    1
    22    22    23    1
    23    24    23    1
    24    24    25    1
    25    25    26    1
    26    26    27    1
    27    28    27    1
    28     5    29    1
    29    29    30    2
    30    29    31    2
    31    29    32    1
    32    32    33    2
    33    33    34    1
    34    34    35    2
    35    35    36    1
    36    36    37    1
    37    36    38    1
    38    35    39    1
    39    39    40    2
    40    16    11    1
    41    28    21    1
    42    40    32    1
    43    28    24    1
@<TRIPOS>SUBSTRUCTURE
     1 RES1        1 GROUP             0 ****  ****    0  
@<TRIPOS>MOLECULE
ligand_59
    40    43     1     0     0
SMALL
NO_CHARGES
****
Generated from the CSD

@<TRIPOS>ATOM
     1 C1       2.5101   3.3879  -4.5257   C.3       1 RES1   0.0000
     2 C2       3.2156   4.2209  -3.4698   C.3       1 RES1   0.0000
     3 C3       2.2648   5.2751  -2.9576   C.3       1 RES1   0.0000
     4 C4       3.6878   3.3493  -2.3170   C.2       1 RES1   0.0000
     5 N5       4.4547   3.9421  -1.2615   N.pl3     1 RES1   0.0000
     6 C6       3.8522   3.9076   0.0258   C.2       1 RES1   0.0000
     7 C7       3.5842   5.2581   0.6765   C.3       1 RES1   0.0000
     8 O8       2.7257   6.0038  -0.1612   O.3       1 RES1   0.0000
     9 C9       2.9464   5.1189   2.1114   C.3       1 RES1   0.0000
    10 C10      3.7677   4.2141   3.0629   C.3       1 RES1   0.0000
    11 C11      5.0008   4.8745   3.4988   C.2       1 RES1   0.0000
    12 C12      6.1798   4.6923   2.7521   C.2       1 RES1   0.0000
    13 C13      7.3571   5.3429   3.1103   C.2       1 RES1   0.0000
    14 C14      7.4031   6.1916   4.2195   C.2       1 RES1   0.0000
    15 C15      6.2366   6.3927   4.9701   C.2       1 RES1   0.0000
    16 C16      5.0523   5.7379   4.6064   C.2       1 RES1   0.0000
    17 N17      1.6534   4.6136   1.9380   N.am      1 RES1   0.0000
    18 C18      0.5114   5.2895   2.1399   C.2       1 RES1   0.0000
    19 O19      0.4000   6.4583   2.5086   O.2       1 RES1   0.0000
    20 O20     -0.6334   4.5511   1.8733   O.3       1 RES1   0.0000
    21 C21     -1.9240   5.1109   2.0156   C.3       1 RES1   0.0000
    22 C22     -2.1651   5.8929   0.7286   C.3       1 RES1   0.0000
    23 O23     -2.7079   4.9189  -0.1807   O.3       1 RES1   0.0000
    24 C24     -3.5844   4.0784   0.5757   C.3       1 RES1   0.0000
    25 O25     -3.5697   2.7640   0.0629   O.3       1 RES1   0.0000
    26 C26     -2.5120   2.0865   0.7187   C.3       1 RES1   0.0000
    27 C27     -2.5743   2.5798   2.1502   C.3       1 RES1   0.0000
    28 C28     -3.0164   4.0414   2.0051   C.3       1 RES1   0.0000
    29 S29      6.1022   3.9577  -1.4280   S.o2      1 RES1   0.0000
    30 O30      6.6511   4.6988  -0.3544   O.2       1 RES1   0.0000
    31 O31      6.4024   4.3490  -2.7490   O.2       1 RES1   0.0000
    32 C32      6.6336   2.2958  -1.2410   C.2       1 RES1   0.0000
    33 C33      6.9629   1.8056   0.0163   C.2       1 RES1   0.0000
    34 C34      7.4139   0.5404   0.2389   C.2       1 RES1   0.0000
    35 C35      7.5911  -0.3620  -0.7800   C.2       1 RES1   0.0000
    36 B36      8.1139  -1.7534  -0.4647   B         1 RES1   0.0000
    37 O37      8.4291  -2.1851   0.7895   O.3       1 RES1   0.0000
    38 O38      8.3206  -2.5487  -1.5035   O.3       1 RES1   0.0000
    39 C39      7.2905   0.0944  -2.0968   C.2       1 RES1   0.0000
    40 C40      6.8247   1.3882  -2.2921   C.2       1 RES1   0.0000
@<TRIPOS>BOND
     1     1     2    1
     2     2     3    1
     3     2     4    1
     4     4     5    1
     5     5     6    1
     6     6     7    1
     7     7     8    1
     8     7     9    1
     9     9    10    1
    10    10    11    1
    11    11    12    2
    12    12    13    1
    13    13    14    2
    14    14    15    1
    15    15    16    2
    16     9    17    1
    17    17    18   am
    18    18    19    2
    19    18    20    1
    20    21    20    1
    21    21    22    1
    22    22    23    1
    23    24    23    1
    24    24    25    1
    25    25    26    1
    26    26    27    1
    27    28    27    1
    28     5    29    1
    29    29    30    2
    30    29    31    2
    31    29    32    1
    32    32    33    2
    33    33    34    1
    34    34    35    2
    35    35    36    1
    36    36    37    1
    37    36    38    1
    38    35    39    1
    39    39    40    2
    40    16    11    1
    41    28    21    1
    42    40    32    1
    43    28    24    1
@<TRIPOS>SUBSTRUCTURE
     1 RES1        1 GROUP             0 ****  ****    0  
@<TRIPOS>MOLECULE
ligand_60
    40    43     1     0     0
SMALL
NO_CHARGES
****
Generated from the CSD

@<TRIPOS>ATOM
     1 C1       5.8721   7.2272   7.6618   C.3       1 RES1   0.0000
     2 C2       5.7393   6.5683   6.2998   C.3       1 RES1   0.0000
     3 C3       6.0229   5.0924   6.4369   C.3       1 RES1   0.0000
     4 C4       4.3445   6.7742   5.7310   C.2       1 RES1   0.0000
     5 N5       4.0505   6.2971   4.4120   N.pl3     1 RES1   0.0000
     6 C6       3.0526   5.2874   4.3353   C.2       1 RES1   0.0000
     7 C7       3.4932   3.9533   3.7476   C.3       1 RES1   0.0000
     8 O8       4.5457   3.4357   4.5344   O.3       1 RES1   0.0000
     9 C9       2.3142   2.9093   3.6741   C.3       1 RES1   0.0000
    10 C10      2.7527   1.5255   3.1342   C.3       1 RES1   0.0000
    11 C11      1.6588   0.5530   3.2013   C.2       1 RES1   0.0000
    12 C12      1.5043  -0.2298   4.3607   C.2       1 RES1   0.0000
    13 C13      0.4480  -1.1288   4.4771   C.2       1 RES1   0.0000
    14 C14     -0.4857  -1.2813   3.4487   C.2       1 RES1   0.0000
    15 C15     -0.3536  -0.5037   2.2901   C.2       1 RES1   0.0000
    16 C16      0.7097   0.4018   2.1760   C.2       1 RES1   0.0000
    17 N17      1.3220   3.4682   2.8615   N.am      1 RES1   0.0000
    18 C18      0.1188   3.8982   3.2727   C.2       1 RES1   0.0000
    19 O19     -0.3087   3.9044   4.4266   O.2       1 RES1   0.0000
    20 O20     -0.6801   4.3939   2.2515   O.3       1 RES1   0.0000
    21 C21     -1.9768   4.8973   2.5054   C.3       1 RES1   0.0000
    22 C22     -2.3232   5.7446   1.2854   C.3       1 RES1   0.0000
    23 O23     -2.8898   4.8068   0.3529   O.3       1 RES1   0.0000
    24 C24     -3.6895   3.8921   1.1081   C.3       1 RES1   0.0000
    25 O25     -3.6643   2.6116   0.5162   O.3       1 RES1   0.0000
    26 C26     -2.5462   1.9353   1.0643   C.3       1 RES1   0.0000
    27 C27     -2.5349   2.3409   2.5244   C.3       1 RES1   0.0000
    28 C28     -3.0324   3.7915   2.4957   C.3       1 RES1   0.0000
    29 S29      4.3072   7.3353   3.1476   S.o2      1 RES1   0.0000
    30 O30      4.7438   6.5800   2.0331   O.2       1 RES1   0.0000
    31 O31      5.1152   8.3939   3.6111   O.2       1 RES1   0.0000
    32 C32      2.7411   8.0127   2.7384   C.2       1 RES1   0.0000
    33 C33      1.9425   7.3972   1.7830   C.2       1 RES1   0.0000
    34 C34      0.7319   7.8784   1.3874   C.2       1 RES1   0.0000
    35 C35      0.2011   9.0344   1.9030   C.2       1 RES1   0.0000
    36 B36     -1.1480   9.5253   1.4054   B         1 RES1   0.0000
    37 O37     -1.8920   8.8859   0.4586   O.3       1 RES1   0.0000
    38 O38     -1.5678  10.6800   1.9000   O.3       1 RES1   0.0000
    39 C39      0.9889   9.7220   2.8722   C.2       1 RES1   0.0000
    40 C40      2.2166   9.2027   3.2618   C.2       1 RES1   0.0000
@<TRIPOS>BOND
     1     1     2    1
     2     2     3    1
     3     2     4    1
     4     4     5    1
     5     5     6    1
     6     6     7    1
     7     7     8    1
     8     7     9    1
     9     9    10    1
    10    10    11    1
    11    11    12    2
    12    12    13    1
    13    13    14    2
    14    14    15    1
    15    15    16    2
    16     9    17    1
    17    17    18   am
    18    18    19    2
    19    18    20    1
    20    21    20    1
    21    21    22    1
    22    22    23    1
    23    24    23    1
    24    24    25    1
    25    25    26    1
    26    26    27    1
    27    28    27    1
    28     5    29    1
    29    29    30    2
    30    29    31    2
    31    29    32    1
    32    32    33    2
    33    33    34    1
    34    34    35    2
    35    35    36    1
    36    36    37    1
    37    36    38    1
    38    35    39    1
    39    39    40    2
    40    16    11    1
    41    28    21    1
    42    40    32    1
    43    28    24    1
@<TRIPOS>SUBSTRUCTURE
     1 RES1        1 GROUP             0 ****  ****    0  
@<TRIPOS>MOLECULE
ligand_61
    40    43     1     0     0
SMALL
NO_CHARGES
****
Generated from the CSD

@<TRIPOS>ATOM
     1 C1      15.7527   5.1862   5.5584   C.3       1 RES1   0.0000
     2 C2      15.8487   3.7210   5.1704   C.3       1 RES1   0.0000
     3 C3      16.0098   2.8901   6.4200   C.3       1 RES1   0.0000
     4 C4      14.6071   3.2775   4.4134   C.2       1 RES1   0.0000
     5 N5      14.5396   1.9393   3.9050   N.pl3     1 RES1   0.0000
     6 C6      13.4626   1.1521   4.3965   C.2       1 RES1   0.0000
     7 C7      12.0899   1.8115   4.3826   C.3       1 RES1   0.0000
     8 O8      11.7511   2.1274   3.0484   O.3       1 RES1   0.0000
     9 C9      10.9753   0.8946   5.0168   C.3       1 RES1   0.0000
    10 C10     10.6545  -0.3591   4.1661   C.3       1 RES1   0.0000
    11 C11      9.7088  -1.2440   4.8513   C.2       1 RES1   0.0000
    12 C12     10.2018  -2.2550   5.6972   C.2       1 RES1   0.0000
    13 C13      9.3309  -3.0822   6.4007   C.2       1 RES1   0.0000
    14 C14      7.9460  -2.9347   6.2861   C.2       1 RES1   0.0000
    15 C15      7.4363  -1.9275   5.4555   C.2       1 RES1   0.0000
    16 C16      8.3151  -1.0950   4.7497   C.2       1 RES1   0.0000
    17 N17      9.8355   1.6890   5.1808   N.am      1 RES1   0.0000
    18 C18      9.0891   1.7731   6.2933   C.2       1 RES1   0.0000
    19 O19      9.2722   1.1745   7.3527   O.2       1 RES1   0.0000
    20 O20      8.0222   2.6550   6.1890   O.3       1 RES1   0.0000
    21 C21      7.1419   2.8810   7.2711   C.3       1 RES1   0.0000
    22 C22      7.6848   3.7985   8.3669   C.3       1 RES1   0.0000
    23 O23      6.5249   4.1591   9.1328   O.3       1 RES1   0.0000
    24 C24      5.4322   4.2839   8.2403   C.3       1 RES1   0.0000
    25 O25      5.1664   5.6426   7.9664   O.3       1 RES1   0.0000
    26 C26      5.9906   6.0020   6.8711   C.3       1 RES1   0.0000
    27 C27      5.9608   4.7998   5.9502   C.3       1 RES1   0.0000
    28 C28      5.8307   3.6114   6.9104   C.3       1 RES1   0.0000
    29 S29     15.1829   1.6568   2.4054   S.o2      1 RES1   0.0000
    30 O30     15.0886   0.2708   2.1345   O.2       1 RES1   0.0000
    31 O31     16.4482   2.2766   2.3509   O.2       1 RES1   0.0000
    32 C32     14.1448   2.4849   1.2583   C.2       1 RES1   0.0000
    33 C33     13.1242   1.7952   0.6162   C.2       1 RES1   0.0000
    34 C34     12.2991   2.3574  -0.3093   C.2       1 RES1   0.0000
    35 C35     12.4193   3.6694  -0.6944   C.2       1 RES1   0.0000
    36 B36     11.4760   4.2301  -1.7453   B         1 RES1   0.0000
    37 O37     10.4914   3.5078  -2.3517   O.3       1 RES1   0.0000
    38 O38     11.6916   5.4839  -2.1139   O.3       1 RES1   0.0000
    39 C39     13.4662   4.4206  -0.0843   C.2       1 RES1   0.0000
    40 C40     14.2874   3.8221   0.8624   C.2       1 RES1   0.0000
@<TRIPOS>BOND
     1     1     2    1
     2     2     3    1
     3     2     4    1
     4     4     5    1
     5     5     6    1
     6     6     7    1
     7     7     8    1
     8     7     9    1
     9     9    10    1
    10    10    11    1
    11    11    12    2
    12    12    13    1
    13    13    14    2
    14    14    15    1
    15    15    16    2
    16     9    17    1
    17    17    18   am
    18    18    19    2
    19    18    20    1
    20    21    20    1
    21    21    22    1
    22    22    23    1
    23    24    23    1
    24    24    25    1
    25    25    26    1
    26    26    27    1
    27    28    27    1
    28     5    29    1
    29    29    30    2
    30    29    31    2
    31    29    32    1
    32    32    33    2
    33    33    34    1
    34    34    35    2
    35    35    36    1
    36    36    37    1
    37    36    38    1
    38    35    39    1
    39    39    40    2
    40    16    11    1
    41    28    21    1
    42    40    32    1
    43    28    24    1
@<TRIPOS>SUBSTRUCTURE
     1 RES1        1 GROUP             0 ****  ****    0  
@<TRIPOS>MOLECULE
ligand_62
    40    43     1     0     0
SMALL
NO_CHARGES
****
Generated from the CSD

@<TRIPOS>ATOM
     1 C1      15.8593   4.9371   3.3332   C.3       1 RES1   0.0000
     2 C2      15.2272   4.2443   4.5279   C.3       1 RES1   0.0000
     3 C3      13.8237   4.7667   4.7146   C.3       1 RES1   0.0000
     4 C4      15.1936   2.7378   4.3265   C.2       1 RES1   0.0000
     5 N5      14.6833   1.9040   5.3745   N.pl3     1 RES1   0.0000
     6 C6      13.5465   1.1210   5.0342   C.2       1 RES1   0.0000
     7 C7      12.2226   1.8678   4.9394   C.3       1 RES1   0.0000
     8 O8      12.1721   2.5479   3.7026   O.3       1 RES1   0.0000
     9 C9      10.9793   0.9083   5.0758   C.3       1 RES1   0.0000
    10 C10     10.7896  -0.0276   3.8564   C.3       1 RES1   0.0000
    11 C11      9.7031  -0.9849   4.0796   C.2       1 RES1   0.0000
    12 C12      9.9929  -2.2292   4.6699   C.2       1 RES1   0.0000
    13 C13      8.9780  -3.1427   4.9400   C.2       1 RES1   0.0000
    14 C14      7.6462  -2.8528   4.6320   C.2       1 RES1   0.0000
    15 C15      7.3368  -1.6149   4.0521   C.2       1 RES1   0.0000
    16 C16      8.3602  -0.6963   3.7827   C.2       1 RES1   0.0000
    17 N17      9.8541   1.7190   5.2599   N.am      1 RES1   0.0000
    18 C18      9.1457   1.8352   6.3941   C.2       1 RES1   0.0000
    19 O19      9.3571   1.2570   7.4596   O.2       1 RES1   0.0000
    20 O20      8.0856   2.7270   6.3058   O.3       1 RES1   0.0000
    21 C21      7.2440   2.9859   7.4110   C.3       1 RES1   0.0000
    22 C22      7.8326   3.9199   8.4686   C.3       1 RES1   0.0000
    23 O23      6.7025   4.3099   9.2641   O.3       1 RES1   0.0000
    24 C24      5.5824   4.4285   8.4053   C.3       1 RES1   0.0000
    25 O25      5.3225   5.7841   8.1111   O.3       1 RES1   0.0000
    26 C26      6.1140   6.1109   6.9821   C.3       1 RES1   0.0000
    27 C27      6.0409   4.8899   6.0886   C.3       1 RES1   0.0000
    28 C28      5.9295   3.7236   7.0779   C.3       1 RES1   0.0000
    29 S29     15.7493   1.3942   6.5346   S.o2      1 RES1   0.0000
    30 O30     15.0237   0.6985   7.5310   O.2       1 RES1   0.0000
    31 O31     16.5401   2.4982   6.9143   O.2       1 RES1   0.0000
    32 C32     16.8104   0.2339   5.7554   C.2       1 RES1   0.0000
    33 C33     16.4814  -1.1156   5.7452   C.2       1 RES1   0.0000
    34 C34     17.2669  -2.0798   5.1912   C.2       1 RES1   0.0000
    35 C35     18.4705  -1.7905   4.5982   C.2       1 RES1   0.0000
    36 B36     19.3065  -2.9166   4.0137   B         1 RES1   0.0000
    37 O37     18.9408  -4.2298   4.0345   O.3       1 RES1   0.0000
    38 O38     20.4841  -2.5714   3.5153   O.3       1 RES1   0.0000
    39 C39     18.8707  -0.4221   4.6001   C.2       1 RES1   0.0000
    40 C40     18.0447   0.5405   5.1659   C.2       1 RES1   0.0000
@<TRIPOS>BOND
     1     1     2    1
     2     2     3    1
     3     2     4    1
     4     4     5    1
     5     5     6    1
     6     6     7    1
     7     7     8    1
     8     7     9    1
     9     9    10    1
    10    10    11    1
    11    11    12    2
    12    12    13    1
    13    13    14    2
    14    14    15    1
    15    15    16    2
    16     9    17    1
    17    17    18   am
    18    18    19    2
    19    18    20    1
    20    21    20    1
    21    21    22    1
    22    22    23    1
    23    24    23    1
    24    24    25    1
    25    25    26    1
    26    26    27    1
    27    28    27    1
    28     5    29    1
    29    29    30    2
    30    29    31    2
    31    29    32    1
    32    32    33    2
    33    33    34    1
    34    34    35    2
    35    35    36    1
    36    36    37    1
    37    36    38    1
    38    35    39    1
    39    39    40    2
    40    16    11    1
    41    28    21    1
    42    40    32    1
    43    28    24    1
@<TRIPOS>SUBSTRUCTURE
     1 RES1        1 GROUP             0 ****  ****    0  
@<TRIPOS>MOLECULE
ligand_63
    40    43     1     0     0
SMALL
NO_CHARGES
****
Generated from the CSD

@<TRIPOS>ATOM
     1 C1       5.5450   8.4932   1.1222   C.3       1 RES1   0.0000
     2 C2       5.4562   7.4490   2.2215   C.3       1 RES1   0.0000
     3 C3       4.2002   7.6847   3.0244   C.3       1 RES1   0.0000
     4 C4       5.4381   6.0457   1.6369   C.2       1 RES1   0.0000
     5 N5       5.4458   4.9196   2.5233   N.pl3     1 RES1   0.0000
     6 C6       4.2970   4.0844   2.4608   C.2       1 RES1   0.0000
     7 C7       3.4932   3.9533   3.7476   C.3       1 RES1   0.0000
     8 O8       3.0504   5.2359   4.1394   O.3       1 RES1   0.0000
     9 C9       2.2597   2.9842   3.5908   C.3       1 RES1   0.0000
    10 C10      2.6435   1.5851   3.0487   C.3       1 RES1   0.0000
    11 C11      3.3433   0.7913   4.0622   C.2       1 RES1   0.0000
    12 C12      4.7478   0.8478   4.1314   C.2       1 RES1   0.0000
    13 C13      5.4412   0.1442   5.1120   C.2       1 RES1   0.0000
    14 C14      4.7652  -0.6381   6.0521   C.2       1 RES1   0.0000
    15 C15      3.3658  -0.6994   6.0049   C.2       1 RES1   0.0000
    16 C16      2.6700   0.0112   5.0177   C.2       1 RES1   0.0000
    17 N17      1.3487   3.6152   2.7370   N.am      1 RES1   0.0000
    18 C18      0.1573   4.1205   3.0933   C.2       1 RES1   0.0000
    19 O19     -0.3390   4.1186   4.2194   O.2       1 RES1   0.0000
    20 O20     -0.5386   4.7107   2.0472   O.3       1 RES1   0.0000
    21 C21     -1.8040   5.3094   2.2457   C.3       1 RES1   0.0000
    22 C22     -2.0037   6.2303   1.0465   C.3       1 RES1   0.0000
    23 O23     -2.5839   5.3806   0.0408   O.3       1 RES1   0.0000
    24 C24     -3.5005   4.5061   0.7054   C.3       1 RES1   0.0000
    25 O25     -3.5410   3.2524   0.0592   O.3       1 RES1   0.0000
    26 C26     -2.5176   2.4644   0.6420   C.3       1 RES1   0.0000
    27 C27     -2.5658   2.8093   2.1170   C.3       1 RES1   0.0000
    28 C28     -2.9424   4.2962   2.1237   C.3       1 RES1   0.0000
    29 S29      6.9181   4.3067   2.9694   S.o2      1 RES1   0.0000
    30 O30      6.7051   3.2988   3.9400   O.2       1 RES1   0.0000
    31 O31      7.7623   5.3904   3.2874   O.2       1 RES1   0.0000
    32 C32      7.5816   3.5273   1.5441   C.2       1 RES1   0.0000
    33 C33      7.3194   2.1859   1.2963   C.2       1 RES1   0.0000
    34 C34      7.8234   1.5022   0.2322   C.2       1 RES1   0.0000
    35 C35      8.6522   2.0922  -0.6892   C.2       1 RES1   0.0000
    36 B36      9.1937   1.2674  -1.8447   B         1 RES1   0.0000
    37 O37      8.9103  -0.0517  -2.0407   O.3       1 RES1   0.0000
    38 O38     10.0375   1.8850  -2.6577   O.3       1 RES1   0.0000
    39 C39      8.9747   3.4639  -0.4721   C.2       1 RES1   0.0000
    40 C40      8.4392   4.1373   0.6181   C.2       1 RES1   0.0000
@<TRIPOS>BOND
     1     1     2    1
     2     2     3    1
     3     2     4    1
     4     4     5    1
     5     5     6    1
     6     6     7    1
     7     7     8    1
     8     7     9    1
     9     9    10    1
    10    10    11    1
    11    11    12    2
    12    12    13    1
    13    13    14    2
    14    14    15    1
    15    15    16    2
    16     9    17    1
    17    17    18   am
    18    18    19    2
    19    18    20    1
    20    21    20    1
    21    21    22    1
    22    22    23    1
    23    24    23    1
    24    24    25    1
    25    25    26    1
    26    26    27    1
    27    28    27    1
    28     5    29    1
    29    29    30    2
    30    29    31    2
    31    29    32    1
    32    32    33    2
    33    33    34    1
    34    34    35    2
    35    35    36    1
    36    36    37    1
    37    36    38    1
    38    35    39    1
    39    39    40    2
    40    16    11    1
    41    28    21    1
    42    40    32    1
    43    28    24    1
@<TRIPOS>SUBSTRUCTURE
     1 RES1        1 GROUP             0 ****  ****    0  
@<TRIPOS>MOLECULE
ligand_64
    40    43     1     0     0
SMALL
NO_CHARGES
****
Generated from the CSD

@<TRIPOS>ATOM
     1 C1       1.2391   3.9674  -3.7551   C.3       1 RES1   0.0000
     2 C2       1.5353   5.3274  -3.1473   C.3       1 RES1   0.0000
     3 C3       0.2833   5.8575  -2.4923   C.3       1 RES1   0.0000
     4 C4       2.6527   5.2314  -2.1208   C.2       1 RES1   0.0000
     5 N5       3.1202   6.4267  -1.4833   N.pl3     1 RES1   0.0000
     6 C6       2.9994   6.4517  -0.0670   C.2       1 RES1   0.0000
     7 C7       3.5842   5.2581   0.6765   C.3       1 RES1   0.0000
     8 O8       4.9819   5.4303   0.7842   O.3       1 RES1   0.0000
     9 C9       2.9539   5.0741   2.1097   C.3       1 RES1   0.0000
    10 C10      3.8073   4.1829   3.0456   C.3       1 RES1   0.0000
    11 C11      3.2511   4.1421   4.4006   C.2       1 RES1   0.0000
    12 C12      3.6699   5.0977   5.3452   C.2       1 RES1   0.0000
    13 C13      3.1266   5.1176   6.6266   C.2       1 RES1   0.0000
    14 C14      2.1544   4.1909   7.0120   C.2       1 RES1   0.0000
    15 C15      1.7181   3.2373   6.0821   C.2       1 RES1   0.0000
    16 C16      2.2652   3.2204   4.7922   C.2       1 RES1   0.0000
    17 N17      1.6787   4.5277   1.9296   N.am      1 RES1   0.0000
    18 C18      0.5145   5.1607   2.1436   C.2       1 RES1   0.0000
    19 O19      0.3638   6.3189   2.5311   O.2       1 RES1   0.0000
    20 O20     -0.6047   4.3878   1.8664   O.3       1 RES1   0.0000
    21 C21     -1.9135   4.9007   2.0191   C.3       1 RES1   0.0000
    22 C22     -2.1834   5.6946   0.7451   C.3       1 RES1   0.0000
    23 O23     -2.6940   4.7172  -0.1791   O.3       1 RES1   0.0000
    24 C24     -3.5399   3.8351   0.5646   C.3       1 RES1   0.0000
    25 O25     -3.4811   2.5304   0.0307   O.3       1 RES1   0.0000
    26 C26     -2.3997   1.8791   0.6744   C.3       1 RES1   0.0000
    27 C27     -2.4765   2.3470   2.1138   C.3       1 RES1   0.0000
    28 C28     -2.9686   3.7947   1.9926   C.3       1 RES1   0.0000
    29 S29      4.3091   7.2881  -2.2496   S.o2      1 RES1   0.0000
    30 O30      4.5783   8.4500  -1.4875   O.2       1 RES1   0.0000
    31 O31      3.9388   7.4320  -3.6025   O.2       1 RES1   0.0000
    32 C32      5.7506   6.2885  -2.2050   C.2       1 RES1   0.0000
    33 C33      5.9714   5.3376  -3.1931   C.2       1 RES1   0.0000
    34 C34      7.0467   4.5027  -3.2106   C.2       1 RES1   0.0000
    35 C35      8.0080   4.5288  -2.2312   C.2       1 RES1   0.0000
    36 B36      9.1745   3.5577  -2.3017   B         1 RES1   0.0000
    37 O37      9.3430   2.6365  -3.2925   O.3       1 RES1   0.0000
    38 O38     10.0285   3.5965  -1.2900   O.3       1 RES1   0.0000
    39 C39      7.8207   5.4707  -1.1774   C.2       1 RES1   0.0000
    40 C40      6.7179   6.3148  -1.1907   C.2       1 RES1   0.0000
@<TRIPOS>BOND
     1     1     2    1
     2     2     3    1
     3     2     4    1
     4     4     5    1
     5     5     6    1
     6     6     7    1
     7     7     8    1
     8     7     9    1
     9     9    10    1
    10    10    11    1
    11    11    12    2
    12    12    13    1
    13    13    14    2
    14    14    15    1
    15    15    16    2
    16     9    17    1
    17    17    18   am
    18    18    19    2
    19    18    20    1
    20    21    20    1
    21    21    22    1
    22    22    23    1
    23    24    23    1
    24    24    25    1
    25    25    26    1
    26    26    27    1
    27    28    27    1
    28     5    29    1
    29    29    30    2
    30    29    31    2
    31    29    32    1
    32    32    33    2
    33    33    34    1
    34    34    35    2
    35    35    36    1
    36    36    37    1
    37    36    38    1
    38    35    39    1
    39    39    40    2
    40    16    11    1
    41    28    21    1
    42    40    32    1
    43    28    24    1
@<TRIPOS>SUBSTRUCTURE
     1 RES1        1 GROUP             0 ****  ****    0  
@<TRIPOS>MOLECULE
ligand_65
    40    43     1     0     0
SMALL
NO_CHARGES
****
Generated from the CSD

@<TRIPOS>ATOM
     1 C1       3.6127   5.0763  -1.6037   C.3       1 RES1   0.0000
     2 C2       2.9174   4.7694  -0.2888   C.3       1 RES1   0.0000
     3 C3       3.0663   3.2987   0.0156   C.3       1 RES1   0.0000
     4 C4       3.5102   5.5925   0.8437   C.2       1 RES1   0.0000
     5 N5       2.8308   5.6372   2.1047   N.pl3     1 RES1   0.0000
     6 C6       3.5677   5.1400   3.2143   C.2       1 RES1   0.0000
     7 C7       3.6849   3.6250   3.3160   C.3       1 RES1   0.0000
     8 O8       4.7742   3.3091   4.1577   O.3       1 RES1   0.0000
     9 C9       2.3686   2.9551   3.8671   C.3       1 RES1   0.0000
    10 C10      2.3282   1.4207   3.6609   C.3       1 RES1   0.0000
    11 C11      1.1689   0.8209   4.3266   C.2       1 RES1   0.0000
    12 C12      1.2728   0.4379   5.6769   C.2       1 RES1   0.0000
    13 C13      0.1771  -0.0905   6.3534   C.2       1 RES1   0.0000
    14 C14     -1.0536  -0.2575   5.7130   C.2       1 RES1   0.0000
    15 C15     -1.1790   0.1267   4.3710   C.2       1 RES1   0.0000
    16 C16     -0.0749   0.6599   3.6926   C.2       1 RES1   0.0000
    17 N17      1.2928   3.5721   3.2199   N.am      1 RES1   0.0000
    18 C18      0.1708   4.0159   3.8083   C.2       1 RES1   0.0000
    19 O19     -0.1150   3.9436   5.0030   O.2       1 RES1   0.0000
    20 O20     -0.7178   4.6275   2.9347   O.3       1 RES1   0.0000
    21 C21     -1.9149   5.2229   3.3948   C.3       1 RES1   0.0000
    22 C22     -2.3397   6.1776   2.2838   C.3       1 RES1   0.0000
    23 O23     -3.1129   5.3577   1.3893   O.3       1 RES1   0.0000
    24 C24     -3.8873   4.4666   2.1973   C.3       1 RES1   0.0000
    25 O25     -4.0635   3.2317   1.5379   O.3       1 RES1   0.0000
    26 C26     -2.9514   2.4256   1.8862   C.3       1 RES1   0.0000
    27 C27     -2.7058   2.7290   3.3505   C.3       1 RES1   0.0000
    28 C28     -3.0626   4.2158   3.4717   C.3       1 RES1   0.0000
    29 S29      1.6710   6.8016   2.3085   S.o2      1 RES1   0.0000
    30 O30      1.1007   6.6416   3.5939   O.2       1 RES1   0.0000
    31 O31      0.8254   6.7754   1.1805   O.2       1 RES1   0.0000
    32 C32      2.5104   8.3425   2.2976   C.2       1 RES1   0.0000
    33 C33      2.9850   8.8872   3.4840   C.2       1 RES1   0.0000
    34 C34      3.6158  10.0911   3.5628   C.2       1 RES1   0.0000
    35 C35      3.8270  10.8790   2.4588   C.2       1 RES1   0.0000
    36 B36      4.5229  12.2202   2.6190   B         1 RES1   0.0000
    37 O37      4.9659  12.7138   3.8101   O.3       1 RES1   0.0000
    38 O38      4.6352  12.9543   1.5222   O.3       1 RES1   0.0000
    39 C39      3.3395  10.3801   1.2155   C.2       1 RES1   0.0000
    40 C40      2.7068   9.1447   1.1649   C.2       1 RES1   0.0000
@<TRIPOS>BOND
     1     1     2    1
     2     2     3    1
     3     2     4    1
     4     4     5    1
     5     5     6    1
     6     6     7    1
     7     7     8    1
     8     7     9    1
     9     9    10    1
    10    10    11    1
    11    11    12    2
    12    12    13    1
    13    13    14    2
    14    14    15    1
    15    15    16    2
    16     9    17    1
    17    17    18   am
    18    18    19    2
    19    18    20    1
    20    21    20    1
    21    21    22    1
    22    22    23    1
    23    24    23    1
    24    24    25    1
    25    25    26    1
    26    26    27    1
    27    28    27    1
    28     5    29    1
    29    29    30    2
    30    29    31    2
    31    29    32    1
    32    32    33    2
    33    33    34    1
    34    34    35    2
    35    35    36    1
    36    36    37    1
    37    36    38    1
    38    35    39    1
    39    39    40    2
    40    16    11    1
    41    28    21    1
    42    40    32    1
    43    28    24    1
@<TRIPOS>SUBSTRUCTURE
     1 RES1        1 GROUP             0 ****  ****    0  
@<TRIPOS>MOLECULE
ligand_66
    40    43     1     0     0
SMALL
NO_CHARGES
****
Generated from the CSD

@<TRIPOS>ATOM
     1 C1       7.9807   5.3017  -1.9444   C.3       1 RES1   0.0000
     2 C2       6.9300   4.2149  -1.7978   C.3       1 RES1   0.0000
     3 C3       7.3904   3.2216  -0.7590   C.3       1 RES1   0.0000
     4 C4       5.5910   4.8063  -1.3873   C.2       1 RES1   0.0000
     5 N5       4.4547   3.9421  -1.2615   N.pl3     1 RES1   0.0000
     6 C6       3.8522   3.9076   0.0258   C.2       1 RES1   0.0000
     7 C7       3.5842   5.2581   0.6765   C.3       1 RES1   0.0000
     8 O8       2.6862   5.9841  -0.1367   O.3       1 RES1   0.0000
     9 C9       2.9971   5.1186   2.1329   C.3       1 RES1   0.0000
    10 C10      3.8736   4.2483   3.0672   C.3       1 RES1   0.0000
    11 C11      3.3590   4.2493   4.4391   C.2       1 RES1   0.0000
    12 C12      3.8120   5.2282   5.3431   C.2       1 RES1   0.0000
    13 C13      3.3084   5.2877   6.6394   C.2       1 RES1   0.0000
    14 C14      2.3430   4.3786   7.0802   C.2       1 RES1   0.0000
    15 C15      1.8729   3.4022   6.1914   C.2       1 RES1   0.0000
    16 C16      2.3802   3.3455   4.8864   C.2       1 RES1   0.0000
    17 N17      1.7138   4.5758   2.0072   N.am      1 RES1   0.0000
    18 C18      0.5604   5.2223   2.2386   C.2       1 RES1   0.0000
    19 O19      0.4284   6.3919   2.5977   O.2       1 RES1   0.0000
    20 O20     -0.5713   4.4494   2.0176   O.3       1 RES1   0.0000
    21 C21     -1.8717   4.9751   2.1955   C.3       1 RES1   0.0000
    22 C22     -2.1760   5.7346   0.9084   C.3       1 RES1   0.0000
    23 O23     -2.7203   4.7351   0.0282   O.3       1 RES1   0.0000
    24 C24     -3.5481   3.8799   0.8220   C.3       1 RES1   0.0000
    25 O25     -3.5132   2.5604   0.3236   O.3       1 RES1   0.0000
    26 C26     -2.4164   1.9202   0.9522   C.3       1 RES1   0.0000
    27 C27     -2.4463   2.4288   2.3794   C.3       1 RES1   0.0000
    28 C28     -2.9336   3.8757   2.2325   C.3       1 RES1   0.0000
    29 S29      3.5622   3.6478  -2.6250   S.o2      1 RES1   0.0000
    30 O30      2.5463   2.7175  -2.2999   O.2       1 RES1   0.0000
    31 O31      4.4556   3.3419  -3.6722   O.2       1 RES1   0.0000
    32 C32      2.7732   5.1605  -3.0355   C.2       1 RES1   0.0000
    33 C33      1.4741   5.4079  -2.6104   C.2       1 RES1   0.0000
    34 C34      0.7831   6.5407  -2.9150   C.2       1 RES1   0.0000
    35 C35      1.3213   7.5396  -3.6874   C.2       1 RES1   0.0000
    36 B36      0.4895   8.7711  -4.0040   B         1 RES1   0.0000
    37 O37     -0.7872   8.9641  -3.5663   O.3       1 RES1   0.0000
    38 O38      1.0498   9.6635  -4.8066   O.3       1 RES1   0.0000
    39 C39      2.6457   7.3291  -4.1716   C.2       1 RES1   0.0000
    40 C40      3.3287   6.1668  -3.8378   C.2       1 RES1   0.0000
@<TRIPOS>BOND
     1     1     2    1
     2     2     3    1
     3     2     4    1
     4     4     5    1
     5     5     6    1
     6     6     7    1
     7     7     8    1
     8     7     9    1
     9     9    10    1
    10    10    11    1
    11    11    12    2
    12    12    13    1
    13    13    14    2
    14    14    15    1
    15    15    16    2
    16     9    17    1
    17    17    18   am
    18    18    19    2
    19    18    20    1
    20    21    20    1
    21    21    22    1
    22    22    23    1
    23    24    23    1
    24    24    25    1
    25    25    26    1
    26    26    27    1
    27    28    27    1
    28     5    29    1
    29    29    30    2
    30    29    31    2
    31    29    32    1
    32    32    33    2
    33    33    34    1
    34    34    35    2
    35    35    36    1
    36    36    37    1
    37    36    38    1
    38    35    39    1
    39    39    40    2
    40    16    11    1
    41    28    21    1
    42    40    32    1
    43    28    24    1
@<TRIPOS>SUBSTRUCTURE
     1 RES1        1 GROUP             0 ****  ****    0  
@<TRIPOS>MOLECULE
ligand_67
    40    43     1     0     0
SMALL
NO_CHARGES
****
Generated from the CSD

@<TRIPOS>ATOM
     1 C1       2.6782   3.4960  -4.1066   C.3       1 RES1   0.0000
     2 C2       2.3454   4.8196  -3.4402   C.3       1 RES1   0.0000
     3 C3       0.9122   4.7869  -2.9685   C.3       1 RES1   0.0000
     4 C4       3.2697   5.0816  -2.2619   C.2       1 RES1   0.0000
     5 N5       3.1557   6.3177  -1.5459   N.pl3     1 RES1   0.0000
     6 C6       2.7572   6.2023  -0.1860   C.2       1 RES1   0.0000
     7 C7       3.5842   5.2581   0.6765   C.3       1 RES1   0.0000
     8 O8       4.9217   5.7116   0.6927   O.3       1 RES1   0.0000
     9 C9       3.0350   5.1529   2.1505   C.3       1 RES1   0.0000
    10 C10      3.9055   4.2584   3.0674   C.3       1 RES1   0.0000
    11 C11      3.4316   4.2902   4.4534   C.2       1 RES1   0.0000
    12 C12      3.9467   5.2592   5.3346   C.2       1 RES1   0.0000
    13 C13      3.4836   5.3483   6.6443   C.2       1 RES1   0.0000
    14 C14      2.4986   4.4796   7.1214   C.2       1 RES1   0.0000
    15 C15      1.9669   3.5139   6.2559   C.2       1 RES1   0.0000
    16 C16      2.4335   3.4274   4.9374   C.2       1 RES1   0.0000
    17 N17      1.7294   4.6573   2.0670   N.am      1 RES1   0.0000
    18 C18      0.6080   5.3483   2.3254   C.2       1 RES1   0.0000
    19 O19      0.5299   6.5250   2.6770   O.2       1 RES1   0.0000
    20 O20     -0.5575   4.6163   2.1444   O.3       1 RES1   0.0000
    21 C21     -1.8319   5.1916   2.3548   C.3       1 RES1   0.0000
    22 C22     -2.1452   5.9510   1.0698   C.3       1 RES1   0.0000
    23 O23     -2.7516   4.9651   0.2152   O.3       1 RES1   0.0000
    24 C24     -3.5870   4.1481   1.0406   C.3       1 RES1   0.0000
    25 O25     -3.6155   2.8240   0.5541   O.3       1 RES1   0.0000
    26 C26     -2.5253   2.1487   1.1568   C.3       1 RES1   0.0000
    27 C27     -2.4947   2.6702   2.5794   C.3       1 RES1   0.0000
    28 C28     -2.9322   4.1330   2.4328   C.3       1 RES1   0.0000
    29 S29      4.0954   7.5843  -2.0509   S.o2      1 RES1   0.0000
    30 O30      5.3950   7.0938  -2.3223   O.2       1 RES1   0.0000
    31 O31      3.9445   8.6352  -1.1229   O.2       1 RES1   0.0000
    32 C32      3.4142   8.1290  -3.5735   C.2       1 RES1   0.0000
    33 C33      3.8828   7.6093  -4.7734   C.2       1 RES1   0.0000
    34 C34      3.4295   8.0038  -5.9951   C.2       1 RES1   0.0000
    35 C35      2.4648   8.9694  -6.1398   C.2       1 RES1   0.0000
    36 B36      2.0156   9.3753  -7.5334   B         1 RES1   0.0000
    37 O37      2.5126   8.8375  -8.6834   O.3       1 RES1   0.0000
    38 O38      1.1289  10.3572  -7.5980   O.3       1 RES1   0.0000
    39 C39      1.9631   9.5555  -4.9408   C.2       1 RES1   0.0000
    40 C40      2.4391   9.1270  -3.7084   C.2       1 RES1   0.0000
@<TRIPOS>BOND
     1     1     2    1
     2     2     3    1
     3     2     4    1
     4     4     5    1
     5     5     6    1
     6     6     7    1
     7     7     8    1
     8     7     9    1
     9     9    10    1
    10    10    11    1
    11    11    12    2
    12    12    13    1
    13    13    14    2
    14    14    15    1
    15    15    16    2
    16     9    17    1
    17    17    18   am
    18    18    19    2
    19    18    20    1
    20    21    20    1
    21    21    22    1
    22    22    23    1
    23    24    23    1
    24    24    25    1
    25    25    26    1
    26    26    27    1
    27    28    27    1
    28     5    29    1
    29    29    30    2
    30    29    31    2
    31    29    32    1
    32    32    33    2
    33    33    34    1
    34    34    35    2
    35    35    36    1
    36    36    37    1
    37    36    38    1
    38    35    39    1
    39    39    40    2
    40    16    11    1
    41    28    21    1
    42    40    32    1
    43    28    24    1
@<TRIPOS>SUBSTRUCTURE
     1 RES1        1 GROUP             0 ****  ****    0  
@<TRIPOS>MOLECULE
ligand_68
    40    43     1     0     0
SMALL
NO_CHARGES
****
Generated from the CSD

@<TRIPOS>ATOM
     1 C1       5.1995   9.2694  -2.9078   C.3       1 RES1   0.0000
     2 C2       4.9957   7.8433  -2.4270   C.3       1 RES1   0.0000
     3 C3       5.9522   7.5642  -1.2934   C.3       1 RES1   0.0000
     4 C4       3.5654   7.6274  -1.9590   C.2       1 RES1   0.0000
     5 N5       3.1557   6.3177  -1.5459   N.pl3     1 RES1   0.0000
     6 C6       2.7572   6.2023  -0.1860   C.2       1 RES1   0.0000
     7 C7       3.5842   5.2581   0.6765   C.3       1 RES1   0.0000
     8 O8       4.9094   5.7426   0.7385   O.3       1 RES1   0.0000
     9 C9       2.9996   5.1056   2.1326   C.3       1 RES1   0.0000
    10 C10      3.8675   4.2109   3.0517   C.3       1 RES1   0.0000
    11 C11      3.3570   4.1990   4.4251   C.2       1 RES1   0.0000
    12 C12      3.8253   5.1591   5.3414   C.2       1 RES1   0.0000
    13 C13      3.3264   5.2066   6.6400   C.2       1 RES1   0.0000
    14 C14      2.3507   4.3040   7.0710   C.2       1 RES1   0.0000
    15 C15      1.8653   3.3464   6.1700   C.2       1 RES1   0.0000
    16 C16      2.3680   3.3017   4.8627   C.2       1 RES1   0.0000
    17 N17      1.7091   4.5812   2.0033   N.am      1 RES1   0.0000
    18 C18      0.5649   5.2392   2.2474   C.2       1 RES1   0.0000
    19 O19      0.4490   6.4052   2.6234   O.2       1 RES1   0.0000
    20 O20     -0.5774   4.4843   2.0190   O.3       1 RES1   0.0000
    21 C21     -1.8704   5.0241   2.2085   C.3       1 RES1   0.0000
    22 C22     -2.1686   5.8057   0.9332   C.3       1 RES1   0.0000
    23 O23     -2.7284   4.8259   0.0406   O.3       1 RES1   0.0000
    24 C24     -3.5649   3.9703   0.8248   C.3       1 RES1   0.0000
    25 O25     -3.5486   2.6576   0.3078   O.3       1 RES1   0.0000
    26 C26     -2.4584   1.9945   0.9238   C.3       1 RES1   0.0000
    27 C27     -2.4775   2.4832   2.3582   C.3       1 RES1   0.0000
    28 C28     -2.9463   3.9382   2.2332   C.3       1 RES1   0.0000
    29 S29      2.5304   5.3109  -2.7025   S.o2      1 RES1   0.0000
    30 O30      2.8469   5.8439  -3.9749   O.2       1 RES1   0.0000
    31 O31      1.1786   5.0679  -2.3832   O.2       1 RES1   0.0000
    32 C32      3.3869   3.7872  -2.5468   C.2       1 RES1   0.0000
    33 C33      4.5541   3.5660  -3.2666   C.2       1 RES1   0.0000
    34 C34      5.2569   2.4007  -3.2254   C.2       1 RES1   0.0000
    35 C35      4.8550   1.3314  -2.4643   C.2       1 RES1   0.0000
    36 B36      5.6767   0.0534  -2.4766   B         1 RES1   0.0000
    37 O37      6.8152  -0.1160  -3.2072   O.3       1 RES1   0.0000
    38 O38      5.1946  -0.9574  -1.7694   O.3       1 RES1   0.0000
    39 C39      3.6491   1.4938  -1.7214   C.2       1 RES1   0.0000
    40 C40      2.9578   2.6971  -1.7771   C.2       1 RES1   0.0000
@<TRIPOS>BOND
     1     1     2    1
     2     2     3    1
     3     2     4    1
     4     4     5    1
     5     5     6    1
     6     6     7    1
     7     7     8    1
     8     7     9    1
     9     9    10    1
    10    10    11    1
    11    11    12    2
    12    12    13    1
    13    13    14    2
    14    14    15    1
    15    15    16    2
    16     9    17    1
    17    17    18   am
    18    18    19    2
    19    18    20    1
    20    21    20    1
    21    21    22    1
    22    22    23    1
    23    24    23    1
    24    24    25    1
    25    25    26    1
    26    26    27    1
    27    28    27    1
    28     5    29    1
    29    29    30    2
    30    29    31    2
    31    29    32    1
    32    32    33    2
    33    33    34    1
    34    34    35    2
    35    35    36    1
    36    36    37    1
    37    36    38    1
    38    35    39    1
    39    39    40    2
    40    16    11    1
    41    28    21    1
    42    40    32    1
    43    28    24    1
@<TRIPOS>SUBSTRUCTURE
     1 RES1        1 GROUP             0 ****  ****    0  
@<TRIPOS>MOLECULE
ligand_69
    40    43     1     0     0
SMALL
NO_CHARGES
****
Generated from the CSD

@<TRIPOS>ATOM
     1 C1       8.5147   4.1866   4.7125   C.3       1 RES1   0.0000
     2 C2       7.7553   4.3004   3.4021   C.3       1 RES1   0.0000
     3 C3       7.8067   2.9729   2.6861   C.3       1 RES1   0.0000
     4 C4       6.3084   4.6983   3.6461   C.2       1 RES1   0.0000
     5 N5       5.4458   4.9196   2.5233   N.pl3     1 RES1   0.0000
     6 C6       4.2970   4.0844   2.4608   C.2       1 RES1   0.0000
     7 C7       3.4932   3.9533   3.7476   C.3       1 RES1   0.0000
     8 O8       3.0082   5.2286   4.1124   O.3       1 RES1   0.0000
     9 C9       2.2919   2.9422   3.6066   C.3       1 RES1   0.0000
    10 C10      2.7246   1.5404   3.1105   C.3       1 RES1   0.0000
    11 C11      1.6010   0.6000   3.1148   C.2       1 RES1   0.0000
    12 C12      1.3480  -0.1645   4.2690   C.2       1 RES1   0.0000
    13 C13      0.2608  -1.0319   4.3243   C.2       1 RES1   0.0000
    14 C14     -0.6072  -1.1700   3.2381   C.2       1 RES1   0.0000
    15 C15     -0.3769  -0.4101   2.0831   C.2       1 RES1   0.0000
    16 C16      0.7174   0.4636   2.0306   C.2       1 RES1   0.0000
    17 N17      1.3718   3.5193   2.7248   N.am      1 RES1   0.0000
    18 C18      0.1614   3.9977   3.0533   C.2       1 RES1   0.0000
    19 O19     -0.3475   4.0136   4.1736   O.2       1 RES1   0.0000
    20 O20     -0.5401   4.5351   1.9827   O.3       1 RES1   0.0000
    21 C21     -1.8254   5.0999   2.1500   C.3       1 RES1   0.0000
    22 C22     -2.0395   5.9784   0.9217   C.3       1 RES1   0.0000
    23 O23     -2.5819   5.0817  -0.0641   O.3       1 RES1   0.0000
    24 C24     -3.4788   4.1992   0.6166   C.3       1 RES1   0.0000
    25 O25     -3.4735   2.9264   0.0078   O.3       1 RES1   0.0000
    26 C26     -2.4332   2.1881   0.6247   C.3       1 RES1   0.0000
    27 C27     -2.5087   2.5747   2.0880   C.3       1 RES1   0.0000
    28 C28     -2.9307   4.0488   2.0463   C.3       1 RES1   0.0000
    29 S29      5.4312   6.4352   1.8562   S.o2      1 RES1   0.0000
    30 O30      4.5826   6.4149   0.7237   O.2       1 RES1   0.0000
    31 O31      6.7684   6.8535   1.6973   O.2       1 RES1   0.0000
    32 C32      4.6902   7.4916   3.0453   C.2       1 RES1   0.0000
    33 C33      3.3336   7.7812   2.9726   C.2       1 RES1   0.0000
    34 C34      2.6926   8.6161   3.8361   C.2       1 RES1   0.0000
    35 C35      3.3497   9.2558   4.8574   C.2       1 RES1   0.0000
    36 B36      2.5775  10.1881   5.7757   B         1 RES1   0.0000
    37 O37      1.2436  10.4443   5.6583   O.3       1 RES1   0.0000
    38 O38      3.2881  10.8197   6.6980   O.3       1 RES1   0.0000
    39 C39      4.7505   9.0137   4.9662   C.2       1 RES1   0.0000
    40 C40      5.3755   8.1507   4.0753   C.2       1 RES1   0.0000
@<TRIPOS>BOND
     1     1     2    1
     2     2     3    1
     3     2     4    1
     4     4     5    1
     5     5     6    1
     6     6     7    1
     7     7     8    1
     8     7     9    1
     9     9    10    1
    10    10    11    1
    11    11    12    2
    12    12    13    1
    13    13    14    2
    14    14    15    1
    15    15    16    2
    16     9    17    1
    17    17    18   am
    18    18    19    2
    19    18    20    1
    20    21    20    1
    21    21    22    1
    22    22    23    1
    23    24    23    1
    24    24    25    1
    25    25    26    1
    26    26    27    1
    27    28    27    1
    28     5    29    1
    29    29    30    2
    30    29    31    2
    31    29    32    1
    32    32    33    2
    33    33    34    1
    34    34    35    2
    35    35    36    1
    36    36    37    1
    37    36    38    1
    38    35    39    1
    39    39    40    2
    40    16    11    1
    41    28    21    1
    42    40    32    1
    43    28    24    1
@<TRIPOS>SUBSTRUCTURE
     1 RES1        1 GROUP             0 ****  ****    0  
@<TRIPOS>MOLECULE
ligand_70
    40    43     1     0     0
SMALL
NO_CHARGES
****
Generated from the CSD

@<TRIPOS>ATOM
     1 C1       6.2364   4.1700   8.1507   C.3       1 RES1   0.0000
     2 C2       5.2506   5.0004   7.3474   C.3       1 RES1   0.0000
     3 C3       5.9978   5.7425   6.2663   C.3       1 RES1   0.0000
     4 C4       4.1813   4.1188   6.7222   C.2       1 RES1   0.0000
     5 N5       3.1096   4.7307   5.9936   N.pl3     1 RES1   0.0000
     6 C6       3.0433   4.4017   4.6121   C.2       1 RES1   0.0000
     7 C7       3.1957   5.5630   3.6387   C.3       1 RES1   0.0000
     8 O8       4.4792   6.1288   3.8039   O.3       1 RES1   0.0000
     9 C9       2.9924   5.1219   2.1390   C.3       1 RES1   0.0000
    10 C10      3.2103   6.2728   1.1258   C.3       1 RES1   0.0000
    11 C11      3.1359   5.7915  -0.2561   C.2       1 RES1   0.0000
    12 C12      4.3090   5.3466  -0.8937   C.2       1 RES1   0.0000
    13 C13      4.2664   4.8384  -2.1889   C.2       1 RES1   0.0000
    14 C14      3.0617   4.7575  -2.8923   C.2       1 RES1   0.0000
    15 C15      1.8815   5.1872  -2.2705   C.2       1 RES1   0.0000
    16 C16      1.9268   5.6968  -0.9659   C.2       1 RES1   0.0000
    17 N17      1.6955   4.6075   2.0353   N.am      1 RES1   0.0000
    18 C18      0.5602   5.2833   2.2720   C.2       1 RES1   0.0000
    19 O19      0.4591   6.4629   2.6077   O.2       1 RES1   0.0000
    20 O20     -0.5912   4.5303   2.0871   O.3       1 RES1   0.0000
    21 C21     -1.8770   5.0875   2.2755   C.3       1 RES1   0.0000
    22 C22     -2.1875   5.8255   0.9775   C.3       1 RES1   0.0000
    23 O23     -2.7679   4.8193   0.1286   O.3       1 RES1   0.0000
    24 C24     -3.5997   3.9993   0.9547   C.3       1 RES1   0.0000
    25 O25     -3.6013   2.6689   0.4848   O.3       1 RES1   0.0000
    26 C26     -2.5074   2.0190   1.1085   C.3       1 RES1   0.0000
    27 C27     -2.5018   2.5586   2.5246   C.3       1 RES1   0.0000
    28 C28     -2.9609   4.0122   2.3544   C.3       1 RES1   0.0000
    29 S29      1.7427   5.1340   6.8371   S.o2      1 RES1   0.0000
    30 O30      0.8684   5.8245   5.9642   O.2       1 RES1   0.0000
    31 O31      2.1404   5.7591   8.0369   O.2       1 RES1   0.0000
    32 C32      0.9637   3.6219   7.2681   C.2       1 RES1   0.0000
    33 C33      0.0296   3.0498   6.4140   C.2       1 RES1   0.0000
    34 C34     -0.6411   1.8979   6.6915   C.2       1 RES1   0.0000
    35 C35     -0.4511   1.2053   7.8612   C.2       1 RES1   0.0000
    36 B36     -1.2447  -0.0651   8.1158   B         1 RES1   0.0000
    37 O37     -2.1571  -0.5835   7.2454   O.3       1 RES1   0.0000
    38 O38     -1.0568  -0.6451   9.2917   O.3       1 RES1   0.0000
    39 C39      0.4806   1.7593   8.7872   C.2       1 RES1   0.0000
    40 C40      1.1557   2.9318   8.4731   C.2       1 RES1   0.0000
@<TRIPOS>BOND
     1     1     2    1
     2     2     3    1
     3     2     4    1
     4     4     5    1
     5     5     6    1
     6     6     7    1
     7     7     8    1
     8     7     9    1
     9     9    10    1
    10    10    11    1
    11    11    12    2
    12    12    13    1
    13    13    14    2
    14    14    15    1
    15    15    16    2
    16     9    17    1
    17    17    18   am
    18    18    19    2
    19    18    20    1
    20    21    20    1
    21    21    22    1
    22    22    23    1
    23    24    23    1
    24    24    25    1
    25    25    26    1
    26    26    27    1
    27    28    27    1
    28     5    29    1
    29    29    30    2
    30    29    31    2
    31    29    32    1
    32    32    33    2
    33    33    34    1
    34    34    35    2
    35    35    36    1
    36    36    37    1
    37    36    38    1
    38    35    39    1
    39    39    40    2
    40    16    11    1
    41    28    21    1
    42    40    32    1
    43    28    24    1
@<TRIPOS>SUBSTRUCTURE
     1 RES1        1 GROUP             0 ****  ****    0  
@<TRIPOS>MOLECULE
ligand_71
    40    43     1     0     0
SMALL
NO_CHARGES
****
Generated from the CSD

@<TRIPOS>ATOM
     1 C1       5.4567   8.0803   1.3152   C.3       1 RES1   0.0000
     2 C2       4.5953   7.9595   2.5603   C.3       1 RES1   0.0000
     3 C3       3.1540   8.2078   2.1880   C.3       1 RES1   0.0000
     4 C4       4.7357   6.5810   3.1858   C.2       1 RES1   0.0000
     5 N5       4.0505   6.2971   4.4120   N.pl3     1 RES1   0.0000
     6 C6       3.0526   5.2874   4.3353   C.2       1 RES1   0.0000
     7 C7       3.4932   3.9533   3.7476   C.3       1 RES1   0.0000
     8 O8       4.5307   3.4251   4.5472   O.3       1 RES1   0.0000
     9 C9       2.3088   2.9174   3.6517   C.3       1 RES1   0.0000
    10 C10      2.7497   1.5277   3.1291   C.3       1 RES1   0.0000
    11 C11      1.6475   0.5634   3.1755   C.2       1 RES1   0.0000
    12 C12      1.4604  -0.2123   4.3348   C.2       1 RES1   0.0000
    13 C13      0.3952  -1.1032   4.4310   C.2       1 RES1   0.0000
    14 C14     -0.5153  -1.2544   3.3818   C.2       1 RES1   0.0000
    15 C15     -0.3507  -0.4837   2.2228   C.2       1 RES1   0.0000
    16 C16      0.7215   0.4136   2.1290   C.2       1 RES1   0.0000
    17 N17      1.3398   3.4791   2.8134   N.am      1 RES1   0.0000
    18 C18      0.1347   3.9296   3.1960   C.2       1 RES1   0.0000
    19 O19     -0.3262   3.9287   4.3370   O.2       1 RES1   0.0000
    20 O20     -0.6232   4.4573   2.1596   O.3       1 RES1   0.0000
    21 C21     -1.9119   4.9936   2.3848   C.3       1 RES1   0.0000
    22 C22     -2.1968   5.8735   1.1721   C.3       1 RES1   0.0000
    23 O23     -2.7617   4.9706   0.2048   O.3       1 RES1   0.0000
    24 C24     -3.6098   4.0655   0.9178   C.3       1 RES1   0.0000
    25 O25     -3.6035   2.7963   0.3017   O.3       1 RES1   0.0000
    26 C26     -2.5224   2.0772   0.8692   C.3       1 RES1   0.0000
    27 C27     -2.5435   2.4547   2.3368   C.3       1 RES1   0.0000
    28 C28     -2.9981   3.9195   2.3220   C.3       1 RES1   0.0000
    29 S29      4.8628   6.5826   5.8266   S.o2      1 RES1   0.0000
    30 O30      6.1878   6.1064   5.6829   O.2       1 RES1   0.0000
    31 O31      4.0744   6.0918   6.8877   O.2       1 RES1   0.0000
    32 C32      4.9506   8.3263   6.0030   C.2       1 RES1   0.0000
    33 C33      6.0453   9.0236   5.5080   C.2       1 RES1   0.0000
    34 C34      6.2025  10.3700   5.6342   C.2       1 RES1   0.0000
    35 C35      5.2810  11.1560   6.2801   C.2       1 RES1   0.0000
    36 B36      5.5258  12.6507   6.4004   B         1 RES1   0.0000
    37 O37      6.6228  13.2880   5.9010   O.3       1 RES1   0.0000
    38 O38      4.6271  13.3357   7.0913   O.3       1 RES1   0.0000
    39 C39      4.1466  10.4897   6.8294   C.2       1 RES1   0.0000
    40 C40      4.0095   9.1159   6.6780   C.2       1 RES1   0.0000
@<TRIPOS>BOND
     1     1     2    1
     2     2     3    1
     3     2     4    1
     4     4     5    1
     5     5     6    1
     6     6     7    1
     7     7     8    1
     8     7     9    1
     9     9    10    1
    10    10    11    1
    11    11    12    2
    12    12    13    1
    13    13    14    2
    14    14    15    1
    15    15    16    2
    16     9    17    1
    17    17    18   am
    18    18    19    2
    19    18    20    1
    20    21    20    1
    21    21    22    1
    22    22    23    1
    23    24    23    1
    24    24    25    1
    25    25    26    1
    26    26    27    1
    27    28    27    1
    28     5    29    1
    29    29    30    2
    30    29    31    2
    31    29    32    1
    32    32    33    2
    33    33    34    1
    34    34    35    2
    35    35    36    1
    36    36    37    1
    37    36    38    1
    38    35    39    1
    39    39    40    2
    40    16    11    1
    41    28    21    1
    42    40    32    1
    43    28    24    1
@<TRIPOS>SUBSTRUCTURE
     1 RES1        1 GROUP             0 ****  ****    0  
@<TRIPOS>MOLECULE
ligand_72
    40    43     1     0     0
SMALL
NO_CHARGES
****
Generated from the CSD

@<TRIPOS>ATOM
     1 C1       5.9128   7.1888   7.6495   C.3       1 RES1   0.0000
     2 C2       5.7640   6.5489   6.2802   C.3       1 RES1   0.0000
     3 C3       6.0546   5.0722   6.3923   C.3       1 RES1   0.0000
     4 C4       4.3609   6.7578   5.7331   C.2       1 RES1   0.0000
     5 N5       4.0505   6.2971   4.4120   N.pl3     1 RES1   0.0000
     6 C6       3.0526   5.2874   4.3353   C.2       1 RES1   0.0000
     7 C7       3.4932   3.9533   3.7476   C.3       1 RES1   0.0000
     8 O8       4.4914   3.3984   4.5785   O.3       1 RES1   0.0000
     9 C9       2.2966   2.9384   3.5948   C.3       1 RES1   0.0000
    10 C10      2.7342   1.5480   3.0715   C.3       1 RES1   0.0000
    11 C11      1.6156   0.6016   3.0647   C.2       1 RES1   0.0000
    12 C12      1.3728  -0.1847   4.2064   C.2       1 RES1   0.0000
    13 C13      0.2905  -1.0588   4.2518   C.2       1 RES1   0.0000
    14 C14     -0.5825  -1.1823   3.1677   C.2       1 RES1   0.0000
    15 C15     -0.3623  -0.4006   2.0254   C.2       1 RES1   0.0000
    16 C16      0.7270   0.4798   1.9828   C.2       1 RES1   0.0000
    17 N17      1.3688   3.5262   2.7282   N.am      1 RES1   0.0000
    18 C18      0.1576   3.9921   3.0715   C.2       1 RES1   0.0000
    19 O19     -0.3454   3.9851   4.1945   O.2       1 RES1   0.0000
    20 O20     -0.5524   4.5446   2.0144   O.3       1 RES1   0.0000
    21 C21     -1.8398   5.0994   2.1984   C.3       1 RES1   0.0000
    22 C22     -2.0650   5.9986   0.9872   C.3       1 RES1   0.0000
    23 O23     -2.6077   5.1170  -0.0118   O.3       1 RES1   0.0000
    24 C24     -3.4964   4.2175   0.6575   C.3       1 RES1   0.0000
    25 O25     -3.4875   2.9559   0.0258   O.3       1 RES1   0.0000
    26 C26     -2.4400   2.2122   0.6239   C.3       1 RES1   0.0000
    27 C27     -2.5100   2.5721   2.0944   C.3       1 RES1   0.0000
    28 C28     -2.9400   4.0443   2.0814   C.3       1 RES1   0.0000
    29 S29      4.2901   7.3515   3.1577   S.o2      1 RES1   0.0000
    30 O30      5.0974   8.4179   3.6206   O.2       1 RES1   0.0000
    31 O31      3.0331   7.6458   2.5906   O.2       1 RES1   0.0000
    32 C32      5.2180   6.4801   1.9498   C.2       1 RES1   0.0000
    33 C33      6.6064   6.5102   1.9808   C.2       1 RES1   0.0000
    34 C34      7.3955   5.8886   1.0618   C.2       1 RES1   0.0000
    35 C35      6.8723   5.1798   0.0093   C.2       1 RES1   0.0000
    36 B36      7.8096   4.5239  -0.9907   B         1 RES1   0.0000
    37 O37      9.1695   4.5882  -0.9191   O.3       1 RES1   0.0000
    38 O38      7.2348   3.9115  -2.0148   O.3       1 RES1   0.0000
    39 C39      5.4505   5.1344  -0.0861   C.2       1 RES1   0.0000
    40 C40      4.6713   5.7718   0.8708   C.2       1 RES1   0.0000
@<TRIPOS>BOND
     1     1     2    1
     2     2     3    1
     3     2     4    1
     4     4     5    1
     5     5     6    1
     6     6     7    1
     7     7     8    1
     8     7     9    1
     9     9    10    1
    10    10    11    1
    11    11    12    2
    12    12    13    1
    13    13    14    2
    14    14    15    1
    15    15    16    2
    16     9    17    1
    17    17    18   am
    18    18    19    2
    19    18    20    1
    20    21    20    1
    21    21    22    1
    22    22    23    1
    23    24    23    1
    24    24    25    1
    25    25    26    1
    26    26    27    1
    27    28    27    1
    28     5    29    1
    29    29    30    2
    30    29    31    2
    31    29    32    1
    32    32    33    2
    33    33    34    1
    34    34    35    2
    35    35    36    1
    36    36    37    1
    37    36    38    1
    38    35    39    1
    39    39    40    2
    40    16    11    1
    41    28    21    1
    42    40    32    1
    43    28    24    1
@<TRIPOS>SUBSTRUCTURE
     1 RES1        1 GROUP             0 ****  ****    0  
@<TRIPOS>MOLECULE
ligand_73
    40    43     1     0     0
SMALL
NO_CHARGES
****
Generated from the CSD

@<TRIPOS>ATOM
     1 C1      16.7349   3.5846   6.0961   C.3       1 RES1   0.0000
     2 C2      15.3019   3.9681   5.7703   C.3       1 RES1   0.0000
     3 C3      14.9334   3.3972   4.4227   C.3       1 RES1   0.0000
     4 C4      14.3457   3.4451   6.8303   C.2       1 RES1   0.0000
     5 N5      12.9496   3.7505   6.7236   N.pl3     1 RES1   0.0000
     6 C6      12.0860   2.6281   6.5976   C.2       1 RES1   0.0000
     7 C7      12.2408   1.8029   5.3271   C.3       1 RES1   0.0000
     8 O8      13.3819   0.9806   5.4556   O.3       1 RES1   0.0000
     9 C9      10.9719   0.9172   5.0263   C.3       1 RES1   0.0000
    10 C10     11.0123   0.2397   3.6342   C.3       1 RES1   0.0000
    11 C11      9.8791  -0.6702   3.4480   C.2       1 RES1   0.0000
    12 C12     10.0100  -2.0189   3.8283   C.2       1 RES1   0.0000
    13 C13      8.9383  -2.8993   3.7098   C.2       1 RES1   0.0000
    14 C14      7.7057  -2.4714   3.2095   C.2       1 RES1   0.0000
    15 C15      7.5534  -1.1297   2.8341   C.2       1 RES1   0.0000
    16 C16      8.6333  -0.2451   2.9559   C.2       1 RES1   0.0000
    17 N17      9.8540   1.7504   5.1413   N.am      1 RES1   0.0000
    18 C18      9.0394   1.8309   6.2052   C.2       1 RES1   0.0000
    19 O19      9.1300   1.1947   7.2547   O.2       1 RES1   0.0000
    20 O20      8.0152   2.7565   6.0602   O.3       1 RES1   0.0000
    21 C21      7.0745   2.9848   7.0896   C.3       1 RES1   0.0000
    22 C22      7.5775   3.8478   8.2470   C.3       1 RES1   0.0000
    23 O23      6.3838   4.2308   8.9472   O.3       1 RES1   0.0000
    24 C24      5.3578   4.4244   7.9903   C.3       1 RES1   0.0000
    25 O25      5.1612   5.7999   7.7431   O.3       1 RES1   0.0000
    26 C26      6.0685   6.1589   6.7156   C.3       1 RES1   0.0000
    27 C27      6.0550   4.9863   5.7568   C.3       1 RES1   0.0000
    28 C28      5.8178   3.7762   6.6682   C.3       1 RES1   0.0000
    29 S29     12.4185   5.1570   7.4178   S.o2      1 RES1   0.0000
    30 O30     11.0520   5.3267   7.0903   O.2       1 RES1   0.0000
    31 O31     13.3306   6.1789   7.0830   O.2       1 RES1   0.0000
    32 C32     12.5139   4.9183   9.1536   C.2       1 RES1   0.0000
    33 C33     11.4288   4.3978   9.8472   C.2       1 RES1   0.0000
    34 C34     11.4129   4.2140  11.1961   C.2       1 RES1   0.0000
    35 C35     12.4822   4.5436  11.9911   C.2       1 RES1   0.0000
    36 B36     12.3926   4.3284  13.4926   B         1 RES1   0.0000
    37 O37     11.2992   3.8182  14.1275   O.3       1 RES1   0.0000
    38 O38     13.4365   4.7283  14.2030   O.3       1 RES1   0.0000
    39 C39     13.6168   5.1046  11.3350   C.2       1 RES1   0.0000
    40 C40     13.6069   5.2730   9.9565   C.2       1 RES1   0.0000
@<TRIPOS>BOND
     1     1     2    1
     2     2     3    1
     3     2     4    1
     4     4     5    1
     5     5     6    1
     6     6     7    1
     7     7     8    1
     8     7     9    1
     9     9    10    1
    10    10    11    1
    11    11    12    2
    12    12    13    1
    13    13    14    2
    14    14    15    1
    15    15    16    2
    16     9    17    1
    17    17    18   am
    18    18    19    2
    19    18    20    1
    20    21    20    1
    21    21    22    1
    22    22    23    1
    23    24    23    1
    24    24    25    1
    25    25    26    1
    26    26    27    1
    27    28    27    1
    28     5    29    1
    29    29    30    2
    30    29    31    2
    31    29    32    1
    32    32    33    2
    33    33    34    1
    34    34    35    2
    35    35    36    1
    36    36    37    1
    37    36    38    1
    38    35    39    1
    39    39    40    2
    40    16    11    1
    41    28    21    1
    42    40    32    1
    43    28    24    1
@<TRIPOS>SUBSTRUCTURE
     1 RES1        1 GROUP             0 ****  ****    0  
@<TRIPOS>MOLECULE
ligand_74
    40    43     1     0     0
SMALL
NO_CHARGES
****
Generated from the CSD

@<TRIPOS>ATOM
     1 C1       9.7097   5.4721   1.6645   C.3       1 RES1   0.0000
     2 C2       9.7680   4.4745   2.8082   C.3       1 RES1   0.0000
     3 C3       9.8012   3.0764   2.2411   C.3       1 RES1   0.0000
     4 C4      10.9972   4.7097   3.6714   C.2       1 RES1   0.0000
     5 N5      11.1026   4.0401   4.9341   N.pl3     1 RES1   0.0000
     6 C6      12.2142   3.1643   5.0709   C.2       1 RES1   0.0000
     7 C7      12.0899   1.8115   4.3826   C.3       1 RES1   0.0000
     8 O8      13.3796   1.2534   4.2412   O.3       1 RES1   0.0000
     9 C9      11.1582   0.8165   5.1746   C.3       1 RES1   0.0000
    10 C10     10.7536  -0.4318   4.3520   C.3       1 RES1   0.0000
    11 C11      9.9954  -1.3864   5.1649   C.2       1 RES1   0.0000
    12 C12     10.6857  -2.3884   5.8722   C.2       1 RES1   0.0000
    13 C13     10.0011  -3.2815   6.6915   C.2       1 RES1   0.0000
    14 C14      8.6128  -3.2110   6.8334   C.2       1 RES1   0.0000
    15 C15      7.9090  -2.2141   6.1440   C.2       1 RES1   0.0000
    16 C16      8.6006  -1.3150   5.3212   C.2       1 RES1   0.0000
    17 N17     10.0275   1.5398   5.5689   N.am      1 RES1   0.0000
    18 C18      9.4484   1.4956   6.7790   C.2       1 RES1   0.0000
    19 O19      9.8138   0.8323   7.7491   O.2       1 RES1   0.0000
    20 O20      8.3351   2.3160   6.8997   O.3       1 RES1   0.0000
    21 C21      7.6139   2.4092   8.1114   C.3       1 RES1   0.0000
    22 C22      8.2588   3.2886   9.1829   C.3       1 RES1   0.0000
    23 O23      7.2066   3.5170  10.1330   O.3       1 RES1   0.0000
    24 C24      5.9878   3.6239   9.4194   C.3       1 RES1   0.0000
    25 O25      5.6046   4.9759   9.2891   O.3       1 RES1   0.0000
    26 C26      6.2339   5.4624   8.1164   C.3       1 RES1   0.0000
    27 C27      6.1383   4.3237   7.1221   C.3       1 RES1   0.0000
    28 C28      6.2229   3.0689   7.9994   C.3       1 RES1   0.0000
    29 S29     10.4450   4.7906   6.2557   S.o2      1 RES1   0.0000
    30 O30     10.6124   3.9439   7.3775   O.2       1 RES1   0.0000
    31 O31      9.1455   5.2166   5.9124   O.2       1 RES1   0.0000
    32 C32     11.4097   6.2289   6.5383   C.2       1 RES1   0.0000
    33 C33     12.5208   6.1718   7.3700   C.2       1 RES1   0.0000
    34 C34     13.2993   7.2491   7.6647   C.2       1 RES1   0.0000
    35 C35     13.0369   8.4995   7.1628   C.2       1 RES1   0.0000
    36 B36     13.9361   9.6630   7.5452   B         1 RES1   0.0000
    37 O37     15.0144   9.5556   8.3726   O.3       1 RES1   0.0000
    38 O38     13.5854  10.8508   7.0754   O.3       1 RES1   0.0000
    39 C39     11.8932   8.6224   6.3205   C.2       1 RES1   0.0000
    40 C40     11.1224   7.5038   6.0313   C.2       1 RES1   0.0000
@<TRIPOS>BOND
     1     1     2    1
     2     2     3    1
     3     2     4    1
     4     4     5    1
     5     5     6    1
     6     6     7    1
     7     7     8    1
     8     7     9    1
     9     9    10    1
    10    10    11    1
    11    11    12    2
    12    12    13    1
    13    13    14    2
    14    14    15    1
    15    15    16    2
    16     9    17    1
    17    17    18   am
    18    18    19    2
    19    18    20    1
    20    21    20    1
    21    21    22    1
    22    22    23    1
    23    24    23    1
    24    24    25    1
    25    25    26    1
    26    26    27    1
    27    28    27    1
    28     5    29    1
    29    29    30    2
    30    29    31    2
    31    29    32    1
    32    32    33    2
    33    33    34    1
    34    34    35    2
    35    35    36    1
    36    36    37    1
    37    36    38    1
    38    35    39    1
    39    39    40    2
    40    16    11    1
    41    28    21    1
    42    40    32    1
    43    28    24    1
@<TRIPOS>SUBSTRUCTURE
     1 RES1        1 GROUP             0 ****  ****    0  
@<TRIPOS>MOLECULE
ligand_75
    40    43     1     0     0
SMALL
NO_CHARGES
****
Generated from the CSD

@<TRIPOS>ATOM
     1 C1      15.4256   5.2177   3.3605   C.3       1 RES1   0.0000
     2 C2      14.9384   3.8300   2.9817   C.3       1 RES1   0.0000
     3 C3      15.1343   2.9017   4.1553   C.3       1 RES1   0.0000
     4 C4      13.4704   3.8591   2.5873   C.2       1 RES1   0.0000
     5 N5      12.8402   2.6484   2.1505   N.pl3     1 RES1   0.0000
     6 C6      11.7524   2.2024   2.9499   C.2       1 RES1   0.0000
     7 C7      12.0899   1.8115   4.3826   C.3       1 RES1   0.0000
     8 O8      12.1842   2.9845   5.1634   O.3       1 RES1   0.0000
     9 C9      11.0217   0.8349   5.0075   C.3       1 RES1   0.0000
    10 C10     10.7906  -0.4430   4.1637   C.3       1 RES1   0.0000
    11 C11      9.9090  -1.3884   4.8534   C.2       1 RES1   0.0000
    12 C12     10.4711  -2.3575   5.7053   C.2       1 RES1   0.0000
    13 C13      9.6600  -3.2399   6.4129   C.2       1 RES1   0.0000
    14 C14      8.2683  -3.1910   6.2969   C.2       1 RES1   0.0000
    15 C15      7.6896  -2.2267   5.4605   C.2       1 RES1   0.0000
    16 C16      8.5083  -1.3384   4.7504   C.2       1 RES1   0.0000
    17 N17      9.8339   1.5609   5.1456   N.am      1 RES1   0.0000
    18 C18      9.0654   1.6096   6.2451   C.2       1 RES1   0.0000
    19 O19      9.2664   1.0321   7.3130   O.2       1 RES1   0.0000
    20 O20      7.9496   2.4251   6.1153   O.3       1 RES1   0.0000
    21 C21      7.0395   2.6071   7.1809   C.3       1 RES1   0.0000
    22 C22      7.5083   3.5648   8.2766   C.3       1 RES1   0.0000
    23 O23      6.3164   3.8617   9.0202   O.3       1 RES1   0.0000
    24 C24      5.2332   3.9132   8.1091   C.3       1 RES1   0.0000
    25 O25      4.8912   5.2512   7.8180   O.3       1 RES1   0.0000
    26 C26      5.7105   5.6500   6.7328   C.3       1 RES1   0.0000
    27 C27      5.7679   4.4404   5.8230   C.3       1 RES1   0.0000
    28 C28      5.6931   3.2545   6.7923   C.3       1 RES1   0.0000
    29 S29     12.9114   2.2879   0.5358   S.o2      1 RES1   0.0000
    30 O30     12.3459   1.0052   0.3407   O.2       1 RES1   0.0000
    31 O31     14.2296   2.5250   0.0947   O.2       1 RES1   0.0000
    32 C32     11.8720   3.4458  -0.2755   C.2       1 RES1   0.0000
    33 C33     10.5272   3.1585  -0.4722   C.2       1 RES1   0.0000
    34 C34      9.6650   3.9890  -1.1206   C.2       1 RES1   0.0000
    35 C35     10.0658   5.1910  -1.6485   C.2       1 RES1   0.0000
    36 B36      9.0557   6.0630  -2.3752   B         1 RES1   0.0000
    37 O37      7.7444   5.7321  -2.5473   O.3       1 RES1   0.0000
    38 O38      9.5271   7.1776  -2.9136   O.3       1 RES1   0.0000
    39 C39     11.4427   5.5278  -1.4965   C.2       1 RES1   0.0000
    40 C40     12.2970   4.6641  -0.8233   C.2       1 RES1   0.0000
@<TRIPOS>BOND
     1     1     2    1
     2     2     3    1
     3     2     4    1
     4     4     5    1
     5     5     6    1
     6     6     7    1
     7     7     8    1
     8     7     9    1
     9     9    10    1
    10    10    11    1
    11    11    12    2
    12    12    13    1
    13    13    14    2
    14    14    15    1
    15    15    16    2
    16     9    17    1
    17    17    18   am
    18    18    19    2
    19    18    20    1
    20    21    20    1
    21    21    22    1
    22    22    23    1
    23    24    23    1
    24    24    25    1
    25    25    26    1
    26    26    27    1
    27    28    27    1
    28     5    29    1
    29    29    30    2
    30    29    31    2
    31    29    32    1
    32    32    33    2
    33    33    34    1
    34    34    35    2
    35    35    36    1
    36    36    37    1
    37    36    38    1
    38    35    39    1
    39    39    40    2
    40    16    11    1
    41    28    21    1
    42    40    32    1
    43    28    24    1
@<TRIPOS>SUBSTRUCTURE
     1 RES1        1 GROUP             0 ****  ****    0  
@<TRIPOS>MOLECULE
ligand_76
    40    43     1     0     0
SMALL
NO_CHARGES
****
Generated from the CSD

@<TRIPOS>ATOM
     1 C1      15.2924   0.4742   6.1903   C.3       1 RES1   0.0000
     2 C2      14.0887  -0.2999   5.6818   C.3       1 RES1   0.0000
     3 C3      12.9650  -0.1756   6.6815   C.3       1 RES1   0.0000
     4 C4      13.6360   0.2274   4.3296   C.2       1 RES1   0.0000
     5 N5      12.5499  -0.4201   3.6553   N.pl3     1 RES1   0.0000
     6 C6      11.3762   0.3654   3.4917   C.2       1 RES1   0.0000
     7 C7      10.0524  -0.3534   3.7151   C.3       1 RES1   0.0000
     8 O8      10.0190  -0.8431   5.0394   O.3       1 RES1   0.0000
     9 C9       8.8091   0.5808   3.4566   C.3       1 RES1   0.0000
    10 C10      8.8379   1.2712   2.0706   C.3       1 RES1   0.0000
    11 C11      7.6073   2.0269   1.8227   C.2       1 RES1   0.0000
    12 C12      6.5200   1.3861   1.1998   C.2       1 RES1   0.0000
    13 C13      5.3199   2.0601   0.9927   C.2       1 RES1   0.0000
    14 C14      5.1608   3.3891   1.3939   C.2       1 RES1   0.0000
    15 C15      6.2294   4.0412   2.0242   C.2       1 RES1   0.0000
    16 C16      7.4360   3.3600   2.2331   C.2       1 RES1   0.0000
    17 N17      8.7889   1.5298   4.4843   N.am      1 RES1   0.0000
    18 C18      7.8879   1.5946   5.4772   C.2       1 RES1   0.0000
    19 O19      6.9322   0.8407   5.6577   O.2       1 RES1   0.0000
    20 O20      8.1152   2.6278   6.3759   O.3       1 RES1   0.0000
    21 C21      7.2745   2.8337   7.4929   C.3       1 RES1   0.0000
    22 C22      7.8660   3.7121   8.5956   C.3       1 RES1   0.0000
    23 O23      6.7373   4.0652   9.4099   O.3       1 RES1   0.0000
    24 C24      5.6174   4.2298   8.5585   C.3       1 RES1   0.0000
    25 O25      5.3615   5.5992   8.3324   O.3       1 RES1   0.0000
    26 C26      6.1537   5.9795   7.2208   C.3       1 RES1   0.0000
    27 C27      6.0768   4.8049   6.2676   C.3       1 RES1   0.0000
    28 C28      5.9622   3.5909   7.1974   C.3       1 RES1   0.0000
    29 S29     12.9245  -1.6216   2.5789   S.o2      1 RES1   0.0000
    30 O30     11.7174  -2.2034   2.1233   O.2       1 RES1   0.0000
    31 O31     13.8978  -2.4506   3.1736   O.2       1 RES1   0.0000
    32 C32     13.6772  -0.8352   1.2026   C.2       1 RES1   0.0000
    33 C33     12.8998  -0.3955   0.1388   C.2       1 RES1   0.0000
    34 C34     13.4112   0.1928  -0.9775   C.2       1 RES1   0.0000
    35 C35     14.7587   0.3919  -1.1464   C.2       1 RES1   0.0000
    36 B36     15.2649   1.0394  -2.4244   B         1 RES1   0.0000
    37 O37     14.4587   1.4491  -3.4446   O.3       1 RES1   0.0000
    38 O38     16.5799   1.1413  -2.5460   O.3       1 RES1   0.0000
    39 C39     15.6080  -0.0615  -0.0949   C.2       1 RES1   0.0000
    40 C40     15.0568  -0.6511   1.0354   C.2       1 RES1   0.0000
@<TRIPOS>BOND
     1     1     2    1
     2     2     3    1
     3     2     4    1
     4     4     5    1
     5     5     6    1
     6     6     7    1
     7     7     8    1
     8     7     9    1
     9     9    10    1
    10    10    11    1
    11    11    12    2
    12    12    13    1
    13    13    14    2
    14    14    15    1
    15    15    16    2
    16     9    17    1
    17    17    18   am
    18    18    19    2
    19    18    20    1
    20    21    20    1
    21    21    22    1
    22    22    23    1
    23    24    23    1
    24    24    25    1
    25    25    26    1
    26    26    27    1
    27    28    27    1
    28     5    29    1
    29    29    30    2
    30    29    31    2
    31    29    32    1
    32    32    33    2
    33    33    34    1
    34    34    35    2
    35    35    36    1
    36    36    37    1
    37    36    38    1
    38    35    39    1
    39    39    40    2
    40    16    11    1
    41    28    21    1
    42    40    32    1
    43    28    24    1
@<TRIPOS>SUBSTRUCTURE
     1 RES1        1 GROUP             0 ****  ****    0  
@<TRIPOS>MOLECULE
ligand_77
    40    43     1     0     0
SMALL
NO_CHARGES
****
Generated from the CSD

@<TRIPOS>ATOM
     1 C1       6.0933   7.2234  -3.6523   C.3       1 RES1   0.0000
     2 C2       5.7410   6.0580  -2.7444   C.3       1 RES1   0.0000
     3 C3       6.5205   6.1824  -1.4581   C.3       1 RES1   0.0000
     4 C4       4.2509   6.0355  -2.4435   C.2       1 RES1   0.0000
     5 N5       3.7102   4.9559  -1.6715   N.pl3     1 RES1   0.0000
     6 C6       3.1290   5.3248  -0.4276   C.2       1 RES1   0.0000
     7 C7       3.7799   4.7358   0.8169   C.3       1 RES1   0.0000
     8 O8       5.1210   5.1744   0.8791   O.3       1 RES1   0.0000
     9 C9       3.0219   5.1368   2.1397   C.3       1 RES1   0.0000
    10 C10      3.7172   4.6240   3.4250   C.3       1 RES1   0.0000
    11 C11      3.0514   5.1244   4.6305   C.2       1 RES1   0.0000
    12 C12      3.4721   6.3441   5.1928   C.2       1 RES1   0.0000
    13 C13      2.8303   6.8722   6.3093   C.2       1 RES1   0.0000
    14 C14      1.7544   6.2078   6.9039   C.2       1 RES1   0.0000
    15 C15      1.3152   4.9963   6.3526   C.2       1 RES1   0.0000
    16 C16      1.9619   4.4676   5.2276   C.2       1 RES1   0.0000
    17 N17      1.7236   4.6255   2.0392   N.am      1 RES1   0.0000
    18 C18      0.5914   5.2978   2.2999   C.2       1 RES1   0.0000
    19 O19      0.4945   6.4725   2.6536   O.2       1 RES1   0.0000
    20 O20     -0.5623   4.5473   2.1190   O.3       1 RES1   0.0000
    21 C21     -1.8454   5.0994   2.3384   C.3       1 RES1   0.0000
    22 C22     -2.1800   5.8558   1.0570   C.3       1 RES1   0.0000
    23 O23     -2.7740   4.8611   0.2040   O.3       1 RES1   0.0000
    24 C24     -3.5897   4.0276   1.0327   C.3       1 RES1   0.0000
    25 O25     -3.5978   2.7043   0.5434   O.3       1 RES1   0.0000
    26 C26     -2.4920   2.0472   1.1380   C.3       1 RES1   0.0000
    27 C27     -2.4620   2.5661   2.5616   C.3       1 RES1   0.0000
    28 C28     -2.9262   4.0212   2.4208   C.3       1 RES1   0.0000
    29 S29      3.1828   3.6174  -2.4917   S.o2      1 RES1   0.0000
    30 O30      3.4110   2.4800  -1.6809   O.2       1 RES1   0.0000
    31 O31      3.7397   3.6532  -3.7866   O.2       1 RES1   0.0000
    32 C32      1.4457   3.7960  -2.6640   C.2       1 RES1   0.0000
    33 C33      0.9173   4.4446  -3.7729   C.2       1 RES1   0.0000
    34 C34     -0.4148   4.6519  -3.9625   C.2       1 RES1   0.0000
    35 C35     -1.3555   4.2380  -3.0526   C.2       1 RES1   0.0000
    36 B36     -2.8257   4.5161  -3.3175   B         1 RES1   0.0000
    37 O37     -3.2935   5.1692  -4.4190   O.3       1 RES1   0.0000
    38 O38     -3.6709   4.1397  -2.3697   O.3       1 RES1   0.0000
    39 C39     -0.8683   3.5860  -1.8821   C.2       1 RES1   0.0000
    40 C40      0.4959   3.3817  -1.7200   C.2       1 RES1   0.0000
@<TRIPOS>BOND
     1     1     2    1
     2     2     3    1
     3     2     4    1
     4     4     5    1
     5     5     6    1
     6     6     7    1
     7     7     8    1
     8     7     9    1
     9     9    10    1
    10    10    11    1
    11    11    12    2
    12    12    13    1
    13    13    14    2
    14    14    15    1
    15    15    16    2
    16     9    17    1
    17    17    18   am
    18    18    19    2
    19    18    20    1
    20    21    20    1
    21    21    22    1
    22    22    23    1
    23    24    23    1
    24    24    25    1
    25    25    26    1
    26    26    27    1
    27    28    27    1
    28     5    29    1
    29    29    30    2
    30    29    31    2
    31    29    32    1
    32    32    33    2
    33    33    34    1
    34    34    35    2
    35    35    36    1
    36    36    37    1
    37    36    38    1
    38    35    39    1
    39    39    40    2
    40    16    11    1
    41    28    21    1
    42    40    32    1
    43    28    24    1
@<TRIPOS>SUBSTRUCTURE
     1 RES1        1 GROUP             0 ****  ****    0  
@<TRIPOS>MOLECULE
ligand_78
    40    43     1     0     0
SMALL
NO_CHARGES
****
Generated from the CSD

@<TRIPOS>ATOM
     1 C1      16.0165   3.5755   2.1359   C.3       1 RES1   0.0000
     2 C2      14.5888   3.9012   2.5383   C.3       1 RES1   0.0000
     3 C3      13.6483   2.9666   1.8174   C.3       1 RES1   0.0000
     4 C4      14.4030   3.7610   4.0407   C.2       1 RES1   0.0000
     5 N5      13.1292   4.0719   4.6192   N.pl3     1 RES1   0.0000
     6 C6      12.4717   2.9907   5.2673   C.2       1 RES1   0.0000
     7 C7      12.0899   1.8115   4.3826   C.3       1 RES1   0.0000
     8 O8      13.2249   0.9897   4.2061   O.3       1 RES1   0.0000
     9 C9      10.9035   0.9662   4.9852   C.3       1 RES1   0.0000
    10 C10     10.5525  -0.2857   4.1437   C.3       1 RES1   0.0000
    11 C11      9.5342  -1.1068   4.8038   C.2       1 RES1   0.0000
    12 C12      9.9381  -2.1251   5.6873   C.2       1 RES1   0.0000
    13 C13      8.9966  -2.8921   6.3677   C.2       1 RES1   0.0000
    14 C14      7.6274  -2.6754   6.1923   C.2       1 RES1   0.0000
    15 C15      7.2059  -1.6596   5.3234   C.2       1 RES1   0.0000
    16 C16      8.1557  -0.8878   4.6409   C.2       1 RES1   0.0000
    17 N17      9.8012   1.8216   5.0870   N.am      1 RES1   0.0000
    18 C18      9.0150   1.9661   6.1654   C.2       1 RES1   0.0000
    19 O19      9.1226   1.3797   7.2419   O.2       1 RES1   0.0000
    20 O20      8.0012   2.8999   6.0008   O.3       1 RES1   0.0000
    21 C21      7.0902   3.1923   7.0407   C.3       1 RES1   0.0000
    22 C22      7.6349   4.1019   8.1423   C.3       1 RES1   0.0000
    23 O23      6.4650   4.5370   8.8521   O.3       1 RES1   0.0000
    24 C24      5.4181   4.7007   7.9123   C.3       1 RES1   0.0000
    25 O25      5.2356   6.0657   7.6037   O.3       1 RES1   0.0000
    26 C26      6.1220   6.3604   6.5381   C.3       1 RES1   0.0000
    27 C27      6.0670   5.1434   5.6379   C.3       1 RES1   0.0000
    28 C28      5.8351   3.9824   6.6124   C.3       1 RES1   0.0000
    29 S29     12.8670   5.6353   5.0982   S.o2      1 RES1   0.0000
    30 O30     14.0304   6.1000   5.7569   O.2       1 RES1   0.0000
    31 O31     11.6342   5.6802   5.7811   O.2       1 RES1   0.0000
    32 C32     12.6864   6.5786   3.6296   C.2       1 RES1   0.0000
    33 C33     13.7893   7.2029   3.0610   C.2       1 RES1   0.0000
    34 C34     13.7253   7.9776   1.9433   C.2       1 RES1   0.0000
    35 C35     12.5443   8.2146   1.2851   C.2       1 RES1   0.0000
    36 B36     12.5400   9.1028   0.0524   B         1 RES1   0.0000
    37 O37     13.6522   9.6989  -0.4638   O.3       1 RES1   0.0000
    38 O38     11.3562   9.3389  -0.4929   O.3       1 RES1   0.0000
    39 C39     11.3740   7.6170   1.8382   C.2       1 RES1   0.0000
    40 C40     11.4716   6.8253   2.9751   C.2       1 RES1   0.0000
@<TRIPOS>BOND
     1     1     2    1
     2     2     3    1
     3     2     4    1
     4     4     5    1
     5     5     6    1
     6     6     7    1
     7     7     8    1
     8     7     9    1
     9     9    10    1
    10    10    11    1
    11    11    12    2
    12    12    13    1
    13    13    14    2
    14    14    15    1
    15    15    16    2
    16     9    17    1
    17    17    18   am
    18    18    19    2
    19    18    20    1
    20    21    20    1
    21    21    22    1
    22    22    23    1
    23    24    23    1
    24    24    25    1
    25    25    26    1
    26    26    27    1
    27    28    27    1
    28     5    29    1
    29    29    30    2
    30    29    31    2
    31    29    32    1
    32    32    33    2
    33    33    34    1
    34    34    35    2
    35    35    36    1
    36    36    37    1
    37    36    38    1
    38    35    39    1
    39    39    40    2
    40    16    11    1
    41    28    21    1
    42    40    32    1
    43    28    24    1
@<TRIPOS>SUBSTRUCTURE
     1 RES1        1 GROUP             0 ****  ****    0  
@<TRIPOS>MOLECULE
ligand_79
    40    43     1     0     0
SMALL
NO_CHARGES
****
Generated from the CSD

@<TRIPOS>ATOM
     1 C1       9.9712  -5.6703   6.7327   C.3       1 RES1   0.0000
     2 C2      10.5062  -4.4647   5.9797   C.3       1 RES1   0.0000
     3 C3      10.2121  -4.6322   4.5090   C.3       1 RES1   0.0000
     4 C4       9.8710  -3.1809   6.4892   C.2       1 RES1   0.0000
     5 N5      10.2979  -1.9261   5.9442   N.pl3     1 RES1   0.0000
     6 C6       9.3135  -1.2133   5.2065   C.2       1 RES1   0.0000
     7 C7       9.7854  -0.5656   3.9114   C.3       1 RES1   0.0000
     8 O8       9.9696  -1.5740   2.9399   O.3       1 RES1   0.0000
     9 C9       8.7725   0.5172   3.3761   C.3       1 RES1   0.0000
    10 C10      9.1673   1.0976   1.9956   C.3       1 RES1   0.0000
    11 C11      8.1370   2.0031   1.4804   C.2       1 RES1   0.0000
    12 C12      7.1004   1.4832   0.6831   C.2       1 RES1   0.0000
    13 C13      6.0794   2.3065   0.2170   C.2       1 RES1   0.0000
    14 C14      6.0552   3.6694   0.5245   C.2       1 RES1   0.0000
    15 C15      7.0741   4.2037   1.3250   C.2       1 RES1   0.0000
    16 C16      8.0999   3.3724   1.7943   C.2       1 RES1   0.0000
    17 N17      8.7066   1.5289   4.3401   N.am      1 RES1   0.0000
    18 C18      7.7569   1.6589   5.2798   C.2       1 RES1   0.0000
    19 O19      6.8032   0.9063   5.4753   O.2       1 RES1   0.0000
    20 O20      7.9262   2.7655   6.1007   O.3       1 RES1   0.0000
    21 C21      7.0235   3.0524   7.1493   C.3       1 RES1   0.0000
    22 C22      7.5387   4.0420   8.1948   C.3       1 RES1   0.0000
    23 O23      6.3617   4.4410   8.9140   O.3       1 RES1   0.0000
    24 C24      5.2857   4.5001   7.9949   C.3       1 RES1   0.0000
    25 O25      5.0160   5.8365   7.6301   O.3       1 RES1   0.0000
    26 C26      5.8588   6.1324   6.5301   C.3       1 RES1   0.0000
    27 C27      5.8551   4.8740   5.6870   C.3       1 RES1   0.0000
    28 C28      5.7146   3.7478   6.7182   C.3       1 RES1   0.0000
    29 S29     11.5159  -1.1250   6.7297   S.o2      1 RES1   0.0000
    30 O30     11.8129   0.0540   6.0052   O.2       1 RES1   0.0000
    31 O31     12.5516  -2.0479   6.9822   O.2       1 RES1   0.0000
    32 C32     10.8631  -0.6333   8.2825   C.2       1 RES1   0.0000
    33 C33     10.2386   0.6000   8.4182   C.2       1 RES1   0.0000
    34 C34      9.7368   1.0667   9.5946   C.2       1 RES1   0.0000
    35 C35      9.8190   0.3473  10.7607   C.2       1 RES1   0.0000
    36 B36      9.2533   0.9339  12.0432   B         1 RES1   0.0000
    37 O37      8.6534   2.1555  12.1251   O.3       1 RES1   0.0000
    38 O38      9.4251   0.2125  13.1406   O.3       1 RES1   0.0000
    39 C39     10.4716  -0.9180  10.6858   C.2       1 RES1   0.0000
    40 C40     10.9667  -1.3713   9.4699   C.2       1 RES1   0.0000
@<TRIPOS>BOND
     1     1     2    1
     2     2     3    1
     3     2     4    1
     4     4     5    1
     5     5     6    1
     6     6     7    1
     7     7     8    1
     8     7     9    1
     9     9    10    1
    10    10    11    1
    11    11    12    2
    12    12    13    1
    13    13    14    2
    14    14    15    1
    15    15    16    2
    16     9    17    1
    17    17    18   am
    18    18    19    2
    19    18    20    1
    20    21    20    1
    21    21    22    1
    22    22    23    1
    23    24    23    1
    24    24    25    1
    25    25    26    1
    26    26    27    1
    27    28    27    1
    28     5    29    1
    29    29    30    2
    30    29    31    2
    31    29    32    1
    32    32    33    2
    33    33    34    1
    34    34    35    2
    35    35    36    1
    36    36    37    1
    37    36    38    1
    38    35    39    1
    39    39    40    2
    40    16    11    1
    41    28    21    1
    42    40    32    1
    43    28    24    1
@<TRIPOS>SUBSTRUCTURE
     1 RES1        1 GROUP             0 ****  ****    0  
@<TRIPOS>MOLECULE
ligand_80
    40    43     1     0     0
SMALL
NO_CHARGES
****
Generated from the CSD

@<TRIPOS>ATOM
     1 C1      17.3991   2.7413   4.2907   C.3       1 RES1   0.0000
     2 C2      16.0580   2.5442   3.6057   C.3       1 RES1   0.0000
     3 C3      15.6985   1.0788   3.6391   C.3       1 RES1   0.0000
     4 C4      14.9725   3.3567   4.2935   C.2       1 RES1   0.0000
     5 N5      13.6538   3.3767   3.7329   N.pl3     1 RES1   0.0000
     6 C6      12.6334   2.8179   4.5501   C.2       1 RES1   0.0000
     7 C7      11.8877   1.6243   3.9683   C.3       1 RES1   0.0000
     8 O8      12.8293   0.7136   3.4404   O.3       1 RES1   0.0000
     9 C9      10.9821   0.9012   5.0371   C.3       1 RES1   0.0000
    10 C10     10.5730  -0.5344   4.6245   C.3       1 RES1   0.0000
    11 C11      9.8506  -1.2162   5.7015   C.2       1 RES1   0.0000
    12 C12     10.5768  -1.9327   6.6710   C.2       1 RES1   0.0000
    13 C13      9.9261  -2.5519   7.7343   C.2       1 RES1   0.0000
    14 C14      8.5370  -2.4821   7.8687   C.2       1 RES1   0.0000
    15 C15      7.7975  -1.7653   6.9181   C.2       1 RES1   0.0000
    16 C16      8.4551  -1.1414   5.8494   C.2       1 RES1   0.0000
    17 N17      9.8526   1.7044   5.2280   N.am      1 RES1   0.0000
    18 C18      9.1534   1.8198   6.3680   C.2       1 RES1   0.0000
    19 O19      9.3797   1.2488   7.4344   O.2       1 RES1   0.0000
    20 O20      8.0845   2.7015   6.2849   O.3       1 RES1   0.0000
    21 C21      7.2505   2.9582   7.3964   C.3       1 RES1   0.0000
    22 C22      7.8401   3.9029   8.4440   C.3       1 RES1   0.0000
    23 O23      6.7137   4.2866   9.2477   O.3       1 RES1   0.0000
    24 C24      5.5849   4.3907   8.3986   C.3       1 RES1   0.0000
    25 O25      5.3100   5.7425   8.1001   O.3       1 RES1   0.0000
    26 C26      6.0883   6.0707   6.9623   C.3       1 RES1   0.0000
    27 C27      6.0183   4.8447   6.0756   C.3       1 RES1   0.0000
    28 C28      5.9265   3.6823   7.0715   C.3       1 RES1   0.0000
    29 S29     13.3064   4.5677   2.6360   S.o2      1 RES1   0.0000
    30 O30     12.0072   4.3364   2.1243   O.2       1 RES1   0.0000
    31 O31     14.3870   4.6577   1.7346   O.2       1 RES1   0.0000
    32 C32     13.2519   6.0711   3.5393   C.2       1 RES1   0.0000
    33 C33     14.4039   6.8300   3.7016   C.2       1 RES1   0.0000
    34 C34     14.4503   7.9886   4.4151   C.2       1 RES1   0.0000
    35 C35     13.3460   8.5011   5.0491   C.2       1 RES1   0.0000
    36 B36     13.4704   9.7905   5.8433   B         1 RES1   0.0000
    37 O37     14.6290  10.4965   5.9774   O.3       1 RES1   0.0000
    38 O38     12.3805  10.1911   6.4806   O.3       1 RES1   0.0000
    39 C39     12.1391   7.7508   4.9359   C.2       1 RES1   0.0000
    40 C40     12.1204   6.5763   4.1948   C.2       1 RES1   0.0000
@<TRIPOS>BOND
     1     1     2    1
     2     2     3    1
     3     2     4    1
     4     4     5    1
     5     5     6    1
     6     6     7    1
     7     7     8    1
     8     7     9    1
     9     9    10    1
    10    10    11    1
    11    11    12    2
    12    12    13    1
    13    13    14    2
    14    14    15    1
    15    15    16    2
    16     9    17    1
    17    17    18   am
    18    18    19    2
    19    18    20    1
    20    21    20    1
    21    21    22    1
    22    22    23    1
    23    24    23    1
    24    24    25    1
    25    25    26    1
    26    26    27    1
    27    28    27    1
    28     5    29    1
    29    29    30    2
    30    29    31    2
    31    29    32    1
    32    32    33    2
    33    33    34    1
    34    34    35    2
    35    35    36    1
    36    36    37    1
    37    36    38    1
    38    35    39    1
    39    39    40    2
    40    16    11    1
    41    28    21    1
    42    40    32    1
    43    28    24    1
@<TRIPOS>SUBSTRUCTURE
     1 RES1        1 GROUP             0 ****  ****    0  
@<TRIPOS>MOLECULE
ligand_81
    40    43     1     0     0
SMALL
NO_CHARGES
****
Generated from the CSD

@<TRIPOS>ATOM
     1 C1       6.2760  -0.9815  -0.9568   C.3       1 RES1   0.0000
     2 C2       7.6006  -0.6960  -0.2710   C.3       1 RES1   0.0000
     3 C3       8.0000   0.7331  -0.5466   C.3       1 RES1   0.0000
     4 C4       7.4948  -0.9211   1.2289   C.2       1 RES1   0.0000
     5 N5       8.6682  -0.7844   2.0403   N.pl3     1 RES1   0.0000
     6 C6       8.6236   0.2547   3.0096   C.2       1 RES1   0.0000
     7 C7       9.6682   1.3532   2.8627   C.3       1 RES1   0.0000
     8 O8       9.4636   2.0129   1.6308   O.3       1 RES1   0.0000
     9 C9       9.6165   2.3949   4.0447   C.3       1 RES1   0.0000
    10 C10     10.6181   3.5642   3.8766   C.3       1 RES1   0.0000
    11 C11     10.4486   4.5703   4.9282   C.2       1 RES1   0.0000
    12 C12      9.5559   5.6384   4.7211   C.2       1 RES1   0.0000
    13 C13      9.3350   6.5850   5.7174   C.2       1 RES1   0.0000
    14 C14      9.9926   6.5038   6.9476   C.2       1 RES1   0.0000
    15 C15     10.8785   5.4420   7.1759   C.2       1 RES1   0.0000
    16 C16     11.0979   4.4894   6.1719   C.2       1 RES1   0.0000
    17 N17      9.8709   1.6884   5.2251   N.am      1 RES1   0.0000
    18 C18      9.1689   1.7835   6.3653   C.2       1 RES1   0.0000
    19 O19      9.3684   1.1636   7.4095   O.2       1 RES1   0.0000
    20 O20      8.1318   2.7046   6.3116   O.3       1 RES1   0.0000
    21 C21      7.3002   2.9466   7.4282   C.3       1 RES1   0.0000
    22 C22      7.9156   3.8284   8.5151   C.3       1 RES1   0.0000
    23 O23      6.7982   4.2195   9.3276   O.3       1 RES1   0.0000
    24 C24      5.6791   4.3962   8.4777   C.3       1 RES1   0.0000
    25 O25      5.4532   5.7674   8.2312   O.3       1 RES1   0.0000
    26 C26      6.2497   6.1124   7.1111   C.3       1 RES1   0.0000
    27 C27      6.1427   4.9253   6.1765   C.3       1 RES1   0.0000
    28 C28      6.0042   3.7288   7.1255   C.3       1 RES1   0.0000
    29 S29      9.5895  -2.1380   2.2880   S.o2      1 RES1   0.0000
    30 O30     10.7488  -1.7618   3.0076   O.2       1 RES1   0.0000
    31 O31      9.7404  -2.7943   1.0492   O.2       1 RES1   0.0000
    32 C32      8.6487  -3.1928   3.3279   C.2       1 RES1   0.0000
    33 C33      8.7682  -3.0993   4.7086   C.2       1 RES1   0.0000
    34 C34      8.0985  -3.9025   5.5804   C.2       1 RES1   0.0000
    35 C35      7.2461  -4.8911   5.1559   C.2       1 RES1   0.0000
    36 B36      6.5426  -5.7638   6.1817   B         1 RES1   0.0000
    37 O37      6.6988  -5.6352   7.5300   O.3       1 RES1   0.0000
    38 O38      5.7857  -6.7376   5.6989   O.3       1 RES1   0.0000
    39 C39      7.1021  -5.0484   3.7463   C.2       1 RES1   0.0000
    40 C40      7.7922  -4.2088   2.8815   C.2       1 RES1   0.0000
@<TRIPOS>BOND
     1     1     2    1
     2     2     3    1
     3     2     4    1
     4     4     5    1
     5     5     6    1
     6     6     7    1
     7     7     8    1
     8     7     9    1
     9     9    10    1
    10    10    11    1
    11    11    12    2
    12    12    13    1
    13    13    14    2
    14    14    15    1
    15    15    16    2
    16     9    17    1
    17    17    18   am
    18    18    19    2
    19    18    20    1
    20    21    20    1
    21    21    22    1
    22    22    23    1
    23    24    23    1
    24    24    25    1
    25    25    26    1
    26    26    27    1
    27    28    27    1
    28     5    29    1
    29    29    30    2
    30    29    31    2
    31    29    32    1
    32    32    33    2
    33    33    34    1
    34    34    35    2
    35    35    36    1
    36    36    37    1
    37    36    38    1
    38    35    39    1
    39    39    40    2
    40    16    11    1
    41    28    21    1
    42    40    32    1
    43    28    24    1
@<TRIPOS>SUBSTRUCTURE
     1 RES1        1 GROUP             0 ****  ****    0  
@<TRIPOS>MOLECULE
ligand_82
    40    43     1     0     0
SMALL
NO_CHARGES
****
Generated from the CSD

@<TRIPOS>ATOM
     1 C1       9.0890   7.3535  -0.5185   C.3       1 RES1   0.0000
     2 C2       9.4374   5.9040  -0.2284   C.3       1 RES1   0.0000
     3 C3      10.7480   5.8522   0.5181   C.3       1 RES1   0.0000
     4 C4       8.3478   5.2386   0.5971   C.2       1 RES1   0.0000
     5 N5       8.4557   3.8422   0.9007   N.pl3     1 RES1   0.0000
     6 C6       8.5723   3.5238   2.2814   C.2       1 RES1   0.0000
     7 C7       9.8531   2.8138   2.6994   C.3       1 RES1   0.0000
     8 O8      10.9498   3.6656   2.4414   O.3       1 RES1   0.0000
     9 C9       9.8422   2.3982   4.2200   C.3       1 RES1   0.0000
    10 C10     11.1658   1.7436   4.6869   C.3       1 RES1   0.0000
    11 C11     11.1582   1.4896   6.1299   C.2       1 RES1   0.0000
    12 C12     11.6346   2.4827   7.0059   C.2       1 RES1   0.0000
    13 C13     11.5973   2.2935   8.3844   C.2       1 RES1   0.0000
    14 C14     11.0892   1.1149   8.9369   C.2       1 RES1   0.0000
    15 C15     10.6017   0.1181   8.0808   C.2       1 RES1   0.0000
    16 C16     10.6388   0.3116   6.6934   C.2       1 RES1   0.0000
    17 N17      8.7652   1.5231   4.3979   N.am      1 RES1   0.0000
    18 C18      7.8562   1.5852   5.3837   C.2       1 RES1   0.0000
    19 O19      6.8962   0.8338   5.5516   O.2       1 RES1   0.0000
    20 O20      8.0798   2.6120   6.2906   O.3       1 RES1   0.0000
    21 C21      7.2306   2.8142   7.4018   C.3       1 RES1   0.0000
    22 C22      7.8161   3.6837   8.5147   C.3       1 RES1   0.0000
    23 O23      6.6819   4.0361   9.3217   O.3       1 RES1   0.0000
    24 C24      5.5698   4.2100   8.4621   C.3       1 RES1   0.0000
    25 O25      5.3208   5.5817   8.2423   O.3       1 RES1   0.0000
    26 C26      6.1237   5.9658   7.1396   C.3       1 RES1   0.0000
    27 C27      6.0504   4.7973   6.1786   C.3       1 RES1   0.0000
    28 C28      5.9236   3.5782   7.1000   C.3       1 RES1   0.0000
    29 S29      7.7719   2.7726  -0.1627   S.o2      1 RES1   0.0000
    30 O30      8.0923   1.4599   0.2585   O.2       1 RES1   0.0000
    31 O31      8.1223   3.1731  -1.4685   O.2       1 RES1   0.0000
    32 C32      6.0345   2.9620  -0.0057   C.2       1 RES1   0.0000
    33 C33      5.3290   2.1953   0.9129   C.2       1 RES1   0.0000
    34 C34      3.9783   2.2601   1.0710   C.2       1 RES1   0.0000
    35 C35      3.1933   3.0948   0.3153   C.2       1 RES1   0.0000
    36 B36      1.6892   3.1059   0.5310   B         1 RES1   0.0000
    37 O37      1.0425   2.3272   1.4444   O.3       1 RES1   0.0000
    38 O38      0.9894   3.8880  -0.2770   O.3       1 RES1   0.0000
    39 C39      3.8619   3.8896  -0.6612   C.2       1 RES1   0.0000
    40 C40      5.2420   3.8078  -0.7942   C.2       1 RES1   0.0000
@<TRIPOS>BOND
     1     1     2    1
     2     2     3    1
     3     2     4    1
     4     4     5    1
     5     5     6    1
     6     6     7    1
     7     7     8    1
     8     7     9    1
     9     9    10    1
    10    10    11    1
    11    11    12    2
    12    12    13    1
    13    13    14    2
    14    14    15    1
    15    15    16    2
    16     9    17    1
    17    17    18   am
    18    18    19    2
    19    18    20    1
    20    21    20    1
    21    21    22    1
    22    22    23    1
    23    24    23    1
    24    24    25    1
    25    25    26    1
    26    26    27    1
    27    28    27    1
    28     5    29    1
    29    29    30    2
    30    29    31    2
    31    29    32    1
    32    32    33    2
    33    33    34    1
    34    34    35    2
    35    35    36    1
    36    36    37    1
    37    36    38    1
    38    35    39    1
    39    39    40    2
    40    16    11    1
    41    28    21    1
    42    40    32    1
    43    28    24    1
@<TRIPOS>SUBSTRUCTURE
     1 RES1        1 GROUP             0 ****  ****    0  
@<TRIPOS>MOLECULE
ligand_83
    40    43     1     0     0
SMALL
NO_CHARGES
****
Generated from the CSD

@<TRIPOS>ATOM
     1 C1       5.6344   1.9784  -2.5254   C.3       1 RES1   0.0000
     2 C2       5.4970   1.5070  -1.0882   C.3       1 RES1   0.0000
     3 C3       6.1436   0.1503  -0.9508   C.3       1 RES1   0.0000
     4 C4       6.1517   2.4892  -0.1300   C.2       1 RES1   0.0000
     5 N5       6.0505   2.2612   1.2812   N.pl3     1 RES1   0.0000
     6 C6       7.2832   2.0447   1.9557   C.2       1 RES1   0.0000
     7 C7       7.4589   0.6802   2.6088   C.3       1 RES1   0.0000
     8 O8       7.4300  -0.3117   1.6038   O.3       1 RES1   0.0000
     9 C9       8.8006   0.5740   3.4296   C.3       1 RES1   0.0000
    10 C10      9.0648  -0.8441   3.9931   C.3       1 RES1   0.0000
    11 C11     10.3776  -0.9284   4.6383   C.2       1 RES1   0.0000
    12 C12     11.4983  -1.2989   3.8719   C.2       1 RES1   0.0000
    13 C13     12.7676  -1.3423   4.4417   C.2       1 RES1   0.0000
    14 C14     12.9650  -1.0225   5.7875   C.2       1 RES1   0.0000
    15 C15     11.8623  -0.6423   6.5645   C.2       1 RES1   0.0000
    16 C16     10.5858  -0.5977   5.9882   C.2       1 RES1   0.0000
    17 N17      8.7239   1.5134   4.4635   N.am      1 RES1   0.0000
    18 C18      7.8237   1.5151   5.4592   C.2       1 RES1   0.0000
    19 O19      6.9122   0.7066   5.6323   O.2       1 RES1   0.0000
    20 O20      7.9954   2.5481   6.3704   O.3       1 RES1   0.0000
    21 C21      7.1653   2.6763   7.5068   C.3       1 RES1   0.0000
    22 C22      7.7200   3.5700   8.6164   C.3       1 RES1   0.0000
    23 O23      6.5869   3.8322   9.4586   O.3       1 RES1   0.0000
    24 C24      5.4420   3.9394   8.6317   C.3       1 RES1   0.0000
    25 O25      5.0927   5.2932   8.4389   O.3       1 RES1   0.0000
    26 C26      5.8362   5.7464   7.3210   C.3       1 RES1   0.0000
    27 C27      5.8174   4.5881   6.3451   C.3       1 RES1   0.0000
    28 C28      5.8008   3.3514   7.2515   C.3       1 RES1   0.0000
    29 S29      4.7542   2.9218   2.0722   S.o2      1 RES1   0.0000
    30 O30      4.8009   2.5091   3.4253   O.2       1 RES1   0.0000
    31 O31      3.5964   2.6462   1.3160   O.2       1 RES1   0.0000
    32 C32      4.9937   4.6600   2.0478   C.2       1 RES1   0.0000
    33 C33      4.4747   5.4215   1.0085   C.2       1 RES1   0.0000
    34 C34      4.6454   6.7680   0.9010   C.2       1 RES1   0.0000
    35 C35      5.3644   7.4892   1.8212   C.2       1 RES1   0.0000
    36 B36      5.5308   8.9877   1.6327   B         1 RES1   0.0000
    37 O37      5.0049   9.6896   0.5888   O.3       1 RES1   0.0000
    38 O38      6.2898   9.6075   2.5238   O.3       1 RES1   0.0000
    39 C39      5.9408   6.7550   2.8988   C.2       1 RES1   0.0000
    40 C40      5.7429   5.3831   2.9864   C.2       1 RES1   0.0000
@<TRIPOS>BOND
     1     1     2    1
     2     2     3    1
     3     2     4    1
     4     4     5    1
     5     5     6    1
     6     6     7    1
     7     7     8    1
     8     7     9    1
     9     9    10    1
    10    10    11    1
    11    11    12    2
    12    12    13    1
    13    13    14    2
    14    14    15    1
    15    15    16    2
    16     9    17    1
    17    17    18   am
    18    18    19    2
    19    18    20    1
    20    21    20    1
    21    21    22    1
    22    22    23    1
    23    24    23    1
    24    24    25    1
    25    25    26    1
    26    26    27    1
    27    28    27    1
    28     5    29    1
    29    29    30    2
    30    29    31    2
    31    29    32    1
    32    32    33    2
    33    33    34    1
    34    34    35    2
    35    35    36    1
    36    36    37    1
    37    36    38    1
    38    35    39    1
    39    39    40    2
    40    16    11    1
    41    28    21    1
    42    40    32    1
    43    28    24    1
@<TRIPOS>SUBSTRUCTURE
     1 RES1        1 GROUP             0 ****  ****    0  
@<TRIPOS>MOLECULE
ligand_84
    40    43     1     0     0
SMALL
NO_CHARGES
****
Generated from the CSD

@<TRIPOS>ATOM
     1 C1      16.4336  -0.0609   0.8833   C.3       1 RES1   0.0000
     2 C2      15.3671   0.8825   1.4116   C.3       1 RES1   0.0000
     3 C3      14.0181   0.4345   0.9046   C.3       1 RES1   0.0000
     4 C4      15.3653   0.9029   2.9318   C.2       1 RES1   0.0000
     5 N5      14.4689   1.7861   3.6176   N.pl3     1 RES1   0.0000
     6 C6      13.4626   1.1521   4.3965   C.2       1 RES1   0.0000
     7 C7      12.0899   1.8115   4.3826   C.3       1 RES1   0.0000
     8 O8      11.7633   2.1528   3.0516   O.3       1 RES1   0.0000
     9 C9      10.9698   0.8825   4.9889   C.3       1 RES1   0.0000
    10 C10     10.6352  -0.3382   4.0964   C.3       1 RES1   0.0000
    11 C11      9.6845  -1.2383   4.7542   C.2       1 RES1   0.0000
    12 C12     10.1718  -2.2822   5.5626   C.2       1 RES1   0.0000
    13 C13      9.2964  -3.1259   6.2402   C.2       1 RES1   0.0000
    14 C14      7.9125  -2.9630   6.1362   C.2       1 RES1   0.0000
    15 C15      7.4084  -1.9232   5.3431   C.2       1 RES1   0.0000
    16 C16      8.2918  -1.0741   4.6632   C.2       1 RES1   0.0000
    17 N17      9.8374   1.6803   5.1848   N.am      1 RES1   0.0000
    18 C18      9.0957   1.7320   6.3024   C.2       1 RES1   0.0000
    19 O19      9.2775   1.0954   7.3397   O.2       1 RES1   0.0000
    20 O20      8.0360   2.6259   6.2329   O.3       1 RES1   0.0000
    21 C21      7.1616   2.8216   7.3256   C.3       1 RES1   0.0000
    22 C22      7.7162   3.6959   8.4505   C.3       1 RES1   0.0000
    23 O23      6.5622   4.0393   9.2329   O.3       1 RES1   0.0000
    24 C24      5.4674   4.2043   8.3495   C.3       1 RES1   0.0000
    25 O25      5.2123   5.5739   8.1239   O.3       1 RES1   0.0000
    26 C26      6.0356   5.9642   7.0387   C.3       1 RES1   0.0000
    27 C27      5.9922   4.7950   6.0767   C.3       1 RES1   0.0000
    28 C28      5.8554   3.5750   6.9956   C.3       1 RES1   0.0000
    29 S29     15.0352   3.2888   4.0221   S.o2      1 RES1   0.0000
    30 O30     13.9621   4.0390   4.5596   O.2       1 RES1   0.0000
    31 O31     15.7363   3.8029   2.9120   O.2       1 RES1   0.0000
    32 C32     16.2009   3.0473   5.3112   C.2       1 RES1   0.0000
    33 C33     15.7881   3.0625   6.6374   C.2       1 RES1   0.0000
    34 C34     16.6349   2.9159   7.6933   C.2       1 RES1   0.0000
    35 C35     17.9872   2.7487   7.5278   C.2       1 RES1   0.0000
    36 B36     18.8788   2.6076   8.7500   B         1 RES1   0.0000
    37 O37     18.4240   2.6354  10.0349   O.3       1 RES1   0.0000
    38 O38     20.1792   2.5141   8.5163   O.3       1 RES1   0.0000
    39 C39     18.4712   2.7484   6.1867   C.2       1 RES1   0.0000
    40 C40     17.5822   2.8922   5.1294   C.2       1 RES1   0.0000
@<TRIPOS>BOND
     1     1     2    1
     2     2     3    1
     3     2     4    1
     4     4     5    1
     5     5     6    1
     6     6     7    1
     7     7     8    1
     8     7     9    1
     9     9    10    1
    10    10    11    1
    11    11    12    2
    12    12    13    1
    13    13    14    2
    14    14    15    1
    15    15    16    2
    16     9    17    1
    17    17    18   am
    18    18    19    2
    19    18    20    1
    20    21    20    1
    21    21    22    1
    22    22    23    1
    23    24    23    1
    24    24    25    1
    25    25    26    1
    26    26    27    1
    27    28    27    1
    28     5    29    1
    29    29    30    2
    30    29    31    2
    31    29    32    1
    32    32    33    2
    33    33    34    1
    34    34    35    2
    35    35    36    1
    36    36    37    1
    37    36    38    1
    38    35    39    1
    39    39    40    2
    40    16    11    1
    41    28    21    1
    42    40    32    1
    43    28    24    1
@<TRIPOS>SUBSTRUCTURE
     1 RES1        1 GROUP             0 ****  ****    0  
@<TRIPOS>MOLECULE
ligand_85
    40    43     1     0     0
SMALL
NO_CHARGES
****
Generated from the CSD

@<TRIPOS>ATOM
     1 C1       6.2768   6.1669  -3.2937   C.3       1 RES1   0.0000
     2 C2       5.1051   5.3561  -2.7681   C.3       1 RES1   0.0000
     3 C3       5.6033   4.3954  -1.7162   C.3       1 RES1   0.0000
     4 C4       4.0401   6.2638  -2.1738   C.2       1 RES1   0.0000
     5 N5       2.8310   5.6842  -1.6680   N.pl3     1 RES1   0.0000
     6 C6       2.5859   5.8920  -0.2831   C.2       1 RES1   0.0000
     7 C7       3.5842   5.2581   0.6765   C.3       1 RES1   0.0000
     8 O8       4.7359   6.0733   0.7379   O.3       1 RES1   0.0000
     9 C9       2.9877   5.0617   2.1225   C.3       1 RES1   0.0000
    10 C10      3.8640   4.1645   3.0312   C.3       1 RES1   0.0000
    11 C11      5.0596   4.8747   3.4927   C.2       1 RES1   0.0000
    12 C12      6.2542   4.7608   2.7574   C.2       1 RES1   0.0000
    13 C13      7.3953   5.4598   3.1405   C.2       1 RES1   0.0000
    14 C14      7.3887   6.2907   4.2639   C.2       1 RES1   0.0000
    15 C15      6.2057   6.4240   5.0035   C.2       1 RES1   0.0000
    16 C16      5.0578   5.7206   4.6149   C.2       1 RES1   0.0000
    17 N17      1.7095   4.5145   1.9677   N.am      1 RES1   0.0000
    18 C18      0.5502   5.1372   2.2327   C.2       1 RES1   0.0000
    19 O19      0.4075   6.2848   2.6533   O.2       1 RES1   0.0000
    20 O20     -0.5743   4.3668   1.9706   O.3       1 RES1   0.0000
    21 C21     -1.8796   4.8703   2.1757   C.3       1 RES1   0.0000
    22 C22     -2.1910   5.6942   0.9306   C.3       1 RES1   0.0000
    23 O23     -2.7262   4.7379  -0.0016   O.3       1 RES1   0.0000
    24 C24     -3.5460   3.8342   0.7454   C.3       1 RES1   0.0000
    25 O25     -3.4990   2.5433   0.1777   O.3       1 RES1   0.0000
    26 C26     -2.3962   1.8808   0.7718   C.3       1 RES1   0.0000
    27 C27     -2.4306   2.3127   2.2240   C.3       1 RES1   0.0000
    28 C28     -2.9312   3.7608   2.1539   C.3       1 RES1   0.0000
    29 S29      1.5778   5.4786  -2.7308   S.o2      1 RES1   0.0000
    30 O30      0.5395   4.7837  -2.0657   O.2       1 RES1   0.0000
    31 O31      2.1026   4.9394  -3.9233   O.2       1 RES1   0.0000
    32 C32      0.9765   7.0846  -3.1027   C.2       1 RES1   0.0000
    33 C33     -0.0307   7.6490  -2.3305   C.2       1 RES1   0.0000
    34 C34     -0.5724   8.8740  -2.5745   C.2       1 RES1   0.0000
    35 C35     -0.1658   9.6564  -3.6264   C.2       1 RES1   0.0000
    36 B36     -0.8239  11.0071  -3.8523   B         1 RES1   0.0000
    37 O37     -1.8158  11.5148  -3.0668   O.3       1 RES1   0.0000
    38 O38     -0.4263  11.6785  -4.9226   O.3       1 RES1   0.0000
    39 C39      0.8509   9.1170  -4.4679   C.2       1 RES1   0.0000
    40 C40      1.3901   7.8678  -4.1894   C.2       1 RES1   0.0000
@<TRIPOS>BOND
     1     1     2    1
     2     2     3    1
     3     2     4    1
     4     4     5    1
     5     5     6    1
     6     6     7    1
     7     7     8    1
     8     7     9    1
     9     9    10    1
    10    10    11    1
    11    11    12    2
    12    12    13    1
    13    13    14    2
    14    14    15    1
    15    15    16    2
    16     9    17    1
    17    17    18   am
    18    18    19    2
    19    18    20    1
    20    21    20    1
    21    21    22    1
    22    22    23    1
    23    24    23    1
    24    24    25    1
    25    25    26    1
    26    26    27    1
    27    28    27    1
    28     5    29    1
    29    29    30    2
    30    29    31    2
    31    29    32    1
    32    32    33    2
    33    33    34    1
    34    34    35    2
    35    35    36    1
    36    36    37    1
    37    36    38    1
    38    35    39    1
    39    39    40    2
    40    16    11    1
    41    28    21    1
    42    40    32    1
    43    28    24    1
@<TRIPOS>SUBSTRUCTURE
     1 RES1        1 GROUP             0 ****  ****    0  
@<TRIPOS>MOLECULE
ligand_86
    40    43     1     0     0
SMALL
NO_CHARGES
****
Generated from the CSD

@<TRIPOS>ATOM
     1 C1      15.8564   5.2632   7.3000   C.3       1 RES1   0.0000
     2 C2      15.3710   4.3284   6.2059   C.3       1 RES1   0.0000
     3 C3      15.4150   2.9086   6.7157   C.3       1 RES1   0.0000
     4 C4      13.9541   4.6795   5.7812   C.2       1 RES1   0.0000
     5 N5      13.3442   3.9480   4.7103   N.pl3     1 RES1   0.0000
     6 C6      12.2142   3.1643   5.0709   C.2       1 RES1   0.0000
     7 C7      12.0899   1.8115   4.3826   C.3       1 RES1   0.0000
     8 O8      13.3519   1.1774   4.3956   O.3       1 RES1   0.0000
     9 C9      11.0157   0.8836   5.0684   C.3       1 RES1   0.0000
    10 C10     10.6603  -0.3683   4.2288   C.3       1 RES1   0.0000
    11 C11      9.7571  -1.2632   4.9570   C.2       1 RES1   0.0000
    12 C12     10.2998  -2.2746   5.7714   C.2       1 RES1   0.0000
    13 C13      9.4718  -3.1113   6.5143   C.2       1 RES1   0.0000
    14 C14      8.0820  -2.9733   6.4716   C.2       1 RES1   0.0000
    15 C15      7.5233  -1.9657   5.6734   C.2       1 RES1   0.0000
    16 C16      8.3591  -1.1236   4.9278   C.2       1 RES1   0.0000
    17 N17      9.8803   1.6691   5.2947   N.am      1 RES1   0.0000
    18 C18      9.1914   1.7425   6.4444   C.2       1 RES1   0.0000
    19 O19      9.4327   1.1402   7.4900   O.2       1 RES1   0.0000
    20 O20      8.1145   2.6173   6.3994   O.3       1 RES1   0.0000
    21 C21      7.2894   2.8318   7.5264   C.3       1 RES1   0.0000
    22 C22      7.8814   3.7479   8.5977   C.3       1 RES1   0.0000
    23 O23      6.7599   4.0965   9.4238   O.3       1 RES1   0.0000
    24 C24      5.6220   4.2178   8.5892   C.3       1 RES1   0.0000
    25 O25      5.3332   5.5759   8.3362   O.3       1 RES1   0.0000
    26 C26      6.0976   5.9464   7.2020   C.3       1 RES1   0.0000
    27 C27      6.0288   4.7484   6.2777   C.3       1 RES1   0.0000
    28 C28      5.9563   3.5545   7.2372   C.3       1 RES1   0.0000
    29 S29     13.4998   4.5599   3.1793   S.o2      1 RES1   0.0000
    30 O30     12.9516   3.6254   2.2686   O.2       1 RES1   0.0000
    31 O31     14.8376   4.9719   3.0093   O.2       1 RES1   0.0000
    32 C32     12.4973   5.9988   3.1179   C.2       1 RES1   0.0000
    33 C33     11.1659   5.9059   2.7328   C.2       1 RES1   0.0000
    34 C34     10.3337   6.9784   2.6286   C.2       1 RES1   0.0000
    35 C35     10.7548   8.2583   2.8906   C.2       1 RES1   0.0000
    36 B36      9.7788   9.4128   2.7387   B         1 RES1   0.0000
    37 O37      8.4797   9.2692   2.3508   O.3       1 RES1   0.0000
    38 O38     10.2714  10.6248   2.9458   O.3       1 RES1   0.0000
    39 C39     12.1204   8.4165   3.2683   C.2       1 RES1   0.0000
    40 C40     12.9435   7.3028   3.3738   C.2       1 RES1   0.0000
@<TRIPOS>BOND
     1     1     2    1
     2     2     3    1
     3     2     4    1
     4     4     5    1
     5     5     6    1
     6     6     7    1
     7     7     8    1
     8     7     9    1
     9     9    10    1
    10    10    11    1
    11    11    12    2
    12    12    13    1
    13    13    14    2
    14    14    15    1
    15    15    16    2
    16     9    17    1
    17    17    18   am
    18    18    19    2
    19    18    20    1
    20    21    20    1
    21    21    22    1
    22    22    23    1
    23    24    23    1
    24    24    25    1
    25    25    26    1
    26    26    27    1
    27    28    27    1
    28     5    29    1
    29    29    30    2
    30    29    31    2
    31    29    32    1
    32    32    33    2
    33    33    34    1
    34    34    35    2
    35    35    36    1
    36    36    37    1
    37    36    38    1
    38    35    39    1
    39    39    40    2
    40    16    11    1
    41    28    21    1
    42    40    32    1
    43    28    24    1
@<TRIPOS>SUBSTRUCTURE
     1 RES1        1 GROUP             0 ****  ****    0  
@<TRIPOS>MOLECULE
ligand_87
    40    43     1     0     0
SMALL
NO_CHARGES
****
Generated from the CSD

@<TRIPOS>ATOM
     1 C1      12.9225  -2.2352  -1.3962   C.3       1 RES1   0.0000
     2 C2      12.8033  -1.4644  -0.0930   C.3       1 RES1   0.0000
     3 C3      12.2272  -0.0992  -0.3792   C.3       1 RES1   0.0000
     4 C4      11.9136  -2.2023   0.8946   C.2       1 RES1   0.0000
     5 N5      11.7316  -1.6623   2.2095   N.pl3     1 RES1   0.0000
     6 C6      10.4095  -1.2419   2.5203   C.2       1 RES1   0.0000
     7 C7      10.2884   0.0269   3.3538   C.3       1 RES1   0.0000
     8 O8      11.1744   0.9972   2.8358   O.3       1 RES1   0.0000
     9 C9       8.8188   0.5970   3.3721   C.3       1 RES1   0.0000
    10 C10      8.3719   1.1859   2.0112   C.3       1 RES1   0.0000
    11 C11      6.9631   1.5875   2.0377   C.2       1 RES1   0.0000
    12 C12      5.9747   0.6546   1.6723   C.2       1 RES1   0.0000
    13 C13      4.6245   0.9877   1.7321   C.2       1 RES1   0.0000
    14 C14      4.2125   2.2547   2.1534   C.2       1 RES1   0.0000
    15 C15      5.1819   3.1943   2.5301   C.2       1 RES1   0.0000
    16 C16      6.5404   2.8559   2.4706   C.2       1 RES1   0.0000
    17 N17      8.7694   1.5709   4.3753   N.am      1 RES1   0.0000
    18 C18      7.8274   1.6735   5.3259   C.2       1 RES1   0.0000
    19 O19      6.8525   0.9389   5.4821   O.2       1 RES1   0.0000
    20 O20      8.0322   2.7246   6.2092   O.3       1 RES1   0.0000
    21 C21      7.1473   2.9703   7.2831   C.3       1 RES1   0.0000
    22 C22      7.7046   3.8661   8.3896   C.3       1 RES1   0.0000
    23 O23      6.5475   4.2561   9.1451   O.3       1 RES1   0.0000
    24 C24      5.4685   4.4170   8.2419   C.3       1 RES1   0.0000
    25 O25      5.2450   5.7843   7.9726   O.3       1 RES1   0.0000
    26 C26      6.0909   6.1254   6.8881   C.3       1 RES1   0.0000
    27 C27      6.0363   4.9293   5.9603   C.3       1 RES1   0.0000
    28 C28      5.8616   3.7402   6.9126   C.3       1 RES1   0.0000
    29 S29     12.7593  -2.1821   3.3995   S.o2      1 RES1   0.0000
    30 O30     12.4996  -1.4316   4.5710   O.2       1 RES1   0.0000
    31 O31     14.0670  -2.1900   2.8721   O.2       1 RES1   0.0000
    32 C32     12.3215  -3.8473   3.7382   C.2       1 RES1   0.0000
    33 C33     12.9250  -4.8839   3.0377   C.2       1 RES1   0.0000
    34 C34     12.6163  -6.1975   3.2189   C.2       1 RES1   0.0000
    35 C35     11.6613  -6.6067   4.1158   C.2       1 RES1   0.0000
    36 B36     11.3533  -8.0879   4.2569   B         1 RES1   0.0000
    37 O37     11.9715  -9.0687   3.5395   O.3       1 RES1   0.0000
    38 O38     10.3766  -8.4039   5.0940   O.3       1 RES1   0.0000
    39 C39     10.9916  -5.5825   4.8473   C.2       1 RES1   0.0000
    40 C40     11.3334  -4.2514   4.6467   C.2       1 RES1   0.0000
@<TRIPOS>BOND
     1     1     2    1
     2     2     3    1
     3     2     4    1
     4     4     5    1
     5     5     6    1
     6     6     7    1
     7     7     8    1
     8     7     9    1
     9     9    10    1
    10    10    11    1
    11    11    12    2
    12    12    13    1
    13    13    14    2
    14    14    15    1
    15    15    16    2
    16     9    17    1
    17    17    18   am
    18    18    19    2
    19    18    20    1
    20    21    20    1
    21    21    22    1
    22    22    23    1
    23    24    23    1
    24    24    25    1
    25    25    26    1
    26    26    27    1
    27    28    27    1
    28     5    29    1
    29    29    30    2
    30    29    31    2
    31    29    32    1
    32    32    33    2
    33    33    34    1
    34    34    35    2
    35    35    36    1
    36    36    37    1
    37    36    38    1
    38    35    39    1
    39    39    40    2
    40    16    11    1
    41    28    21    1
    42    40    32    1
    43    28    24    1
@<TRIPOS>SUBSTRUCTURE
     1 RES1        1 GROUP             0 ****  ****    0  
@<TRIPOS>MOLECULE
ligand_88
    40    43     1     0     0
SMALL
NO_CHARGES
****
Generated from the CSD

@<TRIPOS>ATOM
     1 C1      12.0459   6.4259   0.7806   C.3       1 RES1   0.0000
     2 C2      12.6019   5.4528   1.8055   C.3       1 RES1   0.0000
     3 C3      12.0345   5.7893   3.1629   C.3       1 RES1   0.0000
     4 C4      12.2491   4.0197   1.4405   C.2       1 RES1   0.0000
     5 N5      12.7429   2.9494   2.2555   N.pl3     1 RES1   0.0000
     6 C6      11.7524   2.2024   2.9499   C.2       1 RES1   0.0000
     7 C7      12.0899   1.8115   4.3826   C.3       1 RES1   0.0000
     8 O8      12.2998   2.9869   5.1369   O.3       1 RES1   0.0000
     9 C9      10.9593   0.9394   5.0508   C.3       1 RES1   0.0000
    10 C10     10.5685  -0.3041   4.2145   C.3       1 RES1   0.0000
    11 C11      9.6092  -1.1504   4.9289   C.2       1 RES1   0.0000
    12 C12     10.0866  -2.1764   5.7656   C.2       1 RES1   0.0000
    13 C13      9.2046  -2.9678   6.4959   C.2       1 RES1   0.0000
    14 C14      7.8237  -2.7686   6.4183   C.2       1 RES1   0.0000
    15 C15      7.3298  -1.7456   5.5974   C.2       1 RES1   0.0000
    16 C16      8.2198  -0.9492   4.8644   C.2       1 RES1   0.0000
    17 N17      9.8550   1.7768   5.2421   N.am      1 RES1   0.0000
    18 C18      9.1429   1.8928   6.3739   C.2       1 RES1   0.0000
    19 O19      9.3321   1.2912   7.4307   O.2       1 RES1   0.0000
    20 O20      8.1075   2.8140   6.2947   O.3       1 RES1   0.0000
    21 C21      7.2661   3.0766   7.3992   C.3       1 RES1   0.0000
    22 C22      7.8727   3.9766   8.4760   C.3       1 RES1   0.0000
    23 O23      6.7485   4.3833   9.2713   O.3       1 RES1   0.0000
    24 C24      5.6374   4.5462   8.4082   C.3       1 RES1   0.0000
    25 O25      5.4156   5.9131   8.1356   O.3       1 RES1   0.0000
    26 C26      6.2226   6.2375   7.0169   C.3       1 RES1   0.0000
    27 C27      6.1225   5.0342   6.1024   C.3       1 RES1   0.0000
    28 C28      5.9739   3.8547   7.0710   C.3       1 RES1   0.0000
    29 S29     14.1793   2.2524   1.8158   S.o2      1 RES1   0.0000
    30 O30     14.5412   1.3129   2.8106   O.2       1 RES1   0.0000
    31 O31     15.0836   3.2853   1.4939   O.2       1 RES1   0.0000
    32 C32     13.8626   1.3557   0.3411   C.2       1 RES1   0.0000
    33 C33     13.4637   0.0266   0.4044   C.2       1 RES1   0.0000
    34 C34     13.2312  -0.7448  -0.6931   C.2       1 RES1   0.0000
    35 C35     13.3850  -0.2645  -1.9697   C.2       1 RES1   0.0000
    36 B36     13.1252  -1.1839  -3.1513   B         1 RES1   0.0000
    37 O37     12.7401  -2.4866  -3.0356   O.3       1 RES1   0.0000
    38 O38     13.3553  -0.6719  -4.3510   O.3       1 RES1   0.0000
    39 C39     13.8159   1.0886  -2.0954   C.2       1 RES1   0.0000
    40 C40     14.0377   1.8536  -0.9576   C.2       1 RES1   0.0000
@<TRIPOS>BOND
     1     1     2    1
     2     2     3    1
     3     2     4    1
     4     4     5    1
     5     5     6    1
     6     6     7    1
     7     7     8    1
     8     7     9    1
     9     9    10    1
    10    10    11    1
    11    11    12    2
    12    12    13    1
    13    13    14    2
    14    14    15    1
    15    15    16    2
    16     9    17    1
    17    17    18   am
    18    18    19    2
    19    18    20    1
    20    21    20    1
    21    21    22    1
    22    22    23    1
    23    24    23    1
    24    24    25    1
    25    25    26    1
    26    26    27    1
    27    28    27    1
    28     5    29    1
    29    29    30    2
    30    29    31    2
    31    29    32    1
    32    32    33    2
    33    33    34    1
    34    34    35    2
    35    35    36    1
    36    36    37    1
    37    36    38    1
    38    35    39    1
    39    39    40    2
    40    16    11    1
    41    28    21    1
    42    40    32    1
    43    28    24    1
@<TRIPOS>SUBSTRUCTURE
     1 RES1        1 GROUP             0 ****  ****    0  
@<TRIPOS>MOLECULE
ligand_89
    40    43     1     0     0
SMALL
NO_CHARGES
****
Generated from the CSD

@<TRIPOS>ATOM
     1 C1      12.5318   6.7426   1.6981   C.3       1 RES1   0.0000
     2 C2      13.0404   5.4770   2.3661   C.3       1 RES1   0.0000
     3 C3      12.8020   5.5749   3.8531   C.3       1 RES1   0.0000
     4 C4      12.3356   4.2495   1.8111   C.2       1 RES1   0.0000
     5 N5      12.7429   2.9494   2.2555   N.pl3     1 RES1   0.0000
     6 C6      11.7524   2.2024   2.9499   C.2       1 RES1   0.0000
     7 C7      12.0899   1.8115   4.3826   C.3       1 RES1   0.0000
     8 O8      12.3212   2.9863   5.1316   O.3       1 RES1   0.0000
     9 C9      10.9487   0.9595   5.0587   C.3       1 RES1   0.0000
    10 C10     10.5476  -0.2906   4.2374   C.3       1 RES1   0.0000
    11 C11     11.5809  -1.3275   4.3005   C.2       1 RES1   0.0000
    12 C12     12.5943  -1.3493   3.3241   C.2       1 RES1   0.0000
    13 C13     13.6180  -2.2906   3.3815   C.2       1 RES1   0.0000
    14 C14     13.6681  -3.2399   4.4057   C.2       1 RES1   0.0000
    15 C15     12.6727  -3.2281   5.3924   C.2       1 RES1   0.0000
    16 C16     11.6441  -2.2784   5.3333   C.2       1 RES1   0.0000
    17 N17      9.8525   1.8104   5.2362   N.am      1 RES1   0.0000
    18 C18      9.1386   1.9481   6.3646   C.2       1 RES1   0.0000
    19 O19      9.3189   1.3582   7.4294   O.2       1 RES1   0.0000
    20 O20      8.1128   2.8786   6.2707   O.3       1 RES1   0.0000
    21 C21      7.2713   3.1638   7.3694   C.3       1 RES1   0.0000
    22 C22      7.8842   4.0715   8.4362   C.3       1 RES1   0.0000
    23 O23      6.7620   4.4996   9.2232   O.3       1 RES1   0.0000
    24 C24      5.6549   4.6627   8.3551   C.3       1 RES1   0.0000
    25 O25      5.4476   6.0281   8.0644   O.3       1 RES1   0.0000
    26 C26      6.2608   6.3300   6.9438   C.3       1 RES1   0.0000
    27 C27      6.1510   5.1161   6.0445   C.3       1 RES1   0.0000
    28 C28      5.9879   3.9507   7.0277   C.3       1 RES1   0.0000
    29 S29     13.9360   2.1861   1.3974   S.o2      1 RES1   0.0000
    30 O30     14.2768   0.9912   2.0751   O.2       1 RES1   0.0000
    31 O31     14.9495   3.1289   1.1283   O.2       1 RES1   0.0000
    32 C32     13.2242   1.7297  -0.1402   C.2       1 RES1   0.0000
    33 C33     12.6042   0.4949  -0.2832   C.2       1 RES1   0.0000
    34 C34     12.0585   0.0549  -1.4503   C.2       1 RES1   0.0000
    35 C35     12.0875   0.8054  -2.5992   C.2       1 RES1   0.0000
    36 B36     11.4745   0.2477  -3.8727   B         1 RES1   0.0000
    37 O37     10.8812  -0.9765  -3.9628   O.3       1 RES1   0.0000
    38 O38     11.5958   0.9992  -4.9567   O.3       1 RES1   0.0000
    39 C39     12.7328   2.0740  -2.5171   C.2       1 RES1   0.0000
    40 C40     13.2735   2.4995  -1.3107   C.2       1 RES1   0.0000
@<TRIPOS>BOND
     1     1     2    1
     2     2     3    1
     3     2     4    1
     4     4     5    1
     5     5     6    1
     6     6     7    1
     7     7     8    1
     8     7     9    1
     9     9    10    1
    10    10    11    1
    11    11    12    2
    12    12    13    1
    13    13    14    2
    14    14    15    1
    15    15    16    2
    16     9    17    1
    17    17    18   am
    18    18    19    2
    19    18    20    1
    20    21    20    1
    21    21    22    1
    22    22    23    1
    23    24    23    1
    24    24    25    1
    25    25    26    1
    26    26    27    1
    27    28    27    1
    28     5    29    1
    29    29    30    2
    30    29    31    2
    31    29    32    1
    32    32    33    2
    33    33    34    1
    34    34    35    2
    35    35    36    1
    36    36    37    1
    37    36    38    1
    38    35    39    1
    39    39    40    2
    40    16    11    1
    41    28    21    1
    42    40    32    1
    43    28    24    1
@<TRIPOS>SUBSTRUCTURE
     1 RES1        1 GROUP             0 ****  ****    0  
@<TRIPOS>MOLECULE
ligand_90
    40    43     1     0     0
SMALL
NO_CHARGES
****
Generated from the CSD

@<TRIPOS>ATOM
     1 C1       7.5923   6.3251   4.9353   C.3       1 RES1   0.0000
     2 C2       6.4893   6.2315   3.8955   C.3       1 RES1   0.0000
     3 C3       6.5602   4.8826   3.2223   C.3       1 RES1   0.0000
     4 C4       5.1228   6.4164   4.5358   C.2       1 RES1   0.0000
     5 N5       3.9552   6.4090   3.7048   N.pl3     1 RES1   0.0000
     6 C6       3.0141   5.3798   3.9817   C.2       1 RES1   0.0000
     7 C7       3.4932   3.9533   3.7476   C.3       1 RES1   0.0000
     8 O8       4.2838   3.5533   4.8475   O.3       1 RES1   0.0000
     9 C9       2.2998   2.9427   3.5485   C.3       1 RES1   0.0000
    10 C10      2.7501   1.5568   3.0241   C.3       1 RES1   0.0000
    11 C11      3.3964   0.7695   4.0773   C.2       1 RES1   0.0000
    12 C12      4.7958   0.8243   4.2167   C.2       1 RES1   0.0000
    13 C13      5.4375   0.1269   5.2362   C.2       1 RES1   0.0000
    14 C14      4.7136  -0.6472   6.1467   C.2       1 RES1   0.0000
    15 C15      3.3182  -0.7068   6.0295   C.2       1 RES1   0.0000
    16 C16      2.6744  -0.0024   5.0034   C.2       1 RES1   0.0000
    17 N17      1.3994   3.5415   2.6608   N.am      1 RES1   0.0000
    18 C18      0.1717   3.9886   2.9683   C.2       1 RES1   0.0000
    19 O19     -0.3731   3.9519   4.0711   O.2       1 RES1   0.0000
    20 O20     -0.5035   4.5584   1.8976   O.3       1 RES1   0.0000
    21 C21     -1.8023   5.0974   2.0452   C.3       1 RES1   0.0000
    22 C22     -1.9907   6.0214   0.8465   C.3       1 RES1   0.0000
    23 O23     -2.4870   5.1575  -0.1915   O.3       1 RES1   0.0000
    24 C24     -3.3912   4.2354   0.4239   C.3       1 RES1   0.0000
    25 O25     -3.3462   2.9883  -0.2346   O.3       1 RES1   0.0000
    26 C26     -2.3147   2.2409   0.3860   C.3       1 RES1   0.0000
    27 C27     -2.4433   2.5671   1.8604   C.3       1 RES1   0.0000
    28 C28     -2.8870   4.0353   1.8636   C.3       1 RES1   0.0000
    29 S29      3.4685   7.8526   3.0555   S.o2      1 RES1   0.0000
    30 O30      2.3866   7.6036   2.1776   O.2       1 RES1   0.0000
    31 O31      4.6107   8.5130   2.5582   O.2       1 RES1   0.0000
    32 C32      2.8492   8.8105   4.3890   C.2       1 RES1   0.0000
    33 C33      1.5059   8.7388   4.7351   C.2       1 RES1   0.0000
    34 C34      0.9434   9.4737   5.7337   C.2       1 RES1   0.0000
    35 C35      1.6697  10.3655   6.4828   C.2       1 RES1   0.0000
    36 B36      0.9764  11.1669   7.5718   B         1 RES1   0.0000
    37 O37     -0.3501  11.0639   7.8692   O.3       1 RES1   0.0000
    38 O38      1.7250  12.0536   8.2103   O.3       1 RES1   0.0000
    39 C39      3.0511  10.4979   6.1559   C.2       1 RES1   0.0000
    40 C40      3.5986   9.7291   5.1370   C.2       1 RES1   0.0000
@<TRIPOS>BOND
     1     1     2    1
     2     2     3    1
     3     2     4    1
     4     4     5    1
     5     5     6    1
     6     6     7    1
     7     7     8    1
     8     7     9    1
     9     9    10    1
    10    10    11    1
    11    11    12    2
    12    12    13    1
    13    13    14    2
    14    14    15    1
    15    15    16    2
    16     9    17    1
    17    17    18   am
    18    18    19    2
    19    18    20    1
    20    21    20    1
    21    21    22    1
    22    22    23    1
    23    24    23    1
    24    24    25    1
    25    25    26    1
    26    26    27    1
    27    28    27    1
    28     5    29    1
    29    29    30    2
    30    29    31    2
    31    29    32    1
    32    32    33    2
    33    33    34    1
    34    34    35    2
    35    35    36    1
    36    36    37    1
    37    36    38    1
    38    35    39    1
    39    39    40    2
    40    16    11    1
    41    28    21    1
    42    40    32    1
    43    28    24    1
@<TRIPOS>SUBSTRUCTURE
     1 RES1        1 GROUP             0 ****  ****    0  
@<TRIPOS>MOLECULE
ligand_91
    40    43     1     0     0
SMALL
NO_CHARGES
****
Generated from the CSD

@<TRIPOS>ATOM
     1 C1       9.2271  -5.2643   7.3621   C.3       1 RES1   0.0000
     2 C2       9.8495  -4.3649   6.3084   C.3       1 RES1   0.0000
     3 C3       9.0870  -4.5202   5.0153   C.3       1 RES1   0.0000
     4 C4       9.8219  -2.9107   6.7512   C.2       1 RES1   0.0000
     5 N5      10.4247  -1.9145   5.9157   N.pl3     1 RES1   0.0000
     6 C6       9.5301  -0.9594   5.3602   C.2       1 RES1   0.0000
     7 C7       9.7854  -0.5656   3.9114   C.3       1 RES1   0.0000
     8 O8       9.7129  -1.7237   3.1063   O.3       1 RES1   0.0000
     9 C9       8.7615   0.5146   3.3919   C.3       1 RES1   0.0000
    10 C10      9.1595   1.1318   2.0284   C.3       1 RES1   0.0000
    11 C11      8.1206   2.0340   1.5249   C.2       1 RES1   0.0000
    12 C12      7.0983   1.5177   0.7070   C.2       1 RES1   0.0000
    13 C13      6.0695   2.3368   0.2508   C.2       1 RES1   0.0000
    14 C14      6.0230   3.6919   0.5888   C.2       1 RES1   0.0000
    15 C15      7.0274   4.2222   1.4100   C.2       1 RES1   0.0000
    16 C16      8.0611   3.3952   1.8693   C.2       1 RES1   0.0000
    17 N17      8.6729   1.5031   4.3780   N.am      1 RES1   0.0000
    18 C18      7.7297   1.5820   5.3297   C.2       1 RES1   0.0000
    19 O19      6.7876   0.8092   5.5020   O.2       1 RES1   0.0000
    20 O20      7.8915   2.6563   6.1937   O.3       1 RES1   0.0000
    21 C21      6.9995   2.8829   7.2660   C.3       1 RES1   0.0000
    22 C22      7.5206   3.8211   8.3549   C.3       1 RES1   0.0000
    23 O23      6.3497   4.1745   9.1071   O.3       1 RES1   0.0000
    24 C24      5.2626   4.2731   8.2047   C.3       1 RES1   0.0000
    25 O25      4.9800   5.6246   7.9121   O.3       1 RES1   0.0000
    26 C26      5.8078   5.9824   6.8191   C.3       1 RES1   0.0000
    27 C27      5.8022   4.7688   5.9127   C.3       1 RES1   0.0000
    28 C28      5.6811   3.5903   6.8862   C.3       1 RES1   0.0000
    29 S29     12.0077  -1.5258   6.2084   S.o2      1 RES1   0.0000
    30 O30     12.4381  -0.6263   5.2040   O.2       1 RES1   0.0000
    31 O31     12.7224  -2.7263   6.3988   O.2       1 RES1   0.0000
    32 C32     12.0295  -0.6564   7.7324   C.2       1 RES1   0.0000
    33 C33     11.8927   0.7258   7.7495   C.2       1 RES1   0.0000
    34 C34     11.9323   1.4743   8.8861   C.2       1 RES1   0.0000
    35 C35     12.1239   0.9134  10.1241   C.2       1 RES1   0.0000
    36 B36     12.1747   1.8082  11.3511   B         1 RES1   0.0000
    37 O37     12.0405   3.1644  11.3139   O.3       1 RES1   0.0000
    38 O38     12.4263   1.2052  12.5033   O.3       1 RES1   0.0000
    39 C39     12.2940  -0.5015  10.1647   C.2       1 RES1   0.0000
    40 C40     12.2409  -1.2397   8.9895   C.2       1 RES1   0.0000
@<TRIPOS>BOND
     1     1     2    1
     2     2     3    1
     3     2     4    1
     4     4     5    1
     5     5     6    1
     6     6     7    1
     7     7     8    1
     8     7     9    1
     9     9    10    1
    10    10    11    1
    11    11    12    2
    12    12    13    1
    13    13    14    2
    14    14    15    1
    15    15    16    2
    16     9    17    1
    17    17    18   am
    18    18    19    2
    19    18    20    1
    20    21    20    1
    21    21    22    1
    22    22    23    1
    23    24    23    1
    24    24    25    1
    25    25    26    1
    26    26    27    1
    27    28    27    1
    28     5    29    1
    29    29    30    2
    30    29    31    2
    31    29    32    1
    32    32    33    2
    33    33    34    1
    34    34    35    2
    35    35    36    1
    36    36    37    1
    37    36    38    1
    38    35    39    1
    39    39    40    2
    40    16    11    1
    41    28    21    1
    42    40    32    1
    43    28    24    1
@<TRIPOS>SUBSTRUCTURE
     1 RES1        1 GROUP             0 ****  ****    0  
@<TRIPOS>MOLECULE
ligand_92
    40    43     1     0     0
SMALL
NO_CHARGES
****
Generated from the CSD

@<TRIPOS>ATOM
     1 C1       2.4838   3.4106  -4.5135   C.3       1 RES1   0.0000
     2 C2       3.1809   4.2381  -3.4477   C.3       1 RES1   0.0000
     3 C3       2.2113   5.2590  -2.9042   C.3       1 RES1   0.0000
     4 C4       3.6853   3.3543  -2.3181   C.2       1 RES1   0.0000
     5 N5       4.4547   3.9421  -1.2615   N.pl3     1 RES1   0.0000
     6 C6       3.8522   3.9076   0.0258   C.2       1 RES1   0.0000
     7 C7       3.5842   5.2581   0.6765   C.3       1 RES1   0.0000
     8 O8       2.6614   5.9712  -0.1202   O.3       1 RES1   0.0000
     9 C9       3.0299   5.1189   2.1457   C.3       1 RES1   0.0000
    10 C10      3.9177   4.2340   3.0553   C.3       1 RES1   0.0000
    11 C11      3.4357   4.2348   4.4390   C.2       1 RES1   0.0000
    12 C12      3.9216   5.2042   5.3362   C.2       1 RES1   0.0000
    13 C13      3.4495   5.2636   6.6443   C.2       1 RES1   0.0000
    14 C14      2.4840   4.3641   7.1039   C.2       1 RES1   0.0000
    15 C15      1.9813   3.3975   6.2223   C.2       1 RES1   0.0000
    16 C16      2.4570   3.3407   4.9055   C.2       1 RES1   0.0000
    17 N17      1.7377   4.5920   2.0481   N.am      1 RES1   0.0000
    18 C18      0.5979   5.2511   2.3095   C.2       1 RES1   0.0000
    19 O19      0.4884   6.4205   2.6766   O.2       1 RES1   0.0000
    20 O20     -0.5479   4.4928   2.1120   O.3       1 RES1   0.0000
    21 C21     -1.8374   5.0330   2.3229   C.3       1 RES1   0.0000
    22 C22     -2.1628   5.8020   1.0466   C.3       1 RES1   0.0000
    23 O23     -2.7397   4.8131   0.1752   O.3       1 RES1   0.0000
    24 C24     -3.5587   3.9642   0.9846   C.3       1 RES1   0.0000
    25 O25     -3.5514   2.6466   0.4799   O.3       1 RES1   0.0000
    26 C26     -2.4478   1.9905   1.0796   C.3       1 RES1   0.0000
    27 C27     -2.4380   2.4930   2.5094   C.3       1 RES1   0.0000
    28 C28     -2.9112   3.9463   2.3802   C.3       1 RES1   0.0000
    29 S29      6.1023   3.9514  -1.4281   S.o2      1 RES1   0.0000
    30 O30      6.5061   2.6904  -1.9282   O.2       1 RES1   0.0000
    31 O31      6.6593   4.4140  -0.2182   O.2       1 RES1   0.0000
    32 C32      6.4676   5.1441  -2.6623   C.2       1 RES1   0.0000
    33 C33      6.5609   4.7635  -3.9949   C.2       1 RES1   0.0000
    34 C34      6.8724   5.6215  -5.0050   C.2       1 RES1   0.0000
    35 C35      7.1330   6.9504  -4.7807   C.2       1 RES1   0.0000
    36 B36      7.4912   7.8505  -5.9512   B         1 RES1   0.0000
    37 O37      7.5757   7.4256  -7.2439   O.3       1 RES1   0.0000
    38 O38      7.7922   9.1052  -5.6521   O.3       1 RES1   0.0000
    39 C39      7.0744   7.3930  -3.4267   C.2       1 RES1   0.0000
    40 C40      6.7463   6.4961  -2.4183   C.2       1 RES1   0.0000
@<TRIPOS>BOND
     1     1     2    1
     2     2     3    1
     3     2     4    1
     4     4     5    1
     5     5     6    1
     6     6     7    1
     7     7     8    1
     8     7     9    1
     9     9    10    1
    10    10    11    1
    11    11    12    2
    12    12    13    1
    13    13    14    2
    14    14    15    1
    15    15    16    2
    16     9    17    1
    17    17    18   am
    18    18    19    2
    19    18    20    1
    20    21    20    1
    21    21    22    1
    22    22    23    1
    23    24    23    1
    24    24    25    1
    25    25    26    1
    26    26    27    1
    27    28    27    1
    28     5    29    1
    29    29    30    2
    30    29    31    2
    31    29    32    1
    32    32    33    2
    33    33    34    1
    34    34    35    2
    35    35    36    1
    36    36    37    1
    37    36    38    1
    38    35    39    1
    39    39    40    2
    40    16    11    1
    41    28    21    1
    42    40    32    1
    43    28    24    1
@<TRIPOS>SUBSTRUCTURE
     1 RES1        1 GROUP             0 ****  ****    0  
@<TRIPOS>MOLECULE
ligand_93
    40    43     1     0     0
SMALL
NO_CHARGES
****
Generated from the CSD

@<TRIPOS>ATOM
     1 C1       3.9173  10.2460  -2.4007   C.3       1 RES1   0.0000
     2 C2       4.3311   8.8715  -1.9047   C.3       1 RES1   0.0000
     3 C3       4.9705   9.0105  -0.5447   C.3       1 RES1   0.0000
     4 C4       3.1311   7.9421  -1.8173   C.2       1 RES1   0.0000
     5 N5       3.3318   6.5765  -1.4315   N.pl3     1 RES1   0.0000
     6 C6       2.7572   6.2023  -0.1860   C.2       1 RES1   0.0000
     7 C7       3.5842   5.2581   0.6765   C.3       1 RES1   0.0000
     8 O8       4.9214   5.7123   0.6939   O.3       1 RES1   0.0000
     9 C9       3.0341   5.1517   2.1501   C.3       1 RES1   0.0000
    10 C10      3.9046   4.2573   3.0670   C.3       1 RES1   0.0000
    11 C11      3.4297   4.2880   4.4528   C.2       1 RES1   0.0000
    12 C12      3.9436   5.2567   5.3349   C.2       1 RES1   0.0000
    13 C13      3.4797   5.3448   6.6443   C.2       1 RES1   0.0000
    14 C14      2.4949   4.4753   7.1203   C.2       1 RES1   0.0000
    15 C15      1.9643   3.5098   6.2538   C.2       1 RES1   0.0000
    16 C16      2.4318   3.4243   4.9356   C.2       1 RES1   0.0000
    17 N17      1.7289   4.6554   2.0654   N.am      1 RES1   0.0000
    18 C18      0.6069   5.3456   2.3235   C.2       1 RES1   0.0000
    19 O19      0.5278   6.5220   2.6757   O.2       1 RES1   0.0000
    20 O20     -0.5581   4.6130   2.1414   O.3       1 RES1   0.0000
    21 C21     -1.8329   5.1874   2.3513   C.3       1 RES1   0.0000
    22 C22     -2.1458   5.9474   1.0665   C.3       1 RES1   0.0000
    23 O23     -2.7511   4.9617   0.2109   O.3       1 RES1   0.0000
    24 C24     -3.5865   4.1437   1.0353   C.3       1 RES1   0.0000
    25 O25     -3.6140   2.8199   0.5480   O.3       1 RES1   0.0000
    26 C26     -2.5238   2.1448   1.1511   C.3       1 RES1   0.0000
    27 C27     -2.4944   2.6655   2.5740   C.3       1 RES1   0.0000
    28 C28     -2.9326   4.1281   2.4279   C.3       1 RES1   0.0000
    29 S29      3.5413   5.4628  -2.6390   S.o2      1 RES1   0.0000
    30 O30      2.6173   5.7478  -3.6726   O.2       1 RES1   0.0000
    31 O31      3.5337   4.1800  -2.0538   O.2       1 RES1   0.0000
    32 C32      5.1495   5.7330  -3.2870   C.2       1 RES1   0.0000
    33 C33      5.3355   6.6057  -4.3515   C.2       1 RES1   0.0000
    34 C34      6.5446   6.8431  -4.9305   C.2       1 RES1   0.0000
    35 C35      7.6924   6.2206  -4.5072   C.2       1 RES1   0.0000
    36 B36      9.0071   6.5181  -5.2085   B         1 RES1   0.0000
    37 O37      9.1362   7.3811  -6.2560   O.3       1 RES1   0.0000
    38 O38     10.0606   5.8337  -4.7888   O.3       1 RES1   0.0000
    39 C39      7.5573   5.2952  -3.4311   C.2       1 RES1   0.0000
    40 C40      6.3121   5.0794  -2.8552   C.2       1 RES1   0.0000
@<TRIPOS>BOND
     1     1     2    1
     2     2     3    1
     3     2     4    1
     4     4     5    1
     5     5     6    1
     6     6     7    1
     7     7     8    1
     8     7     9    1
     9     9    10    1
    10    10    11    1
    11    11    12    2
    12    12    13    1
    13    13    14    2
    14    14    15    1
    15    15    16    2
    16     9    17    1
    17    17    18   am
    18    18    19    2
    19    18    20    1
    20    21    20    1
    21    21    22    1
    22    22    23    1
    23    24    23    1
    24    24    25    1
    25    25    26    1
    26    26    27    1
    27    28    27    1
    28     5    29    1
    29    29    30    2
    30    29    31    2
    31    29    32    1
    32    32    33    2
    33    33    34    1
    34    34    35    2
    35    35    36    1
    36    36    37    1
    37    36    38    1
    38    35    39    1
    39    39    40    2
    40    16    11    1
    41    28    21    1
    42    40    32    1
    43    28    24    1
@<TRIPOS>SUBSTRUCTURE
     1 RES1        1 GROUP             0 ****  ****    0  
@<TRIPOS>MOLECULE
ligand_94
    40    43     1     0     0
SMALL
NO_CHARGES
****
Generated from the CSD

@<TRIPOS>ATOM
     1 C1       5.6308   9.2816  -2.3514   C.3       1 RES1   0.0000
     2 C2       5.7403   7.9663  -1.5999   C.3       1 RES1   0.0000
     3 C3       6.0619   8.2509  -0.1531   C.3       1 RES1   0.0000
     4 C4       4.4437   7.1779  -1.6940   C.2       1 RES1   0.0000
     5 N5       4.3734   5.8755  -1.1002   N.pl3     1 RES1   0.0000
     6 C6       3.4677   5.7479  -0.0117   C.2       1 RES1   0.0000
     7 C7       3.9259   4.8643   1.1410   C.3       1 RES1   0.0000
     8 O8       5.2694   5.1757   1.4459   O.3       1 RES1   0.0000
     9 C9       3.0294   5.0384   2.4259   C.3       1 RES1   0.0000
    10 C10      3.5232   4.2073   3.6359   C.3       1 RES1   0.0000
    11 C11      2.7388   4.4952   4.8396   C.2       1 RES1   0.0000
    12 C12      3.1544   5.5276   5.7010   C.2       1 RES1   0.0000
    13 C13      2.4067   5.8593   6.8273   C.2       1 RES1   0.0000
    14 C14      1.2266   5.1776   7.1357   C.2       1 RES1   0.0000
    15 C15      0.7917   4.1524   6.2846   C.2       1 RES1   0.0000
    16 C16      1.5453   3.8216   5.1505   C.2       1 RES1   0.0000
    17 N17      1.7270   4.6721   2.0697   N.am      1 RES1   0.0000
    18 C18      0.6130   5.3727   2.3340   C.2       1 RES1   0.0000
    19 O19      0.5472   6.5481   2.6925   O.2       1 RES1   0.0000
    20 O20     -0.5600   4.6535   2.1510   O.3       1 RES1   0.0000
    21 C21     -1.8282   5.2402   2.3669   C.3       1 RES1   0.0000
    22 C22     -2.1362   6.0101   1.0869   C.3       1 RES1   0.0000
    23 O23     -2.7538   5.0352   0.2277   O.3       1 RES1   0.0000
    24 C24     -3.5959   4.2219   1.0499   C.3       1 RES1   0.0000
    25 O25     -3.6385   2.9009   0.5558   O.3       1 RES1   0.0000
    26 C26     -2.5541   2.2113   1.1527   C.3       1 RES1   0.0000
    27 C27     -2.5158   2.7243   2.5783   C.3       1 RES1   0.0000
    28 C28     -2.9389   4.1922   2.4408   C.3       1 RES1   0.0000
    29 S29      4.7358   4.5759  -2.0604   S.o2      1 RES1   0.0000
    30 O30      4.7402   3.4134  -1.2530   O.2       1 RES1   0.0000
    31 O31      5.8914   4.8929  -2.8037   O.2       1 RES1   0.0000
    32 C32      3.4092   4.4166  -3.1980   C.2       1 RES1   0.0000
    33 C33      3.4525   5.0795  -4.4179   C.2       1 RES1   0.0000
    34 C34      2.4504   5.0329  -5.3383   C.2       1 RES1   0.0000
    35 C35      1.2948   4.3234  -5.1251   C.2       1 RES1   0.0000
    36 B36      0.2080   4.3269  -6.1870   B         1 RES1   0.0000
    37 O37      0.2968   5.0007  -7.3689   O.3       1 RES1   0.0000
    38 O38     -0.9043   3.6739  -5.8860   O.3       1 RES1   0.0000
    39 C39      1.1853   3.6410  -3.8781   C.2       1 RES1   0.0000
    40 C40      2.2274   3.7005  -2.9620   C.2       1 RES1   0.0000
@<TRIPOS>BOND
     1     1     2    1
     2     2     3    1
     3     2     4    1
     4     4     5    1
     5     5     6    1
     6     6     7    1
     7     7     8    1
     8     7     9    1
     9     9    10    1
    10    10    11    1
    11    11    12    2
    12    12    13    1
    13    13    14    2
    14    14    15    1
    15    15    16    2
    16     9    17    1
    17    17    18   am
    18    18    19    2
    19    18    20    1
    20    21    20    1
    21    21    22    1
    22    22    23    1
    23    24    23    1
    24    24    25    1
    25    25    26    1
    26    26    27    1
    27    28    27    1
    28     5    29    1
    29    29    30    2
    30    29    31    2
    31    29    32    1
    32    32    33    2
    33    33    34    1
    34    34    35    2
    35    35    36    1
    36    36    37    1
    37    36    38    1
    38    35    39    1
    39    39    40    2
    40    16    11    1
    41    28    21    1
    42    40    32    1
    43    28    24    1
@<TRIPOS>SUBSTRUCTURE
     1 RES1        1 GROUP             0 ****  ****    0  
@<TRIPOS>MOLECULE
ligand_95
    40    43     1     0     0
SMALL
NO_CHARGES
****
Generated from the CSD

@<TRIPOS>ATOM
     1 C1       5.5127   8.4999   1.1379   C.3       1 RES1   0.0000
     2 C2       5.4127   7.4499   2.2308   C.3       1 RES1   0.0000
     3 C3       4.1314   7.6601   3.0000   C.3       1 RES1   0.0000
     4 C4       5.4356   6.0488   1.6410   C.2       1 RES1   0.0000
     5 N5       5.4458   4.9196   2.5233   N.pl3     1 RES1   0.0000
     6 C6       4.2970   4.0844   2.4608   C.2       1 RES1   0.0000
     7 C7       3.4932   3.9533   3.7476   C.3       1 RES1   0.0000
     8 O8       2.9814   5.2230   4.0950   O.3       1 RES1   0.0000
     9 C9       2.3132   2.9161   3.6172   C.3       1 RES1   0.0000
    10 C10      2.7706   1.5269   3.1077   C.3       1 RES1   0.0000
    11 C11      1.6686   0.5614   3.1220   C.2       1 RES1   0.0000
    12 C12      1.4486  -0.2146   4.2753   C.2       1 RES1   0.0000
    13 C13      0.3821  -1.1066   4.3405   C.2       1 RES1   0.0000
    14 C14     -0.4973  -1.2587   3.2652   C.2       1 RES1   0.0000
    15 C15     -0.2998  -0.4878   2.1115   C.2       1 RES1   0.0000
    16 C16      0.7737   0.4107   2.0490   C.2       1 RES1   0.0000
    17 N17      1.3685   3.4768   2.7510   N.am      1 RES1   0.0000
    18 C18      0.1522   3.9260   3.0984   C.2       1 RES1   0.0000
    19 O19     -0.3417   3.9245   4.2255   O.2       1 RES1   0.0000
    20 O20     -0.5757   4.4529   2.0403   O.3       1 RES1   0.0000
    21 C21     -1.8711   4.9876   2.2279   C.3       1 RES1   0.0000
    22 C22     -2.1215   5.8674   1.0075   C.3       1 RES1   0.0000
    23 O23     -2.6568   4.9640   0.0240   O.3       1 RES1   0.0000
    24 C24     -3.5243   4.0579   0.7118   C.3       1 RES1   0.0000
    25 O25     -3.4986   2.7887   0.0960   O.3       1 RES1   0.0000
    26 C26     -2.4336   2.0708   0.6947   C.3       1 RES1   0.0000
    27 C27     -2.4981   2.4480   2.1611   C.3       1 RES1   0.0000
    28 C28     -2.9537   3.9123   2.1332   C.3       1 RES1   0.0000
    29 S29      6.9194   4.3054   2.9634   S.o2      1 RES1   0.0000
    30 O30      7.7457   4.2647   1.8151   O.2       1 RES1   0.0000
    31 O31      6.6965   3.1141   3.6842   O.2       1 RES1   0.0000
    32 C32      7.6262   5.4649   4.0747   C.2       1 RES1   0.0000
    33 C33      8.4449   6.4802   3.5967   C.2       1 RES1   0.0000
    34 C34      9.0559   7.3969   4.3967   C.2       1 RES1   0.0000
    35 C35      8.9167   7.3834   5.7622   C.2       1 RES1   0.0000
    36 B36      9.6399   8.4257   6.5983   B         1 RES1   0.0000
    37 O37     10.4393   9.4009   6.0797   O.3       1 RES1   0.0000
    38 O38      9.5111   8.3126   7.9117   O.3       1 RES1   0.0000
    39 C39      8.1052   6.3477   6.3111   C.2       1 RES1   0.0000
    40 C40      7.4881   5.4314   5.4693   C.2       1 RES1   0.0000
@<TRIPOS>BOND
     1     1     2    1
     2     2     3    1
     3     2     4    1
     4     4     5    1
     5     5     6    1
     6     6     7    1
     7     7     8    1
     8     7     9    1
     9     9    10    1
    10    10    11    1
    11    11    12    2
    12    12    13    1
    13    13    14    2
    14    14    15    1
    15    15    16    2
    16     9    17    1
    17    17    18   am
    18    18    19    2
    19    18    20    1
    20    21    20    1
    21    21    22    1
    22    22    23    1
    23    24    23    1
    24    24    25    1
    25    25    26    1
    26    26    27    1
    27    28    27    1
    28     5    29    1
    29    29    30    2
    30    29    31    2
    31    29    32    1
    32    32    33    2
    33    33    34    1
    34    34    35    2
    35    35    36    1
    36    36    37    1
    37    36    38    1
    38    35    39    1
    39    39    40    2
    40    16    11    1
    41    28    21    1
    42    40    32    1
    43    28    24    1
@<TRIPOS>SUBSTRUCTURE
     1 RES1        1 GROUP             0 ****  ****    0  
@<TRIPOS>MOLECULE
ligand_96
    40    43     1     0     0
SMALL
NO_CHARGES
****
Generated from the CSD

@<TRIPOS>ATOM
     1 C1       4.3939   7.5641   8.2875   C.3       1 RES1   0.0000
     2 C2       4.7495   6.6382   7.1373   C.3       1 RES1   0.0000
     3 C3       4.5809   5.2073   7.5865   C.3       1 RES1   0.0000
     4 C4       3.8646   6.9070   5.9306   C.2       1 RES1   0.0000
     5 N5       4.0938   6.1760   4.7195   N.pl3     1 RES1   0.0000
     6 C6       3.0526   5.2874   4.3353   C.2       1 RES1   0.0000
     7 C7       3.4932   3.9533   3.7476   C.3       1 RES1   0.0000
     8 O8       4.5296   3.4243   4.5481   O.3       1 RES1   0.0000
     9 C9       2.3084   2.9179   3.6501   C.3       1 RES1   0.0000
    10 C10      2.7492   1.5283   3.1275   C.3       1 RES1   0.0000
    11 C11      1.6465   0.5644   3.1724   C.2       1 RES1   0.0000
    12 C12      1.4578  -0.2116   4.3312   C.2       1 RES1   0.0000
    13 C13      0.3921  -1.1020   4.4260   C.2       1 RES1   0.0000
    14 C14     -0.5173  -1.2524   3.3759   C.2       1 RES1   0.0000
    15 C15     -0.3511  -0.4814   2.2173   C.2       1 RES1   0.0000
    16 C16      0.7216   0.4155   2.1250   C.2       1 RES1   0.0000
    17 N17      1.3406   3.4804   2.8110   N.am      1 RES1   0.0000
    18 C18      0.1352   3.9314   3.1925   C.2       1 RES1   0.0000
    19 O19     -0.3268   3.9302   4.3331   O.2       1 RES1   0.0000
    20 O20     -0.6213   4.4597   2.1555   O.3       1 RES1   0.0000
    21 C21     -1.9100   4.9965   2.3796   C.3       1 RES1   0.0000
    22 C22     -2.1932   5.8770   1.1669   C.3       1 RES1   0.0000
    23 O23     -2.7575   4.9747   0.1987   O.3       1 RES1   0.0000
    24 C24     -3.6068   4.0698   0.9104   C.3       1 RES1   0.0000
    25 O25     -3.6004   2.8008   0.2937   O.3       1 RES1   0.0000
    26 C26     -2.5202   2.0810   0.8621   C.3       1 RES1   0.0000
    27 C27     -2.5427   2.4579   2.3298   C.3       1 RES1   0.0000
    28 C28     -2.9966   3.9229   2.3152   C.3       1 RES1   0.0000
    29 S29      5.0838   6.8653   3.5850   S.o2      1 RES1   0.0000
    30 O30      4.7696   8.2426   3.4980   O.2       1 RES1   0.0000
    31 O31      5.0215   6.0778   2.4170   O.2       1 RES1   0.0000
    32 C32      6.7174   6.7410   4.2135   C.2       1 RES1   0.0000
    33 C33      7.2472   7.7654   4.9877   C.2       1 RES1   0.0000
    34 C34      8.5152   7.7584   5.4834   C.2       1 RES1   0.0000
    35 C35      9.3875   6.7259   5.2447   C.2       1 RES1   0.0000
    36 B36     10.7949   6.7887   5.8139   B         1 RES1   0.0000
    37 O37     11.2699   7.8226   6.5651   O.3       1 RES1   0.0000
    38 O38     11.6009   5.7888   5.4898   O.3       1 RES1   0.0000
    39 C39      8.9047   5.6562   4.4352   C.2       1 RES1   0.0000
    40 C40      7.6037   5.6874   3.9500   C.2       1 RES1   0.0000
@<TRIPOS>BOND
     1     1     2    1
     2     2     3    1
     3     2     4    1
     4     4     5    1
     5     5     6    1
     6     6     7    1
     7     7     8    1
     8     7     9    1
     9     9    10    1
    10    10    11    1
    11    11    12    2
    12    12    13    1
    13    13    14    2
    14    14    15    1
    15    15    16    2
    16     9    17    1
    17    17    18   am
    18    18    19    2
    19    18    20    1
    20    21    20    1
    21    21    22    1
    22    22    23    1
    23    24    23    1
    24    24    25    1
    25    25    26    1
    26    26    27    1
    27    28    27    1
    28     5    29    1
    29    29    30    2
    30    29    31    2
    31    29    32    1
    32    32    33    2
    33    33    34    1
    34    34    35    2
    35    35    36    1
    36    36    37    1
    37    36    38    1
    38    35    39    1
    39    39    40    2
    40    16    11    1
    41    28    21    1
    42    40    32    1
    43    28    24    1
@<TRIPOS>SUBSTRUCTURE
     1 RES1        1 GROUP             0 ****  ****    0  
@<TRIPOS>MOLECULE
ligand_97
    40    43     1     0     0
SMALL
NO_CHARGES
****
Generated from the CSD

@<TRIPOS>ATOM
     1 C1      16.2277   1.5957   1.3771   C.3       1 RES1   0.0000
     2 C2      14.8088   2.0433   1.0721   C.3       1 RES1   0.0000
     3 C3      14.0735   0.9172   0.3874   C.3       1 RES1   0.0000
     4 C4      14.0780   2.4363   2.3460   C.2       1 RES1   0.0000
     5 N5      12.7429   2.9494   2.2555   N.pl3     1 RES1   0.0000
     6 C6      11.7524   2.2024   2.9499   C.2       1 RES1   0.0000
     7 C7      12.0899   1.8115   4.3826   C.3       1 RES1   0.0000
     8 O8      12.2724   2.9873   5.1434   O.3       1 RES1   0.0000
     9 C9      10.9732   0.9141   5.0406   C.3       1 RES1   0.0000
    10 C10     10.6373  -0.3520   4.2142   C.3       1 RES1   0.0000
    11 C11      9.6901  -1.2177   4.9214   C.2       1 RES1   0.0000
    12 C12     10.1817  -2.2173   5.7815   C.2       1 RES1   0.0000
    13 C13      9.3098  -3.0256   6.5054   C.2       1 RES1   0.0000
    14 C14      7.9253  -2.8700   6.3979   C.2       1 RES1   0.0000
    15 C15      7.4170  -1.8737   5.5533   C.2       1 RES1   0.0000
    16 C16      8.2969  -1.0602   4.8269   C.2       1 RES1   0.0000
    17 N17      9.8404   1.7196   5.1985   N.am      1 RES1   0.0000
    18 C18      9.1025   1.8287   6.3144   C.2       1 RES1   0.0000
    19 O19      9.2887   1.2474   7.3830   O.2       1 RES1   0.0000
    20 O20      8.0413   2.7165   6.2020   O.3       1 RES1   0.0000
    21 C21      7.1703   2.9678   7.2861   C.3       1 RES1   0.0000
    22 C22      7.7276   3.9004   8.3619   C.3       1 RES1   0.0000
    23 O23      6.5758   4.2828   9.1293   O.3       1 RES1   0.0000
    24 C24      5.4777   4.4000   8.2424   C.3       1 RES1   0.0000
    25 O25      5.2199   5.7557   7.9464   O.3       1 RES1   0.0000
    26 C26      6.0389   6.0898   6.8394   C.3       1 RES1   0.0000
    27 C27      5.9938   4.8719   5.9400   C.3       1 RES1   0.0000
    28 C28      5.8619   3.7014   6.9218   C.3       1 RES1   0.0000
    29 S29     12.5634   4.5776   2.0123   S.o2      1 RES1   0.0000
    30 O30     11.1829   4.8576   1.8746   O.2       1 RES1   0.0000
    31 O31     13.4424   4.9626   0.9791   O.2       1 RES1   0.0000
    32 C32     13.1110   5.3606   3.4841   C.2       1 RES1   0.0000
    33 C33     12.1961   5.7179   4.4664   C.2       1 RES1   0.0000
    34 C34     12.5374   6.3569   5.6192   C.2       1 RES1   0.0000
    35 C35     13.8326   6.7131   5.9014   C.2       1 RES1   0.0000
    36 B36     14.1429   7.4397   7.1993   B         1 RES1   0.0000
    37 O37     13.2052   7.7739   8.1309   O.3       1 RES1   0.0000
    38 O38     15.4028   7.8086   7.3750   O.3       1 RES1   0.0000
    39 C39     14.8123   6.3916   4.9168   C.2       1 RES1   0.0000
    40 C40     14.4353   5.7324   3.7539   C.2       1 RES1   0.0000
@<TRIPOS>BOND
     1     1     2    1
     2     2     3    1
     3     2     4    1
     4     4     5    1
     5     5     6    1
     6     6     7    1
     7     7     8    1
     8     7     9    1
     9     9    10    1
    10    10    11    1
    11    11    12    2
    12    12    13    1
    13    13    14    2
    14    14    15    1
    15    15    16    2
    16     9    17    1
    17    17    18   am
    18    18    19    2
    19    18    20    1
    20    21    20    1
    21    21    22    1
    22    22    23    1
    23    24    23    1
    24    24    25    1
    25    25    26    1
    26    26    27    1
    27    28    27    1
    28     5    29    1
    29    29    30    2
    30    29    31    2
    31    29    32    1
    32    32    33    2
    33    33    34    1
    34    34    35    2
    35    35    36    1
    36    36    37    1
    37    36    38    1
    38    35    39    1
    39    39    40    2
    40    16    11    1
    41    28    21    1
    42    40    32    1
    43    28    24    1
@<TRIPOS>SUBSTRUCTURE
     1 RES1        1 GROUP             0 ****  ****    0  
@<TRIPOS>MOLECULE
ligand_98
    40    43     1     0     0
SMALL
NO_CHARGES
****
Generated from the CSD

@<TRIPOS>ATOM
     1 C1       3.9714  10.1350  -1.7000   C.3       1 RES1   0.0000
     2 C2       3.6301   9.1962  -0.5560   C.3       1 RES1   0.0000
     3 C3       2.5020   8.2891  -0.9829   C.3       1 RES1   0.0000
     4 C4       4.8384   8.3635  -0.1584   C.2       1 RES1   0.0000
     5 N5       4.7311   7.4616   0.9502   N.pl3     1 RES1   0.0000
     6 C6       4.8639   6.0825   0.6315   C.2       1 RES1   0.0000
     7 C7       3.5842   5.2581   0.6765   C.3       1 RES1   0.0000
     8 O8       3.8397   3.9909   0.1077   O.3       1 RES1   0.0000
     9 C9       3.0299   5.0868   2.1423   C.3       1 RES1   0.0000
    10 C10      3.9071   4.1662   3.0265   C.3       1 RES1   0.0000
    11 C11      3.2517   3.8652   4.3019   C.2       1 RES1   0.0000
    12 C12      3.4718   4.7110   5.4050   C.2       1 RES1   0.0000
    13 C13      2.8277   4.4818   6.6175   C.2       1 RES1   0.0000
    14 C14      1.9483   3.4074   6.7750   C.2       1 RES1   0.0000
    15 C15      1.7094   2.5594   5.6849   C.2       1 RES1   0.0000
    16 C16      2.3577   2.7932   4.4649   C.2       1 RES1   0.0000
    17 N17      1.7307   4.5796   2.0326   N.am      1 RES1   0.0000
    18 C18      0.6000   5.2463   2.3133   C.2       1 RES1   0.0000
    19 O19      0.5063   6.4068   2.7119   O.2       1 RES1   0.0000
    20 O20     -0.5558   4.5086   2.0973   O.3       1 RES1   0.0000
    21 C21     -1.8379   5.0598   2.3246   C.3       1 RES1   0.0000
    22 C22     -2.1547   5.8669   1.0699   C.3       1 RES1   0.0000
    23 O23     -2.7455   4.9094   0.1732   O.3       1 RES1   0.0000
    24 C24     -3.5747   4.0498   0.9608   C.3       1 RES1   0.0000
    25 O25     -3.5853   2.7463   0.4210   O.3       1 RES1   0.0000
    26 C26     -2.4896   2.0600   1.0011   C.3       1 RES1   0.0000
    27 C27     -2.4715   2.5237   2.4438   C.3       1 RES1   0.0000
    28 C28     -2.9258   3.9860   2.3544   C.3       1 RES1   0.0000
    29 S29      5.1563   8.0326   2.4454   S.o2      1 RES1   0.0000
    30 O30      4.9115   7.0138   3.3970   O.2       1 RES1   0.0000
    31 O31      4.5431   9.2901   2.6215   O.2       1 RES1   0.0000
    32 C32      6.8902   8.2978   2.3985   C.2       1 RES1   0.0000
    33 C33      7.7622   7.2780   2.7577   C.2       1 RES1   0.0000
    34 C34      9.1166   7.4154   2.7791   C.2       1 RES1   0.0000
    35 C35      9.7366   8.5954   2.4516   C.2       1 RES1   0.0000
    36 B36     11.2521   8.6863   2.5124   B         1 RES1   0.0000
    37 O37     12.0653   7.6550   2.8782   O.3       1 RES1   0.0000
    38 O38     11.7770   9.8727   2.2454   O.3       1 RES1   0.0000
    39 C39      8.8887   9.6852   2.0967   C.2       1 RES1   0.0000
    40 C40      7.5107   9.5128   2.0763   C.2       1 RES1   0.0000
@<TRIPOS>BOND
     1     1     2    1
     2     2     3    1
     3     2     4    1
     4     4     5    1
     5     5     6    1
     6     6     7    1
     7     7     8    1
     8     7     9    1
     9     9    10    1
    10    10    11    1
    11    11    12    2
    12    12    13    1
    13    13    14    2
    14    14    15    1
    15    15    16    2
    16     9    17    1
    17    17    18   am
    18    18    19    2
    19    18    20    1
    20    21    20    1
    21    21    22    1
    22    22    23    1
    23    24    23    1
    24    24    25    1
    25    25    26    1
    26    26    27    1
    27    28    27    1
    28     5    29    1
    29    29    30    2
    30    29    31    2
    31    29    32    1
    32    32    33    2
    33    33    34    1
    34    34    35    2
    35    35    36    1
    36    36    37    1
    37    36    38    1
    38    35    39    1
    39    39    40    2
    40    16    11    1
    41    28    21    1
    42    40    32    1
    43    28    24    1
@<TRIPOS>SUBSTRUCTURE
     1 RES1        1 GROUP             0 ****  ****    0  
@<TRIPOS>MOLECULE
ligand_99
    40    43     1     0     0
SMALL
NO_CHARGES
****
Generated from the CSD

@<TRIPOS>ATOM
     1 C1      17.1346   3.9440   5.6262   C.3       1 RES1   0.0000
     2 C2      15.9382   3.6469   4.7392   C.3       1 RES1   0.0000
     3 C3      15.9203   2.1733   4.4135   C.3       1 RES1   0.0000
     4 C4      14.6409   4.0377   5.4288   C.2       1 RES1   0.0000
     5 N5      13.4046   3.9106   4.7152   N.pl3     1 RES1   0.0000
     6 C6      12.4717   2.9907   5.2673   C.2       1 RES1   0.0000
     7 C7      12.0899   1.8115   4.3826   C.3       1 RES1   0.0000
     8 O8      13.2443   1.0359   4.1360   O.3       1 RES1   0.0000
     9 C9      10.9673   0.9129   5.0287   C.3       1 RES1   0.0000
    10 C10     10.6177  -0.3359   4.1820   C.3       1 RES1   0.0000
    11 C11      9.6650  -1.2052   4.8774   C.2       1 RES1   0.0000
    12 C12     10.1503  -2.2236   5.7188   C.2       1 RES1   0.0000
    13 C13      9.2734  -3.0364   6.4316   C.2       1 RES1   0.0000
    14 C14      7.8900  -2.8668   6.3311   C.2       1 RES1   0.0000
    15 C15      7.3880  -1.8518   5.5051   C.2       1 RES1   0.0000
    16 C16      8.2729  -1.0338   4.7899   C.2       1 RES1   0.0000
    17 N17      9.8421   1.7255   5.2039   N.am      1 RES1   0.0000
    18 C18      9.1085   1.8221   6.3238   C.2       1 RES1   0.0000
    19 O19      9.2928   1.2210   7.3817   O.2       1 RES1   0.0000
    20 O20      8.0549   2.7210   6.2299   O.3       1 RES1   0.0000
    21 C21      7.1895   2.9615   7.3208   C.3       1 RES1   0.0000
    22 C22      7.7582   3.8707   8.4105   C.3       1 RES1   0.0000
    23 O23      6.6122   4.2501   9.1880   O.3       1 RES1   0.0000
    24 C24      5.5126   4.3921   8.3066   C.3       1 RES1   0.0000
    25 O25      5.2658   5.7548   8.0346   O.3       1 RES1   0.0000
    26 C26      6.0844   6.1005   6.9308   C.3       1 RES1   0.0000
    27 C27      6.0259   4.8985   6.0110   C.3       1 RES1   0.0000
    28 C28      5.8865   3.7127   6.9731   C.3       1 RES1   0.0000
    29 S29     12.8908   5.2162   3.8354   S.o2      1 RES1   0.0000
    30 O30     13.9788   6.1093   3.6877   O.2       1 RES1   0.0000
    31 O31     11.6959   5.6890   4.4159   O.2       1 RES1   0.0000
    32 C32     12.4923   4.6097   2.2378   C.2       1 RES1   0.0000
    33 C33     13.4621   4.5708   1.2441   C.2       1 RES1   0.0000
    34 C34     13.2236   4.1459  -0.0272   C.2       1 RES1   0.0000
    35 C35     11.9828   3.7249  -0.4363   C.2       1 RES1   0.0000
    36 B36     11.7807   3.2790  -1.8747   B         1 RES1   0.0000
    37 O37     12.7668   3.2652  -2.8161   O.3       1 RES1   0.0000
    38 O38     10.5443   2.9474  -2.2149   O.3       1 RES1   0.0000
    39 C39     10.9418   3.7654   0.5369   C.2       1 RES1   0.0000
    40 C40     11.2170   4.1963   1.8282   C.2       1 RES1   0.0000
@<TRIPOS>BOND
     1     1     2    1
     2     2     3    1
     3     2     4    1
     4     4     5    1
     5     5     6    1
     6     6     7    1
     7     7     8    1
     8     7     9    1
     9     9    10    1
    10    10    11    1
    11    11    12    2
    12    12    13    1
    13    13    14    2
    14    14    15    1
    15    15    16    2
    16     9    17    1
    17    17    18   am
    18    18    19    2
    19    18    20    1
    20    21    20    1
    21    21    22    1
    22    22    23    1
    23    24    23    1
    24    24    25    1
    25    25    26    1
    26    26    27    1
    27    28    27    1
    28     5    29    1
    29    29    30    2
    30    29    31    2
    31    29    32    1
    32    32    33    2
    33    33    34    1
    34    34    35    2
    35    35    36    1
    36    36    37    1
    37    36    38    1
    38    35    39    1
    39    39    40    2
    40    16    11    1
    41    28    21    1
    42    40    32    1
    43    28    24    1
@<TRIPOS>SUBSTRUCTURE
     1 RES1        1 GROUP             0 ****  ****    0  
