@<TRIPOS>MOLECULE
native
    33    34     1     0     0
SMALL
NO_CHARGES
****
Generated from the CSD

@<TRIPOS>ATOM
     1 C1       3.0730  38.0660  37.3190   C.2       1 RES1   0.0000
     2 C2       2.3390  38.8530  38.0810   C.2       1 RES1   0.0000
     3 C3       0.9140  38.6100  38.3380   C.2       1 RES1   0.0000
     4 C4       0.3600  37.4130  38.6880   C.2       1 RES1   0.0000
     5 C5       1.0390  36.1830  38.9310   C.2       1 RES1   0.0000
     6 C6       0.5170  34.9340  39.0530   C.2       1 RES1   0.0000
     7 C7      -0.9350  34.5690  38.9370   C.3       1 RES1   0.0000
     8 C8      -1.3900  34.0890  37.5630   C.3       1 RES1   0.0000
     9 C9      -1.8090  35.2140  36.6320   C.3       1 RES1   0.0000
    10 C10     -1.9830  34.7740  35.1870   C.3       1 RES1   0.0000
    11 C11     -2.8480  33.5470  34.9960   C.3       1 RES1   0.0000
    12 C12     -2.9010  33.0850  33.5600   C.3       1 RES1   0.0000
    13 C13      1.4930  33.8520  39.3410   C.2       1 RES1   0.0000
    14 C14      2.5240  34.0560  40.2510   C.2       1 RES1   0.0000
    15 C15      3.4390  33.0510  40.5010   C.2       1 RES1   0.0000
    16 C16      3.3360  31.8380  39.8470   C.2       1 RES1   0.0000
    17 C17      2.3190  31.6110  38.9340   C.2       1 RES1   0.0000
    18 C18      2.2190  30.3010  38.1900   C.3       1 RES1   0.0000
    19 C19      2.9060  30.3190  36.8220   C.3       1 RES1   0.0000
    20 C20      4.4210  30.1990  36.8770   C.3       1 RES1   0.0000
    21 C21      5.1320  30.5990  35.5930   C.3       1 RES1   0.0000
    22 C22      4.5530  29.9370  34.3460   C.3       1 RES1   0.0000
    23 C23      5.5260  29.0970  33.5250   C.3       1 RES1   0.0000
    24 C24      6.8080  29.8620  33.2310   C.3       1 RES1   0.0000
    25 C25      4.8810  28.6140  32.2350   C.3       1 RES1   0.0000
    26 O26      5.8720  27.9360  34.3040   O.3       1 RES1   0.0000
    27 C27      1.3970  32.6250  38.6900   C.2       1 RES1   0.0000
    28 C28      0.0290  39.8160  38.1190   C.3       1 RES1   0.0000
    29 C29      0.5900  41.0780  38.7470   C.3       1 RES1   0.0000
    30 O30      0.5280  41.0010  40.1730   O.3       1 RES1   0.0000
    31 C31      2.0240  41.2740  38.2980   C.3       1 RES1   0.0000
    32 C32      2.8670  40.0950  38.7590   C.3       1 RES1   0.0000
    33 O33      4.2230  40.2840  38.3640   O.3       1 RES1   0.0000
@<TRIPOS>BOND
     1     1     2    2
     2     2     3    1
     3     3     4    2
     4     4     5    1
     5     5     6    2
     6     6     7    1
     7     7     8    1
     8     8     9    1
     9     9    10    1
    10    10    11    1
    11    11    12    1
    12     6    13    1
    13    13    14    2
    14    14    15    1
    15    15    16    2
    16    16    17    1
    17    17    18    1
    18    18    19    1
    19    19    20    1
    20    20    21    1
    21    21    22    1
    22    22    23    1
    23    23    24    1
    24    23    25    1
    25    23    26    1
    26    17    27    2
    27     3    28    1
    28    28    29    1
    29    29    30    1
    30    29    31    1
    31    31    32    1
    32    32    33    1
    33    32     2    1
    34    27    13    1
@<TRIPOS>SUBSTRUCTURE
     1 RES1        1 GROUP             0 ****  ****    0  
@<TRIPOS>MOLECULE
ligand_0
    33    34     1     0     0
SMALL
NO_CHARGES
****
Generated from the CSD

@<TRIPOS>ATOM
     1 C1       3.2626  39.5857  41.0861   C.2       1 RES1   0.0000
     2 C2       3.8044  38.5009  40.5680   C.2       1 RES1   0.0000
     3 C3       3.0458  37.2604  40.2948   C.2       1 RES1   0.0000
     4 C4       1.8444  37.1940  39.6510   C.2       1 RES1   0.0000
     5 C5       1.1138  38.2711  39.0686   C.2       1 RES1   0.0000
     6 C6      -0.0817  38.2358  38.4230   C.2       1 RES1   0.0000
     7 C7      -0.9247  37.0146  38.1926   C.3       1 RES1   0.0000
     8 C8      -0.9869  36.5141  36.7535   C.3       1 RES1   0.0000
     9 C9      -1.8517  35.2780  36.5747   C.3       1 RES1   0.0000
    10 C10     -1.9121  34.7811  35.1389   C.3       1 RES1   0.0000
    11 C11     -2.7664  33.5499  34.9278   C.3       1 RES1   0.0000
    12 C12     -2.7947  33.0958  33.4886   C.3       1 RES1   0.0000
    13 C13     -0.5687  39.5360  37.8953   C.2       1 RES1   0.0000
    14 C14     -1.9207  39.8559  37.9460   C.2       1 RES1   0.0000
    15 C15     -2.3693  41.0599  37.4371   C.2       1 RES1   0.0000
    16 C16     -1.4775  41.9523  36.8732   C.2       1 RES1   0.0000
    17 C17     -0.1257  41.6557  36.8087   C.2       1 RES1   0.0000
    18 C18      0.8506  42.6100  36.1639   C.3       1 RES1   0.0000
    19 C19      1.3896  43.6756  37.1218   C.3       1 RES1   0.0000
    20 C20      2.3752  44.6475  36.4918   C.3       1 RES1   0.0000
    21 C21      2.9112  45.7067  37.4430   C.3       1 RES1   0.0000
    22 C22      3.8975  46.6691  36.7876   C.3       1 RES1   0.0000
    23 C23      4.4701  47.7550  37.6928   C.3       1 RES1   0.0000
    24 C24      3.3713  48.6444  38.2556   C.3       1 RES1   0.0000
    25 C25      5.5120  48.5868  36.9608   C.3       1 RES1   0.0000
    26 O26      5.1250  47.1064  38.7995   O.3       1 RES1   0.0000
    27 C27      0.3213  40.4438  37.3276   C.2       1 RES1   0.0000
    28 C28      3.6744  35.9967  40.8571   C.3       1 RES1   0.0000
    29 C29      5.1699  35.8852  40.5696   C.3       1 RES1   0.0000
    30 O30      5.3432  35.6239  39.1750   O.3       1 RES1   0.0000
    31 C31      5.8916  37.1715  40.9626   C.3       1 RES1   0.0000
    32 C32      5.2968  38.3947  40.2653   C.3       1 RES1   0.0000
    33 O33      6.0150  39.5848  40.5791   O.3       1 RES1   0.0000
@<TRIPOS>BOND
     1     1     2    2
     2     2     3    1
     3     3     4    2
     4     4     5    1
     5     5     6    2
     6     6     7    1
     7     7     8    1
     8     8     9    1
     9     9    10    1
    10    10    11    1
    11    11    12    1
    12     6    13    1
    13    13    14    2
    14    14    15    1
    15    15    16    2
    16    16    17    1
    17    17    18    1
    18    18    19    1
    19    19    20    1
    20    20    21    1
    21    21    22    1
    22    22    23    1
    23    23    24    1
    24    23    25    1
    25    23    26    1
    26    17    27    2
    27     3    28    1
    28    28    29    1
    29    29    30    1
    30    29    31    1
    31    31    32    1
    32    32    33    1
    33    32     2    1
    34    27    13    1
@<TRIPOS>SUBSTRUCTURE
     1 RES1        1 GROUP             0 ****  ****    0  
@<TRIPOS>MOLECULE
ligand_1
    33    34     1     0     0
SMALL
NO_CHARGES
****
Generated from the CSD

@<TRIPOS>ATOM
     1 C1       3.2626  39.5857  41.0861   C.2       1 RES1   0.0000
     2 C2       3.8044  38.5009  40.5680   C.2       1 RES1   0.0000
     3 C3       3.0458  37.2604  40.2948   C.2       1 RES1   0.0000
     4 C4       1.8444  37.1940  39.6510   C.2       1 RES1   0.0000
     5 C5       1.1138  38.2711  39.0686   C.2       1 RES1   0.0000
     6 C6      -0.0817  38.2358  38.4230   C.2       1 RES1   0.0000
     7 C7      -0.9247  37.0146  38.1926   C.3       1 RES1   0.0000
     8 C8      -0.9869  36.5141  36.7535   C.3       1 RES1   0.0000
     9 C9      -1.8517  35.2780  36.5747   C.3       1 RES1   0.0000
    10 C10     -1.9121  34.7811  35.1389   C.3       1 RES1   0.0000
    11 C11     -2.7664  33.5499  34.9278   C.3       1 RES1   0.0000
    12 C12     -2.7947  33.0958  33.4886   C.3       1 RES1   0.0000
    13 C13     -0.5687  39.5360  37.8953   C.2       1 RES1   0.0000
    14 C14     -1.9207  39.8559  37.9460   C.2       1 RES1   0.0000
    15 C15     -2.3693  41.0599  37.4371   C.2       1 RES1   0.0000
    16 C16     -1.4775  41.9523  36.8732   C.2       1 RES1   0.0000
    17 C17     -0.1257  41.6557  36.8087   C.2       1 RES1   0.0000
    18 C18      0.8506  42.6100  36.1639   C.3       1 RES1   0.0000
    19 C19      1.1044  42.3192  34.6824   C.3       1 RES1   0.0000
    20 C20      2.0854  43.2694  34.0136   C.3       1 RES1   0.0000
    21 C21      2.3382  42.9811  32.5415   C.3       1 RES1   0.0000
    22 C22      3.3254  43.9477  31.8936   C.3       1 RES1   0.0000
    23 C23      3.6194  43.7087  30.4162   C.3       1 RES1   0.0000
    24 C24      4.2154  42.3279  30.1854   C.3       1 RES1   0.0000
    25 C25      4.5331  44.7883  29.8567   C.3       1 RES1   0.0000
    26 O26      2.3707  43.7770  29.7016   O.3       1 RES1   0.0000
    27 C27      0.3213  40.4438  37.3276   C.2       1 RES1   0.0000
    28 C28      3.6744  35.9967  40.8571   C.3       1 RES1   0.0000
    29 C29      5.1699  35.8852  40.5696   C.3       1 RES1   0.0000
    30 O30      5.3432  35.6239  39.1750   O.3       1 RES1   0.0000
    31 C31      5.8916  37.1715  40.9626   C.3       1 RES1   0.0000
    32 C32      5.2968  38.3947  40.2653   C.3       1 RES1   0.0000
    33 O33      6.0150  39.5848  40.5791   O.3       1 RES1   0.0000
@<TRIPOS>BOND
     1     1     2    2
     2     2     3    1
     3     3     4    2
     4     4     5    1
     5     5     6    2
     6     6     7    1
     7     7     8    1
     8     8     9    1
     9     9    10    1
    10    10    11    1
    11    11    12    1
    12     6    13    1
    13    13    14    2
    14    14    15    1
    15    15    16    2
    16    16    17    1
    17    17    18    1
    18    18    19    1
    19    19    20    1
    20    20    21    1
    21    21    22    1
    22    22    23    1
    23    23    24    1
    24    23    25    1
    25    23    26    1
    26    17    27    2
    27     3    28    1
    28    28    29    1
    29    29    30    1
    30    29    31    1
    31    31    32    1
    32    32    33    1
    33    32     2    1
    34    27    13    1
@<TRIPOS>SUBSTRUCTURE
     1 RES1        1 GROUP             0 ****  ****    0  
@<TRIPOS>MOLECULE
ligand_2
    33    34     1     0     0
SMALL
NO_CHARGES
****
Generated from the CSD

@<TRIPOS>ATOM
     1 C1      -0.4977  42.6995  38.4521   C.2       1 RES1   0.0000
     2 C2      -1.4166  42.3768  39.3411   C.2       1 RES1   0.0000
     3 C3      -2.2908  41.1897  39.2172   C.2       1 RES1   0.0000
     4 C4      -1.8708  39.9265  38.9169   C.2       1 RES1   0.0000
     5 C5      -0.5295  39.4837  38.7224   C.2       1 RES1   0.0000
     6 C6      -0.0817  38.2358  38.4230   C.2       1 RES1   0.0000
     7 C7      -0.9357  37.0192  38.2094   C.3       1 RES1   0.0000
     8 C8      -1.2850  36.7009  36.7596   C.3       1 RES1   0.0000
     9 C9      -2.1601  35.4694  36.5994   C.3       1 RES1   0.0000
    10 C10     -2.5068  35.1542  35.1529   C.3       1 RES1   0.0000
    11 C11     -3.3782  33.9321  34.9600   C.3       1 RES1   0.0000
    12 C12     -3.6945  33.6609  33.5092   C.3       1 RES1   0.0000
    13 C13      1.3924  38.0873  38.3169   C.2       1 RES1   0.0000
    14 C14      1.9493  37.2417  37.3643   C.2       1 RES1   0.0000
    15 C15      3.3210  37.0948  37.2828   C.2       1 RES1   0.0000
    16 C16      4.1473  37.7859  38.1485   C.2       1 RES1   0.0000
    17 C17      3.6165  38.6327  39.1080   C.2       1 RES1   0.0000
    18 C18      4.5102  39.3653  40.0797   C.3       1 RES1   0.0000
    19 C19      5.0258  40.7051  39.5479   C.3       1 RES1   0.0000
    20 C20      5.9283  41.4594  40.5118   C.3       1 RES1   0.0000
    21 C21      6.4411  42.7909  39.9841   C.3       1 RES1   0.0000
    22 C22      7.3438  43.5281  40.9690   C.3       1 RES1   0.0000
    23 C23      7.8896  44.8713  40.4955   C.3       1 RES1   0.0000
    24 C24      8.7294  44.7160  39.2362   C.3       1 RES1   0.0000
    25 C25      8.6891  45.5566  41.5930   C.3       1 RES1   0.0000
    26 O26      6.7671  45.7159  40.1777   O.3       1 RES1   0.0000
    27 C27      2.2344  38.7810  39.1821   C.2       1 RES1   0.0000
    28 C28     -3.7737  41.4747  39.3854   C.3       1 RES1   0.0000
    29 C29     -4.0877  42.3527  40.5945   C.3       1 RES1   0.0000
    30 O30     -3.8682  41.5843  41.7797   O.3       1 RES1   0.0000
    31 C31     -3.2064  43.5990  40.5989   C.3       1 RES1   0.0000
    32 C32     -1.7198  43.2462  40.5587   C.3       1 RES1   0.0000
    33 O33     -0.8974  44.4075  40.6328   O.3       1 RES1   0.0000
@<TRIPOS>BOND
     1     1     2    2
     2     2     3    1
     3     3     4    2
     4     4     5    1
     5     5     6    2
     6     6     7    1
     7     7     8    1
     8     8     9    1
     9     9    10    1
    10    10    11    1
    11    11    12    1
    12     6    13    1
    13    13    14    2
    14    14    15    1
    15    15    16    2
    16    16    17    1
    17    17    18    1
    18    18    19    1
    19    19    20    1
    20    20    21    1
    21    21    22    1
    22    22    23    1
    23    23    24    1
    24    23    25    1
    25    23    26    1
    26    17    27    2
    27     3    28    1
    28    28    29    1
    29    29    30    1
    30    29    31    1
    31    31    32    1
    32    32    33    1
    33    32     2    1
    34    27    13    1
@<TRIPOS>SUBSTRUCTURE
     1 RES1        1 GROUP             0 ****  ****    0  
@<TRIPOS>MOLECULE
ligand_3
    33    34     1     0     0
SMALL
NO_CHARGES
****
Generated from the CSD

@<TRIPOS>ATOM
     1 C1      -0.4977  42.6995  38.4521   C.2       1 RES1   0.0000
     2 C2      -1.4166  42.3768  39.3411   C.2       1 RES1   0.0000
     3 C3      -2.2908  41.1897  39.2172   C.2       1 RES1   0.0000
     4 C4      -1.8708  39.9265  38.9169   C.2       1 RES1   0.0000
     5 C5      -0.5295  39.4837  38.7224   C.2       1 RES1   0.0000
     6 C6      -0.0817  38.2358  38.4230   C.2       1 RES1   0.0000
     7 C7      -0.9357  37.0192  38.2094   C.3       1 RES1   0.0000
     8 C8      -1.2850  36.7009  36.7596   C.3       1 RES1   0.0000
     9 C9      -2.1601  35.4694  36.5994   C.3       1 RES1   0.0000
    10 C10     -2.5068  35.1542  35.1529   C.3       1 RES1   0.0000
    11 C11     -3.3782  33.9321  34.9600   C.3       1 RES1   0.0000
    12 C12     -3.6945  33.6609  33.5092   C.3       1 RES1   0.0000
    13 C13      1.3924  38.0873  38.3169   C.2       1 RES1   0.0000
    14 C14      1.9493  37.2417  37.3643   C.2       1 RES1   0.0000
    15 C15      3.3210  37.0948  37.2828   C.2       1 RES1   0.0000
    16 C16      4.1473  37.7859  38.1485   C.2       1 RES1   0.0000
    17 C17      3.6165  38.6327  39.1080   C.2       1 RES1   0.0000
    18 C18      4.5102  39.3653  40.0797   C.3       1 RES1   0.0000
    19 C19      4.7203  38.6203  41.4006   C.3       1 RES1   0.0000
    20 C20      5.6179  39.3415  42.3939   C.3       1 RES1   0.0000
    21 C21      5.8271  38.6020  43.7067   C.3       1 RES1   0.0000
    22 C22      6.7308  39.3456  44.6860   C.3       1 RES1   0.0000
    23 C23      6.9782  38.6526  46.0220   C.3       1 RES1   0.0000
    24 C24      5.6782  38.4306  46.7809   C.3       1 RES1   0.0000
    25 C25      7.9687  39.4346  46.8709   C.3       1 RES1   0.0000
    26 O26      7.5572  37.3624  45.7488   O.3       1 RES1   0.0000
    27 C27      2.2344  38.7810  39.1821   C.2       1 RES1   0.0000
    28 C28     -3.7737  41.4747  39.3854   C.3       1 RES1   0.0000
    29 C29     -4.0877  42.3527  40.5945   C.3       1 RES1   0.0000
    30 O30     -3.8682  41.5843  41.7797   O.3       1 RES1   0.0000
    31 C31     -3.2064  43.5990  40.5989   C.3       1 RES1   0.0000
    32 C32     -1.7198  43.2462  40.5587   C.3       1 RES1   0.0000
    33 O33     -0.8974  44.4075  40.6328   O.3       1 RES1   0.0000
@<TRIPOS>BOND
     1     1     2    2
     2     2     3    1
     3     3     4    2
     4     4     5    1
     5     5     6    2
     6     6     7    1
     7     7     8    1
     8     8     9    1
     9     9    10    1
    10    10    11    1
    11    11    12    1
    12     6    13    1
    13    13    14    2
    14    14    15    1
    15    15    16    2
    16    16    17    1
    17    17    18    1
    18    18    19    1
    19    19    20    1
    20    20    21    1
    21    21    22    1
    22    22    23    1
    23    23    24    1
    24    23    25    1
    25    23    26    1
    26    17    27    2
    27     3    28    1
    28    28    29    1
    29    29    30    1
    30    29    31    1
    31    31    32    1
    32    32    33    1
    33    32     2    1
    34    27    13    1
@<TRIPOS>SUBSTRUCTURE
     1 RES1        1 GROUP             0 ****  ****    0  
@<TRIPOS>MOLECULE
ligand_4
    33    34     1     0     0
SMALL
NO_CHARGES
****
Generated from the CSD

@<TRIPOS>ATOM
     1 C1      -0.4916  42.6987  38.5375   C.2       1 RES1   0.0000
     2 C2      -1.4127  42.3602  39.4184   C.2       1 RES1   0.0000
     3 C3      -2.2883  41.1770  39.2698   C.2       1 RES1   0.0000
     4 C4      -1.8694  39.9192  38.9460   C.2       1 RES1   0.0000
     5 C5      -0.5284  39.4783  38.7456   C.2       1 RES1   0.0000
     6 C6      -0.0817  38.2358  38.4230   C.2       1 RES1   0.0000
     7 C7      -0.9370  37.0248  38.1843   C.3       1 RES1   0.0000
     8 C8      -1.0218  36.5479  36.7384   C.3       1 RES1   0.0000
     9 C9      -1.8983  35.3212  36.5513   C.3       1 RES1   0.0000
    10 C10     -1.9812  34.8478  35.1088   C.3       1 RES1   0.0000
    11 C11     -2.8477  33.6266  34.8894   C.3       1 RES1   0.0000
    12 C12     -2.8982  33.1958  33.4437   C.3       1 RES1   0.0000
    13 C13      1.3924  38.0873  38.3169   C.2       1 RES1   0.0000
    14 C14      2.0194  36.9327  38.7710   C.2       1 RES1   0.0000
    15 C15      3.3931  36.8085  38.6855   C.2       1 RES1   0.0000
    16 C16      4.1520  37.8317  38.1498   C.2       1 RES1   0.0000
    17 C17      3.5510  38.9932  37.6926   C.2       1 RES1   0.0000
    18 C18      4.3754  40.1296  37.1372   C.3       1 RES1   0.0000
    19 C19      4.6734  39.9968  35.6414   C.3       1 RES1   0.0000
    20 C20      5.5031  41.1319  35.0618   C.3       1 RES1   0.0000
    21 C21      5.7996  41.0007  33.5756   C.3       1 RES1   0.0000
    22 C22      6.6330  42.1511  33.0182   C.3       1 RES1   0.0000
    23 C23      6.9630  42.0751  31.5310   C.3       1 RES1   0.0000
    24 C24      7.7590  40.8206  31.2027   C.3       1 RES1   0.0000
    25 C25      7.7065  43.3190  31.0694   C.3       1 RES1   0.0000
    26 O26      5.7198  42.0128  30.8063   O.3       1 RES1   0.0000
    27 C27      2.1664  39.1106  37.7763   C.2       1 RES1   0.0000
    28 C28     -3.7711  41.4607  39.4407   C.3       1 RES1   0.0000
    29 C29     -4.0863  42.3157  40.6659   C.3       1 RES1   0.0000
    30 O30     -3.8702  41.5241  41.8364   O.3       1 RES1   0.0000
    31 C31     -3.2033  43.5604  40.6961   C.3       1 RES1   0.0000
    32 C32     -1.7171  43.2062  40.6520   C.3       1 RES1   0.0000
    33 O33     -0.8932  44.3648  40.7501   O.3       1 RES1   0.0000
@<TRIPOS>BOND
     1     1     2    2
     2     2     3    1
     3     3     4    2
     4     4     5    1
     5     5     6    2
     6     6     7    1
     7     7     8    1
     8     8     9    1
     9     9    10    1
    10    10    11    1
    11    11    12    1
    12     6    13    1
    13    13    14    2
    14    14    15    1
    15    15    16    2
    16    16    17    1
    17    17    18    1
    18    18    19    1
    19    19    20    1
    20    20    21    1
    21    21    22    1
    22    22    23    1
    23    23    24    1
    24    23    25    1
    25    23    26    1
    26    17    27    2
    27     3    28    1
    28    28    29    1
    29    29    30    1
    30    29    31    1
    31    31    32    1
    32    32    33    1
    33    32     2    1
    34    27    13    1
@<TRIPOS>SUBSTRUCTURE
     1 RES1        1 GROUP             0 ****  ****    0  
@<TRIPOS>MOLECULE
ligand_5
    33    34     1     0     0
SMALL
NO_CHARGES
****
Generated from the CSD

@<TRIPOS>ATOM
     1 C1      -0.4916  42.6987  38.5375   C.2       1 RES1   0.0000
     2 C2      -1.4127  42.3602  39.4184   C.2       1 RES1   0.0000
     3 C3      -2.2883  41.1770  39.2698   C.2       1 RES1   0.0000
     4 C4      -1.8694  39.9192  38.9460   C.2       1 RES1   0.0000
     5 C5      -0.5284  39.4783  38.7456   C.2       1 RES1   0.0000
     6 C6      -0.0817  38.2358  38.4230   C.2       1 RES1   0.0000
     7 C7      -0.9370  37.0248  38.1843   C.3       1 RES1   0.0000
     8 C8      -1.0218  36.5479  36.7384   C.3       1 RES1   0.0000
     9 C9      -1.8983  35.3212  36.5513   C.3       1 RES1   0.0000
    10 C10     -1.9812  34.8478  35.1088   C.3       1 RES1   0.0000
    11 C11     -2.8477  33.6266  34.8894   C.3       1 RES1   0.0000
    12 C12     -2.8982  33.1958  33.4437   C.3       1 RES1   0.0000
    13 C13      1.3924  38.0873  38.3169   C.2       1 RES1   0.0000
    14 C14      2.0194  36.9327  38.7710   C.2       1 RES1   0.0000
    15 C15      3.3931  36.8085  38.6855   C.2       1 RES1   0.0000
    16 C16      4.1520  37.8317  38.1498   C.2       1 RES1   0.0000
    17 C17      3.5510  38.9932  37.6926   C.2       1 RES1   0.0000
    18 C18      4.3754  40.1296  37.1372   C.3       1 RES1   0.0000
    19 C19      4.7470  41.1851  38.1820   C.3       1 RES1   0.0000
    20 C20      5.5779  42.3390  37.6428   C.3       1 RES1   0.0000
    21 C21      5.9475  43.3883  38.6804   C.3       1 RES1   0.0000
    22 C22      6.7806  44.5350  38.1152   C.3       1 RES1   0.0000
    23 C23      7.1824  45.6196  39.1095   C.3       1 RES1   0.0000
    24 C24      5.9618  46.2889  39.7237   C.3       1 RES1   0.0000
    25 C25      8.0903  46.6519  38.4586   C.3       1 RES1   0.0000
    26 O26      7.9242  44.9908  40.1719   O.3       1 RES1   0.0000
    27 C27      2.1664  39.1106  37.7763   C.2       1 RES1   0.0000
    28 C28     -3.7711  41.4607  39.4407   C.3       1 RES1   0.0000
    29 C29     -4.0863  42.3157  40.6659   C.3       1 RES1   0.0000
    30 O30     -3.8702  41.5241  41.8364   O.3       1 RES1   0.0000
    31 C31     -3.2033  43.5604  40.6961   C.3       1 RES1   0.0000
    32 C32     -1.7171  43.2062  40.6520   C.3       1 RES1   0.0000
    33 O33     -0.8932  44.3648  40.7501   O.3       1 RES1   0.0000
@<TRIPOS>BOND
     1     1     2    2
     2     2     3    1
     3     3     4    2
     4     4     5    1
     5     5     6    2
     6     6     7    1
     7     7     8    1
     8     8     9    1
     9     9    10    1
    10    10    11    1
    11    11    12    1
    12     6    13    1
    13    13    14    2
    14    14    15    1
    15    15    16    2
    16    16    17    1
    17    17    18    1
    18    18    19    1
    19    19    20    1
    20    20    21    1
    21    21    22    1
    22    22    23    1
    23    23    24    1
    24    23    25    1
    25    23    26    1
    26    17    27    2
    27     3    28    1
    28    28    29    1
    29    29    30    1
    30    29    31    1
    31    31    32    1
    32    32    33    1
    33    32     2    1
    34    27    13    1
@<TRIPOS>SUBSTRUCTURE
     1 RES1        1 GROUP             0 ****  ****    0  
@<TRIPOS>MOLECULE
ligand_6
    33    34     1     0     0
SMALL
NO_CHARGES
****
Generated from the CSD

@<TRIPOS>ATOM
     1 C1       3.2588  39.5861  41.0906   C.2       1 RES1   0.0000
     2 C2       3.8017  38.5018  40.5727   C.2       1 RES1   0.0000
     3 C3       3.0441  37.2611  40.2981   C.2       1 RES1   0.0000
     4 C4       1.8435  37.1944  39.6528   C.2       1 RES1   0.0000
     5 C5       1.1130  38.2714  39.0700   C.2       1 RES1   0.0000
     6 C6      -0.0817  38.2358  38.4230   C.2       1 RES1   0.0000
     7 C7      -0.9239  37.0143  38.1911   C.3       1 RES1   0.0000
     8 C8      -0.7219  36.3147  36.8512   C.3       1 RES1   0.0000
     9 C9      -1.5957  35.0856  36.6673   C.3       1 RES1   0.0000
    10 C10     -1.3924  34.3900  35.3307   C.3       1 RES1   0.0000
    11 C11     -2.2491  33.1609  35.1170   C.3       1 RES1   0.0000
    12 C12     -2.0116  32.5065  33.7778   C.3       1 RES1   0.0000
    13 C13     -0.5687  39.5360  37.8953   C.2       1 RES1   0.0000
    14 C14     -1.2609  39.5937  36.6910   C.2       1 RES1   0.0000
    15 C15     -1.6957  40.8089  36.1970   C.2       1 RES1   0.0000
    16 C16     -1.4438  41.9741  36.8960   C.2       1 RES1   0.0000
    17 C17     -0.7541  41.9433  38.0971   C.2       1 RES1   0.0000
    18 C18     -0.4452  43.2149  38.8501   C.3       1 RES1   0.0000
    19 C19     -1.5653  43.6545  39.7965   C.3       1 RES1   0.0000
    20 C20     -1.2740  44.9339  40.5651   C.3       1 RES1   0.0000
    21 C21     -2.3866  45.3714  41.5058   C.3       1 RES1   0.0000
    22 C22     -2.0705  46.6568  42.2649   C.3       1 RES1   0.0000
    23 C23     -3.1500  47.1462  43.2248   C.3       1 RES1   0.0000
    24 C24     -4.4532  47.4340  42.4941   C.3       1 RES1   0.0000
    25 C25     -2.6845  48.3720  43.9956   C.3       1 RES1   0.0000
    26 O26     -3.4000  46.0968  44.1791   O.3       1 RES1   0.0000
    27 C27     -0.3231  40.7158  38.5925   C.2       1 RES1   0.0000
    28 C28      3.6726  35.9974  40.8605   C.3       1 RES1   0.0000
    29 C29      5.1685  35.8867  40.5747   C.3       1 RES1   0.0000
    30 O30      5.3436  35.6262  39.1802   O.3       1 RES1   0.0000
    31 C31      5.8891  37.1732  40.9692   C.3       1 RES1   0.0000
    32 C32      5.2946  38.3965  40.2717   C.3       1 RES1   0.0000
    33 O33      6.0118  39.5868  40.5869   O.3       1 RES1   0.0000
@<TRIPOS>BOND
     1     1     2    2
     2     2     3    1
     3     3     4    2
     4     4     5    1
     5     5     6    2
     6     6     7    1
     7     7     8    1
     8     8     9    1
     9     9    10    1
    10    10    11    1
    11    11    12    1
    12     6    13    1
    13    13    14    2
    14    14    15    1
    15    15    16    2
    16    16    17    1
    17    17    18    1
    18    18    19    1
    19    19    20    1
    20    20    21    1
    21    21    22    1
    22    22    23    1
    23    23    24    1
    24    23    25    1
    25    23    26    1
    26    17    27    2
    27     3    28    1
    28    28    29    1
    29    29    30    1
    30    29    31    1
    31    31    32    1
    32    32    33    1
    33    32     2    1
    34    27    13    1
@<TRIPOS>SUBSTRUCTURE
     1 RES1        1 GROUP             0 ****  ****    0  
@<TRIPOS>MOLECULE
ligand_7
    33    34     1     0     0
SMALL
NO_CHARGES
****
Generated from the CSD

@<TRIPOS>ATOM
     1 C1       3.2597  39.5860  41.0896   C.2       1 RES1   0.0000
     2 C2       3.8023  38.5016  40.5716   C.2       1 RES1   0.0000
     3 C3       3.0444  37.2609  40.2974   C.2       1 RES1   0.0000
     4 C4       1.8437  37.1943  39.6524   C.2       1 RES1   0.0000
     5 C5       1.1132  38.2713  39.0697   C.2       1 RES1   0.0000
     6 C6      -0.0817  38.2358  38.4230   C.2       1 RES1   0.0000
     7 C7      -0.9240  37.0144  38.1914   C.3       1 RES1   0.0000
     8 C8      -0.9848  36.5144  36.7521   C.3       1 RES1   0.0000
     9 C9      -1.8489  35.2780  36.5720   C.3       1 RES1   0.0000
    10 C10     -1.9078  34.7815  35.1360   C.3       1 RES1   0.0000
    11 C11     -2.7615  33.5501  34.9238   C.3       1 RES1   0.0000
    12 C12     -2.7883  33.0965  33.4844   C.3       1 RES1   0.0000
    13 C13     -0.5687  39.5360  37.8953   C.2       1 RES1   0.0000
    14 C14      0.3207  40.4508  37.3433   C.2       1 RES1   0.0000
    15 C15     -0.1368  41.6660  36.8703   C.2       1 RES1   0.0000
    16 C16     -1.4805  41.9801  36.9445   C.2       1 RES1   0.0000
    17 C17     -2.3864  41.0863  37.4922   C.2       1 RES1   0.0000
    18 C18     -3.8508  41.4351  37.6081   C.3       1 RES1   0.0000
    19 C19     -4.6625  41.0974  36.3547   C.3       1 RES1   0.0000
    20 C20     -6.1408  41.4410  36.4507   C.3       1 RES1   0.0000
    21 C21     -6.9480  41.1057  35.2057   C.3       1 RES1   0.0000
    22 C22     -8.4273  41.4597  35.3268   C.3       1 RES1   0.0000
    23 C23     -9.2893  41.1463  34.1081   C.3       1 RES1   0.0000
    24 C24     -8.8061  41.9006  32.8781   C.3       1 RES1   0.0000
    25 C25    -10.7552  41.4465  34.3807   C.3       1 RES1   0.0000
    26 O26     -9.1731  39.7365  33.8369   O.3       1 RES1   0.0000
    27 C27     -1.9208  39.8616  37.9623   C.2       1 RES1   0.0000
    28 C28      3.6730  35.9972  40.8598   C.3       1 RES1   0.0000
    29 C29      5.1688  35.8864  40.5736   C.3       1 RES1   0.0000
    30 O30      5.3435  35.6257  39.1791   O.3       1 RES1   0.0000
    31 C31      5.8896  37.1729  40.9677   C.3       1 RES1   0.0000
    32 C32      5.2951  38.3961  40.2703   C.3       1 RES1   0.0000
    33 O33      6.0125  39.5863  40.5851   O.3       1 RES1   0.0000
@<TRIPOS>BOND
     1     1     2    2
     2     2     3    1
     3     3     4    2
     4     4     5    1
     5     5     6    2
     6     6     7    1
     7     7     8    1
     8     8     9    1
     9     9    10    1
    10    10    11    1
    11    11    12    1
    12     6    13    1
    13    13    14    2
    14    14    15    1
    15    15    16    2
    16    16    17    1
    17    17    18    1
    18    18    19    1
    19    19    20    1
    20    20    21    1
    21    21    22    1
    22    22    23    1
    23    23    24    1
    24    23    25    1
    25    23    26    1
    26    17    27    2
    27     3    28    1
    28    28    29    1
    29    29    30    1
    30    29    31    1
    31    31    32    1
    32    32    33    1
    33    32     2    1
    34    27    13    1
@<TRIPOS>SUBSTRUCTURE
     1 RES1        1 GROUP             0 ****  ****    0  
@<TRIPOS>MOLECULE
ligand_8
    33    34     1     0     0
SMALL
NO_CHARGES
****
Generated from the CSD

@<TRIPOS>ATOM
     1 C1      -0.4921  42.6988  38.5317   C.2       1 RES1   0.0000
     2 C2      -1.4130  42.3614  39.4131   C.2       1 RES1   0.0000
     3 C3      -2.2885  41.1779  39.2663   C.2       1 RES1   0.0000
     4 C4      -1.8695  39.9197  38.9441   C.2       1 RES1   0.0000
     5 C5      -0.5284  39.4787  38.7440   C.2       1 RES1   0.0000
     6 C6      -0.0817  38.2358  38.4230   C.2       1 RES1   0.0000
     7 C7      -0.9369  37.0244  38.1860   C.3       1 RES1   0.0000
     8 C8      -1.0219  36.5456  36.7407   C.3       1 RES1   0.0000
     9 C9      -1.8983  35.3186  36.5554   C.3       1 RES1   0.0000
    10 C10     -1.9813  34.8433  35.1135   C.3       1 RES1   0.0000
    11 C11     -2.8477  33.6217  34.8958   C.3       1 RES1   0.0000
    12 C12     -2.8984  33.1890  33.4506   C.3       1 RES1   0.0000
    13 C13      1.3924  38.0873  38.3169   C.2       1 RES1   0.0000
    14 C14      2.1652  39.1010  37.7621   C.2       1 RES1   0.0000
    15 C15      3.5342  38.9489  37.6503   C.2       1 RES1   0.0000
    16 C16      4.1431  37.7880  38.0876   C.2       1 RES1   0.0000
    17 C17      3.3946  36.7624  38.6419   C.2       1 RES1   0.0000
    18 C18      4.0475  35.4772  39.0910   C.3       1 RES1   0.0000
    19 C19      4.5748  35.5268  40.5274   C.3       1 RES1   0.0000
    20 C20      5.2364  34.2416  40.9996   C.3       1 RES1   0.0000
    21 C21      5.7607  34.2901  42.4268   C.3       1 RES1   0.0000
    22 C22      6.4197  32.9894  42.8768   C.3       1 RES1   0.0000
    23 C23      6.9656  32.9772  44.3010   C.3       1 RES1   0.0000
    24 C24      8.0330  34.0440  44.4952   C.3       1 RES1   0.0000
    25 C25      7.5053  31.6040  44.6702   C.3       1 RES1   0.0000
    26 O26      5.8750  33.2745  45.1936   O.3       1 RES1   0.0000
    27 C27      2.0167  36.9232  38.7569   C.2       1 RES1   0.0000
    28 C28     -3.7713  41.4617  39.4369   C.3       1 RES1   0.0000
    29 C29     -4.0864  42.3182  40.6611   C.3       1 RES1   0.0000
    30 O30     -3.8701  41.5283  41.8326   O.3       1 RES1   0.0000
    31 C31     -3.2035  43.5630  40.6896   C.3       1 RES1   0.0000
    32 C32     -1.7172  43.2090  40.6457   C.3       1 RES1   0.0000
    33 O33     -0.8935  44.3677  40.7422   O.3       1 RES1   0.0000
@<TRIPOS>BOND
     1     1     2    2
     2     2     3    1
     3     3     4    2
     4     4     5    1
     5     5     6    2
     6     6     7    1
     7     7     8    1
     8     8     9    1
     9     9    10    1
    10    10    11    1
    11    11    12    1
    12     6    13    1
    13    13    14    2
    14    14    15    1
    15    15    16    2
    16    16    17    1
    17    17    18    1
    18    18    19    1
    19    19    20    1
    20    20    21    1
    21    21    22    1
    22    22    23    1
    23    23    24    1
    24    23    25    1
    25    23    26    1
    26    17    27    2
    27     3    28    1
    28    28    29    1
    29    29    30    1
    30    29    31    1
    31    31    32    1
    32    32    33    1
    33    32     2    1
    34    27    13    1
@<TRIPOS>SUBSTRUCTURE
     1 RES1        1 GROUP             0 ****  ****    0  
@<TRIPOS>MOLECULE
ligand_9
    33    34     1     0     0
SMALL
NO_CHARGES
****
Generated from the CSD

@<TRIPOS>ATOM
     1 C1       3.2588  39.5861  41.0906   C.2       1 RES1   0.0000
     2 C2       3.8017  38.5018  40.5727   C.2       1 RES1   0.0000
     3 C3       3.0441  37.2611  40.2981   C.2       1 RES1   0.0000
     4 C4       1.8435  37.1944  39.6528   C.2       1 RES1   0.0000
     5 C5       1.1130  38.2714  39.0700   C.2       1 RES1   0.0000
     6 C6      -0.0817  38.2358  38.4230   C.2       1 RES1   0.0000
     7 C7      -0.9239  37.0143  38.1911   C.3       1 RES1   0.0000
     8 C8      -0.7219  36.3147  36.8512   C.3       1 RES1   0.0000
     9 C9      -1.5957  35.0856  36.6673   C.3       1 RES1   0.0000
    10 C10     -1.3924  34.3900  35.3307   C.3       1 RES1   0.0000
    11 C11     -2.2491  33.1609  35.1170   C.3       1 RES1   0.0000
    12 C12     -2.0116  32.5065  33.7778   C.3       1 RES1   0.0000
    13 C13     -0.5687  39.5360  37.8953   C.2       1 RES1   0.0000
    14 C14     -1.2609  39.5937  36.6910   C.2       1 RES1   0.0000
    15 C15     -1.6957  40.8089  36.1970   C.2       1 RES1   0.0000
    16 C16     -1.4438  41.9741  36.8960   C.2       1 RES1   0.0000
    17 C17     -0.7541  41.9433  38.0971   C.2       1 RES1   0.0000
    18 C18     -0.4452  43.2149  38.8501   C.3       1 RES1   0.0000
    19 C19      0.9259  43.8079  38.5151   C.3       1 RES1   0.0000
    20 C20      1.2569  45.0899  39.2633   C.3       1 RES1   0.0000
    21 C21      2.6191  45.6798  38.9310   C.3       1 RES1   0.0000
    22 C22      2.9276  46.9648  39.6940   C.3       1 RES1   0.0000
    23 C23      4.2813  47.6041  39.4024   C.3       1 RES1   0.0000
    24 C24      5.4254  46.6614  39.7454   C.3       1 RES1   0.0000
    25 C25      4.4347  48.9254  40.1400   C.3       1 RES1   0.0000
    26 O26      4.3434  47.8802  37.9902   O.3       1 RES1   0.0000
    27 C27     -0.3231  40.7158  38.5925   C.2       1 RES1   0.0000
    28 C28      3.6726  35.9974  40.8605   C.3       1 RES1   0.0000
    29 C29      5.1685  35.8867  40.5747   C.3       1 RES1   0.0000
    30 O30      5.3436  35.6262  39.1802   O.3       1 RES1   0.0000
    31 C31      5.8891  37.1732  40.9692   C.3       1 RES1   0.0000
    32 C32      5.2946  38.3965  40.2717   C.3       1 RES1   0.0000
    33 O33      6.0118  39.5868  40.5869   O.3       1 RES1   0.0000
@<TRIPOS>BOND
     1     1     2    2
     2     2     3    1
     3     3     4    2
     4     4     5    1
     5     5     6    2
     6     6     7    1
     7     7     8    1
     8     8     9    1
     9     9    10    1
    10    10    11    1
    11    11    12    1
    12     6    13    1
    13    13    14    2
    14    14    15    1
    15    15    16    2
    16    16    17    1
    17    17    18    1
    18    18    19    1
    19    19    20    1
    20    20    21    1
    21    21    22    1
    22    22    23    1
    23    23    24    1
    24    23    25    1
    25    23    26    1
    26    17    27    2
    27     3    28    1
    28    28    29    1
    29    29    30    1
    30    29    31    1
    31    31    32    1
    32    32    33    1
    33    32     2    1
    34    27    13    1
@<TRIPOS>SUBSTRUCTURE
     1 RES1        1 GROUP             0 ****  ****    0  
@<TRIPOS>MOLECULE
ligand_10
    33    34     1     0     0
SMALL
NO_CHARGES
****
Generated from the CSD

@<TRIPOS>ATOM
     1 C1       3.2597  39.5860  41.0896   C.2       1 RES1   0.0000
     2 C2       3.8023  38.5016  40.5716   C.2       1 RES1   0.0000
     3 C3       3.0444  37.2609  40.2974   C.2       1 RES1   0.0000
     4 C4       1.8437  37.1943  39.6524   C.2       1 RES1   0.0000
     5 C5       1.1132  38.2713  39.0697   C.2       1 RES1   0.0000
     6 C6      -0.0817  38.2358  38.4230   C.2       1 RES1   0.0000
     7 C7      -0.9240  37.0144  38.1914   C.3       1 RES1   0.0000
     8 C8      -0.9848  36.5144  36.7521   C.3       1 RES1   0.0000
     9 C9      -1.8489  35.2780  36.5720   C.3       1 RES1   0.0000
    10 C10     -1.9078  34.7815  35.1360   C.3       1 RES1   0.0000
    11 C11     -2.7615  33.5501  34.9238   C.3       1 RES1   0.0000
    12 C12     -2.7883  33.0965  33.4844   C.3       1 RES1   0.0000
    13 C13     -0.5687  39.5360  37.8953   C.2       1 RES1   0.0000
    14 C14      0.3207  40.4508  37.3433   C.2       1 RES1   0.0000
    15 C15     -0.1368  41.6660  36.8703   C.2       1 RES1   0.0000
    16 C16     -1.4805  41.9801  36.9445   C.2       1 RES1   0.0000
    17 C17     -2.3864  41.0863  37.4922   C.2       1 RES1   0.0000
    18 C18     -3.8508  41.4351  37.6081   C.3       1 RES1   0.0000
    19 C19     -4.2283  42.0561  38.9555   C.3       1 RES1   0.0000
    20 C20     -5.6997  42.4150  39.0929   C.3       1 RES1   0.0000
    21 C21     -6.0756  43.0321  40.4316   C.3       1 RES1   0.0000
    22 C22     -7.5563  43.3832  40.5447   C.3       1 RES1   0.0000
    23 C23     -7.9942  44.0062  41.8663   C.3       1 RES1   0.0000
    24 C24     -7.7232  43.0723  43.0366   C.3       1 RES1   0.0000
    25 C25     -9.4615  44.4047  41.8258   C.3       1 RES1   0.0000
    26 O26     -7.2197  45.2038  42.0670   O.3       1 RES1   0.0000
    27 C27     -1.9208  39.8616  37.9623   C.2       1 RES1   0.0000
    28 C28      3.6730  35.9972  40.8598   C.3       1 RES1   0.0000
    29 C29      5.1688  35.8864  40.5736   C.3       1 RES1   0.0000
    30 O30      5.3435  35.6257  39.1791   O.3       1 RES1   0.0000
    31 C31      5.8896  37.1729  40.9677   C.3       1 RES1   0.0000
    32 C32      5.2951  38.3961  40.2703   C.3       1 RES1   0.0000
    33 O33      6.0125  39.5863  40.5851   O.3       1 RES1   0.0000
@<TRIPOS>BOND
     1     1     2    2
     2     2     3    1
     3     3     4    2
     4     4     5    1
     5     5     6    2
     6     6     7    1
     7     7     8    1
     8     8     9    1
     9     9    10    1
    10    10    11    1
    11    11    12    1
    12     6    13    1
    13    13    14    2
    14    14    15    1
    15    15    16    2
    16    16    17    1
    17    17    18    1
    18    18    19    1
    19    19    20    1
    20    20    21    1
    21    21    22    1
    22    22    23    1
    23    23    24    1
    24    23    25    1
    25    23    26    1
    26    17    27    2
    27     3    28    1
    28    28    29    1
    29    29    30    1
    30    29    31    1
    31    31    32    1
    32    32    33    1
    33    32     2    1
    34    27    13    1
@<TRIPOS>SUBSTRUCTURE
     1 RES1        1 GROUP             0 ****  ****    0  
@<TRIPOS>MOLECULE
ligand_11
    33    34     1     0     0
SMALL
NO_CHARGES
****
Generated from the CSD

@<TRIPOS>ATOM
     1 C1      -0.4921  42.6988  38.5317   C.2       1 RES1   0.0000
     2 C2      -1.4130  42.3614  39.4131   C.2       1 RES1   0.0000
     3 C3      -2.2885  41.1779  39.2663   C.2       1 RES1   0.0000
     4 C4      -1.8695  39.9197  38.9441   C.2       1 RES1   0.0000
     5 C5      -0.5284  39.4787  38.7440   C.2       1 RES1   0.0000
     6 C6      -0.0817  38.2358  38.4230   C.2       1 RES1   0.0000
     7 C7      -0.9369  37.0244  38.1860   C.3       1 RES1   0.0000
     8 C8      -1.0219  36.5456  36.7407   C.3       1 RES1   0.0000
     9 C9      -1.8983  35.3186  36.5554   C.3       1 RES1   0.0000
    10 C10     -1.9813  34.8433  35.1135   C.3       1 RES1   0.0000
    11 C11     -2.8477  33.6217  34.8958   C.3       1 RES1   0.0000
    12 C12     -2.8984  33.1890  33.4506   C.3       1 RES1   0.0000
    13 C13      1.3924  38.0873  38.3169   C.2       1 RES1   0.0000
    14 C14      2.1652  39.1010  37.7621   C.2       1 RES1   0.0000
    15 C15      3.5342  38.9489  37.6503   C.2       1 RES1   0.0000
    16 C16      4.1431  37.7880  38.0876   C.2       1 RES1   0.0000
    17 C17      3.3946  36.7624  38.6419   C.2       1 RES1   0.0000
    18 C18      4.0475  35.4772  39.0910   C.3       1 RES1   0.0000
    19 C19      4.0503  34.3840  38.0192   C.3       1 RES1   0.0000
    20 C20      4.7036  33.0806  38.4516   C.3       1 RES1   0.0000
    21 C21      4.7068  31.9937  37.3872   C.3       1 RES1   0.0000
    22 C22      5.3674  30.6966  37.8449   C.3       1 RES1   0.0000
    23 C23      5.4010  29.5681  36.8193   C.3       1 RES1   0.0000
    24 C24      3.9974  29.1632  36.3939   C.3       1 RES1   0.0000
    25 C25      6.1689  28.3671  37.3496   C.3       1 RES1   0.0000
    26 O26      6.0945  30.0525  35.6536   O.3       1 RES1   0.0000
    27 C27      2.0167  36.9232  38.7569   C.2       1 RES1   0.0000
    28 C28     -3.7713  41.4617  39.4369   C.3       1 RES1   0.0000
    29 C29     -4.0864  42.3182  40.6611   C.3       1 RES1   0.0000
    30 O30     -3.8701  41.5283  41.8326   O.3       1 RES1   0.0000
    31 C31     -3.2035  43.5630  40.6896   C.3       1 RES1   0.0000
    32 C32     -1.7172  43.2090  40.6457   C.3       1 RES1   0.0000
    33 O33     -0.8935  44.3677  40.7422   O.3       1 RES1   0.0000
@<TRIPOS>BOND
     1     1     2    2
     2     2     3    1
     3     3     4    2
     4     4     5    1
     5     5     6    2
     6     6     7    1
     7     7     8    1
     8     8     9    1
     9     9    10    1
    10    10    11    1
    11    11    12    1
    12     6    13    1
    13    13    14    2
    14    14    15    1
    15    15    16    2
    16    16    17    1
    17    17    18    1
    18    18    19    1
    19    19    20    1
    20    20    21    1
    21    21    22    1
    22    22    23    1
    23    23    24    1
    24    23    25    1
    25    23    26    1
    26    17    27    2
    27     3    28    1
    28    28    29    1
    29    29    30    1
    30    29    31    1
    31    31    32    1
    32    32    33    1
    33    32     2    1
    34    27    13    1
@<TRIPOS>SUBSTRUCTURE
     1 RES1        1 GROUP             0 ****  ****    0  
@<TRIPOS>MOLECULE
ligand_12
    33    34     1     0     0
SMALL
NO_CHARGES
****
Generated from the CSD

@<TRIPOS>ATOM
     1 C1      -0.4978  42.6995  38.4515   C.2       1 RES1   0.0000
     2 C2      -1.4166  42.3769  39.3406   C.2       1 RES1   0.0000
     3 C3      -2.2908  41.1898  39.2169   C.2       1 RES1   0.0000
     4 C4      -1.8708  39.9266  38.9168   C.2       1 RES1   0.0000
     5 C5      -0.5295  39.4837  38.7223   C.2       1 RES1   0.0000
     6 C6      -0.0817  38.2358  38.4230   C.2       1 RES1   0.0000
     7 C7      -0.9357  37.0192  38.2095   C.3       1 RES1   0.0000
     8 C8      -1.2891  36.7035  36.7601   C.3       1 RES1   0.0000
     9 C9      -2.1634  35.4715  36.6001   C.3       1 RES1   0.0000
    10 C10     -2.5143  35.1589  35.1540   C.3       1 RES1   0.0000
    11 C11     -3.3851  33.9363  34.9613   C.3       1 RES1   0.0000
    12 C12     -3.7056  33.6678  33.5109   C.3       1 RES1   0.0000
    13 C13      1.3924  38.0873  38.3169   C.2       1 RES1   0.0000
    14 C14      2.2353  38.7919  39.1688   C.2       1 RES1   0.0000
    15 C15      3.6063  38.6626  39.0529   C.2       1 RES1   0.0000
    16 C16      4.1478  37.8338  38.0888   C.2       1 RES1   0.0000
    17 C17      3.3291  37.1229  37.2265   C.2       1 RES1   0.0000
    18 C18      3.9127  36.2415  36.1484   C.3       1 RES1   0.0000
    19 C19      4.2223  34.8186  36.6209   C.3       1 RES1   0.0000
    20 C20      4.8113  33.9140  35.5497   C.3       1 RES1   0.0000
    21 C21      5.1193  32.4999  36.0183   C.3       1 RES1   0.0000
    22 C22      5.7089  31.6124  34.9260   C.3       1 RES1   0.0000
    23 C23      6.0389  30.1810  35.3365   C.3       1 RES1   0.0000
    24 C24      7.0626  30.1486  36.4617   C.3       1 RES1   0.0000
    25 C25      6.5227  29.3664  34.1466   C.3       1 RES1   0.0000
    26 O26      4.8277  29.5714  35.8222   O.3       1 RES1   0.0000
    27 C27      1.9487  37.2528  37.3512   C.2       1 RES1   0.0000
    28 C28     -3.7737  41.4748  39.3851   C.3       1 RES1   0.0000
    29 C29     -4.0877  42.3530  40.5941   C.3       1 RES1   0.0000
    30 O30     -3.8682  41.5847  41.7793   O.3       1 RES1   0.0000
    31 C31     -3.2064  43.5993  40.5983   C.3       1 RES1   0.0000
    32 C32     -1.7198  43.2464  40.5581   C.3       1 RES1   0.0000
    33 O33     -0.8974  44.4077  40.6321   O.3       1 RES1   0.0000
@<TRIPOS>BOND
     1     1     2    2
     2     2     3    1
     3     3     4    2
     4     4     5    1
     5     5     6    2
     6     6     7    1
     7     7     8    1
     8     8     9    1
     9     9    10    1
    10    10    11    1
    11    11    12    1
    12     6    13    1
    13    13    14    2
    14    14    15    1
    15    15    16    2
    16    16    17    1
    17    17    18    1
    18    18    19    1
    19    19    20    1
    20    20    21    1
    21    21    22    1
    22    22    23    1
    23    23    24    1
    24    23    25    1
    25    23    26    1
    26    17    27    2
    27     3    28    1
    28    28    29    1
    29    29    30    1
    30    29    31    1
    31    31    32    1
    32    32    33    1
    33    32     2    1
    34    27    13    1
@<TRIPOS>SUBSTRUCTURE
     1 RES1        1 GROUP             0 ****  ****    0  
@<TRIPOS>MOLECULE
ligand_13
    33    34     1     0     0
SMALL
NO_CHARGES
****
Generated from the CSD

@<TRIPOS>ATOM
     1 C1      -0.4978  42.6995  38.4515   C.2       1 RES1   0.0000
     2 C2      -1.4166  42.3769  39.3406   C.2       1 RES1   0.0000
     3 C3      -2.2908  41.1898  39.2169   C.2       1 RES1   0.0000
     4 C4      -1.8708  39.9266  38.9168   C.2       1 RES1   0.0000
     5 C5      -0.5295  39.4837  38.7223   C.2       1 RES1   0.0000
     6 C6      -0.0817  38.2358  38.4230   C.2       1 RES1   0.0000
     7 C7      -0.9357  37.0192  38.2095   C.3       1 RES1   0.0000
     8 C8      -1.2891  36.7035  36.7601   C.3       1 RES1   0.0000
     9 C9      -2.1634  35.4715  36.6001   C.3       1 RES1   0.0000
    10 C10     -2.5143  35.1589  35.1540   C.3       1 RES1   0.0000
    11 C11     -3.3851  33.9363  34.9613   C.3       1 RES1   0.0000
    12 C12     -3.7056  33.6678  33.5109   C.3       1 RES1   0.0000
    13 C13      1.3924  38.0873  38.3169   C.2       1 RES1   0.0000
    14 C14      2.2353  38.7919  39.1688   C.2       1 RES1   0.0000
    15 C15      3.6063  38.6626  39.0529   C.2       1 RES1   0.0000
    16 C16      4.1478  37.8338  38.0888   C.2       1 RES1   0.0000
    17 C17      3.3291  37.1229  37.2265   C.2       1 RES1   0.0000
    18 C18      3.9127  36.2415  36.1484   C.3       1 RES1   0.0000
    19 C19      4.0770  36.9488  34.8007   C.3       1 RES1   0.0000
    20 C20      4.6636  36.0781  33.7005   C.3       1 RES1   0.0000
    21 C21      4.8272  36.7801  32.3608   C.3       1 RES1   0.0000
    22 C22      5.4173  35.8860  31.2741   C.3       1 RES1   0.0000
    23 C23      5.6053  36.5352  29.9068   C.3       1 RES1   0.0000
    24 C24      4.2810  37.0215  29.3367   C.3       1 RES1   0.0000
    25 C25      6.2905  35.5844  28.9373   C.3       1 RES1   0.0000
    26 O26      6.4615  37.6808  30.0767   O.3       1 RES1   0.0000
    27 C27      1.9487  37.2528  37.3512   C.2       1 RES1   0.0000
    28 C28     -3.7737  41.4748  39.3851   C.3       1 RES1   0.0000
    29 C29     -4.0877  42.3530  40.5941   C.3       1 RES1   0.0000
    30 O30     -3.8682  41.5847  41.7793   O.3       1 RES1   0.0000
    31 C31     -3.2064  43.5993  40.5983   C.3       1 RES1   0.0000
    32 C32     -1.7198  43.2464  40.5581   C.3       1 RES1   0.0000
    33 O33     -0.8974  44.4077  40.6321   O.3       1 RES1   0.0000
@<TRIPOS>BOND
     1     1     2    2
     2     2     3    1
     3     3     4    2
     4     4     5    1
     5     5     6    2
     6     6     7    1
     7     7     8    1
     8     8     9    1
     9     9    10    1
    10    10    11    1
    11    11    12    1
    12     6    13    1
    13    13    14    2
    14    14    15    1
    15    15    16    2
    16    16    17    1
    17    17    18    1
    18    18    19    1
    19    19    20    1
    20    20    21    1
    21    21    22    1
    22    22    23    1
    23    23    24    1
    24    23    25    1
    25    23    26    1
    26    17    27    2
    27     3    28    1
    28    28    29    1
    29    29    30    1
    30    29    31    1
    31    31    32    1
    32    32    33    1
    33    32     2    1
    34    27    13    1
@<TRIPOS>SUBSTRUCTURE
     1 RES1        1 GROUP             0 ****  ****    0  
@<TRIPOS>MOLECULE
ligand_14
    33    34     1     0     0
SMALL
NO_CHARGES
****
Generated from the CSD

@<TRIPOS>ATOM
     1 C1       3.2503  39.5870  41.1008   C.2       1 RES1   0.0000
     2 C2       3.7957  38.5038  40.5832   C.2       1 RES1   0.0000
     3 C3       3.0401  37.2626  40.3054   C.2       1 RES1   0.0000
     4 C4       1.8414  37.1953  39.6568   C.2       1 RES1   0.0000
     5 C5       1.1113  38.2720  39.0732   C.2       1 RES1   0.0000
     6 C6      -0.0817  38.2358  38.4230   C.2       1 RES1   0.0000
     7 C7      -0.9219  37.0136  38.1876   C.3       1 RES1   0.0000
     8 C8      -0.7121  36.3127  36.8497   C.3       1 RES1   0.0000
     9 C9      -1.5848  35.0835  36.6618   C.3       1 RES1   0.0000
    10 C10     -1.3736  34.3865  35.3271   C.3       1 RES1   0.0000
    11 C11     -2.2293  33.1574  35.1095   C.3       1 RES1   0.0000
    12 C12     -1.9838  32.5016  33.7723   C.3       1 RES1   0.0000
    13 C13     -0.5687  39.5360  37.8953   C.2       1 RES1   0.0000
    14 C14     -0.3391  40.7131  38.5984   C.2       1 RES1   0.0000
    15 C15     -0.8104  41.9171  38.1104   C.2       1 RES1   0.0000
    16 C16     -1.5142  41.9583  36.9218   C.2       1 RES1   0.0000
    17 C17     -1.7580  40.7988  36.2038   C.2       1 RES1   0.0000
    18 C18     -2.5550  40.8302  34.9219   C.3       1 RES1   0.0000
    19 C19     -1.7075  41.1185  33.6800   C.3       1 RES1   0.0000
    20 C20     -2.4916  41.1546  32.3775   C.3       1 RES1   0.0000
    21 C21     -1.6502  41.4411  31.1429   C.3       1 RES1   0.0000
    22 C22     -2.4593  41.4720  29.8496   C.3       1 RES1   0.0000
    23 C23     -1.6692  41.7551  28.5760   C.3       1 RES1   0.0000
    24 C24     -0.9816  43.1110  28.6397   C.3       1 RES1   0.0000
    25 C25     -2.5587  41.6612  27.3459   C.3       1 RES1   0.0000
    26 O26     -0.6482  40.7461  28.4573   O.3       1 RES1   0.0000
    27 C27     -1.2763  39.5896  36.6973   C.2       1 RES1   0.0000
    28 C28      3.6686  35.9990  40.8682   C.3       1 RES1   0.0000
    29 C29      5.1653  35.8902  40.5863   C.3       1 RES1   0.0000
    30 O30      5.3444  35.6313  39.1920   O.3       1 RES1   0.0000
    31 C31      5.8835  37.1771  40.9839   C.3       1 RES1   0.0000
    32 C32      5.2895  38.4004  40.2861   C.3       1 RES1   0.0000
    33 O33      6.0046  39.5912  40.6044   O.3       1 RES1   0.0000
@<TRIPOS>BOND
     1     1     2    2
     2     2     3    1
     3     3     4    2
     4     4     5    1
     5     5     6    2
     6     6     7    1
     7     7     8    1
     8     8     9    1
     9     9    10    1
    10    10    11    1
    11    11    12    1
    12     6    13    1
    13    13    14    2
    14    14    15    1
    15    15    16    2
    16    16    17    1
    17    17    18    1
    18    18    19    1
    19    19    20    1
    20    20    21    1
    21    21    22    1
    22    22    23    1
    23    23    24    1
    24    23    25    1
    25    23    26    1
    26    17    27    2
    27     3    28    1
    28    28    29    1
    29    29    30    1
    30    29    31    1
    31    31    32    1
    32    32    33    1
    33    32     2    1
    34    27    13    1
@<TRIPOS>SUBSTRUCTURE
     1 RES1        1 GROUP             0 ****  ****    0  
@<TRIPOS>MOLECULE
ligand_15
    33    34     1     0     0
SMALL
NO_CHARGES
****
Generated from the CSD

@<TRIPOS>ATOM
     1 C1       3.2503  39.5870  41.1008   C.2       1 RES1   0.0000
     2 C2       3.7957  38.5038  40.5832   C.2       1 RES1   0.0000
     3 C3       3.0401  37.2626  40.3054   C.2       1 RES1   0.0000
     4 C4       1.8414  37.1953  39.6568   C.2       1 RES1   0.0000
     5 C5       1.1113  38.2720  39.0732   C.2       1 RES1   0.0000
     6 C6      -0.0817  38.2358  38.4230   C.2       1 RES1   0.0000
     7 C7      -0.9219  37.0136  38.1876   C.3       1 RES1   0.0000
     8 C8      -0.7121  36.3127  36.8497   C.3       1 RES1   0.0000
     9 C9      -1.5848  35.0835  36.6618   C.3       1 RES1   0.0000
    10 C10     -1.3736  34.3865  35.3271   C.3       1 RES1   0.0000
    11 C11     -2.2293  33.1574  35.1095   C.3       1 RES1   0.0000
    12 C12     -1.9838  32.5016  33.7723   C.3       1 RES1   0.0000
    13 C13     -0.5687  39.5360  37.8953   C.2       1 RES1   0.0000
    14 C14     -0.3391  40.7131  38.5984   C.2       1 RES1   0.0000
    15 C15     -0.8104  41.9171  38.1104   C.2       1 RES1   0.0000
    16 C16     -1.5142  41.9583  36.9218   C.2       1 RES1   0.0000
    17 C17     -1.7580  40.7988  36.2038   C.2       1 RES1   0.0000
    18 C18     -2.5550  40.8302  34.9219   C.3       1 RES1   0.0000
    19 C19     -4.0498  40.5673  35.1228   C.3       1 RES1   0.0000
    20 C20     -4.8711  40.5946  33.8433   C.3       1 RES1   0.0000
    21 C21     -6.3566  40.3335  34.0421   C.3       1 RES1   0.0000
    22 C22     -7.1585  40.3661  32.7443   C.3       1 RES1   0.0000
    23 C23     -8.6561  40.1108  32.8800   C.3       1 RES1   0.0000
    24 C24     -8.9332  38.7388  33.4766   C.3       1 RES1   0.0000
    25 C25     -9.3631  40.2676  31.5425   C.3       1 RES1   0.0000
    26 O26     -9.1923  41.1007  33.7784   O.3       1 RES1   0.0000
    27 C27     -1.2763  39.5896  36.6973   C.2       1 RES1   0.0000
    28 C28      3.6686  35.9990  40.8682   C.3       1 RES1   0.0000
    29 C29      5.1653  35.8902  40.5863   C.3       1 RES1   0.0000
    30 O30      5.3444  35.6313  39.1920   O.3       1 RES1   0.0000
    31 C31      5.8835  37.1771  40.9839   C.3       1 RES1   0.0000
    32 C32      5.2895  38.4004  40.2861   C.3       1 RES1   0.0000
    33 O33      6.0046  39.5912  40.6044   O.3       1 RES1   0.0000
@<TRIPOS>BOND
     1     1     2    2
     2     2     3    1
     3     3     4    2
     4     4     5    1
     5     5     6    2
     6     6     7    1
     7     7     8    1
     8     8     9    1
     9     9    10    1
    10    10    11    1
    11    11    12    1
    12     6    13    1
    13    13    14    2
    14    14    15    1
    15    15    16    2
    16    16    17    1
    17    17    18    1
    18    18    19    1
    19    19    20    1
    20    20    21    1
    21    21    22    1
    22    22    23    1
    23    23    24    1
    24    23    25    1
    25    23    26    1
    26    17    27    2
    27     3    28    1
    28    28    29    1
    29    29    30    1
    30    29    31    1
    31    31    32    1
    32    32    33    1
    33    32     2    1
    34    27    13    1
@<TRIPOS>SUBSTRUCTURE
     1 RES1        1 GROUP             0 ****  ****    0  
@<TRIPOS>MOLECULE
ligand_16
    33    34     1     0     0
SMALL
NO_CHARGES
****
Generated from the CSD

@<TRIPOS>ATOM
     1 C1       4.1010  39.3885  39.6160   C.2       1 RES1   0.0000
     2 C2       3.7907  38.5178  40.5564   C.2       1 RES1   0.0000
     3 C3       3.0457  37.2605  40.2950   C.2       1 RES1   0.0000
     4 C4       1.8437  37.1943  39.6524   C.2       1 RES1   0.0000
     5 C5       1.1132  38.2713  39.0697   C.2       1 RES1   0.0000
     6 C6      -0.0817  38.2358  38.4230   C.2       1 RES1   0.0000
     7 C7      -0.9240  37.0144  38.1914   C.3       1 RES1   0.0000
     8 C8      -0.9848  36.5144  36.7521   C.3       1 RES1   0.0000
     9 C9      -1.8489  35.2780  36.5720   C.3       1 RES1   0.0000
    10 C10     -1.9078  34.7815  35.1360   C.3       1 RES1   0.0000
    11 C11     -2.7615  33.5501  34.9238   C.3       1 RES1   0.0000
    12 C12     -2.7883  33.0965  33.4844   C.3       1 RES1   0.0000
    13 C13     -0.5687  39.5360  37.8953   C.2       1 RES1   0.0000
    14 C14     -1.9207  39.8559  37.9460   C.2       1 RES1   0.0000
    15 C15     -2.3693  41.0599  37.4371   C.2       1 RES1   0.0000
    16 C16     -1.4775  41.9523  36.8732   C.2       1 RES1   0.0000
    17 C17     -0.1257  41.6557  36.8087   C.2       1 RES1   0.0000
    18 C18      0.8506  42.6100  36.1639   C.3       1 RES1   0.0000
    19 C19      1.3896  43.6756  37.1218   C.3       1 RES1   0.0000
    20 C20      2.3752  44.6475  36.4918   C.3       1 RES1   0.0000
    21 C21      2.9112  45.7067  37.4430   C.3       1 RES1   0.0000
    22 C22      3.8975  46.6691  36.7876   C.3       1 RES1   0.0000
    23 C23      4.4701  47.7550  37.6928   C.3       1 RES1   0.0000
    24 C24      3.3713  48.6444  38.2556   C.3       1 RES1   0.0000
    25 C25      5.5120  48.5868  36.9608   C.3       1 RES1   0.0000
    26 O26      5.1250  47.1064  38.7995   O.3       1 RES1   0.0000
    27 C27      0.3213  40.4438  37.3276   C.2       1 RES1   0.0000
    28 C28      3.7125  36.0280  40.8670   C.3       1 RES1   0.0000
    29 C29      4.0189  36.2243  42.3459   C.3       1 RES1   0.0000
    30 O30      4.6870  35.0728  42.8664   O.3       1 RES1   0.0000
    31 C31      4.9040  37.4496  42.5383   C.3       1 RES1   0.0000
    32 C32      4.2168  38.6993  41.9971   C.3       1 RES1   0.0000
    33 O33      3.0473  38.9271  42.7787   O.3       1 RES1   0.0000
@<TRIPOS>BOND
     1     1     2    2
     2     2     3    1
     3     3     4    2
     4     4     5    1
     5     5     6    2
     6     6     7    1
     7     7     8    1
     8     8     9    1
     9     9    10    1
    10    10    11    1
    11    11    12    1
    12     6    13    1
    13    13    14    2
    14    14    15    1
    15    15    16    2
    16    16    17    1
    17    17    18    1
    18    18    19    1
    19    19    20    1
    20    20    21    1
    21    21    22    1
    22    22    23    1
    23    23    24    1
    24    23    25    1
    25    23    26    1
    26    17    27    2
    27     3    28    1
    28    28    29    1
    29    29    30    1
    30    29    31    1
    31    31    32    1
    32    32    33    1
    33    32     2    1
    34    27    13    1
@<TRIPOS>SUBSTRUCTURE
     1 RES1        1 GROUP             0 ****  ****    0  
@<TRIPOS>MOLECULE
ligand_17
    33    34     1     0     0
SMALL
NO_CHARGES
****
Generated from the CSD

@<TRIPOS>ATOM
     1 C1       4.1010  39.3885  39.6160   C.2       1 RES1   0.0000
     2 C2       3.7907  38.5178  40.5564   C.2       1 RES1   0.0000
     3 C3       3.0457  37.2605  40.2950   C.2       1 RES1   0.0000
     4 C4       1.8437  37.1943  39.6524   C.2       1 RES1   0.0000
     5 C5       1.1132  38.2713  39.0697   C.2       1 RES1   0.0000
     6 C6      -0.0817  38.2358  38.4230   C.2       1 RES1   0.0000
     7 C7      -0.9240  37.0144  38.1914   C.3       1 RES1   0.0000
     8 C8      -0.9848  36.5144  36.7521   C.3       1 RES1   0.0000
     9 C9      -1.8489  35.2780  36.5720   C.3       1 RES1   0.0000
    10 C10     -1.9078  34.7815  35.1360   C.3       1 RES1   0.0000
    11 C11     -2.7615  33.5501  34.9238   C.3       1 RES1   0.0000
    12 C12     -2.7883  33.0965  33.4844   C.3       1 RES1   0.0000
    13 C13     -0.5687  39.5360  37.8953   C.2       1 RES1   0.0000
    14 C14     -1.9207  39.8559  37.9460   C.2       1 RES1   0.0000
    15 C15     -2.3693  41.0599  37.4371   C.2       1 RES1   0.0000
    16 C16     -1.4775  41.9523  36.8732   C.2       1 RES1   0.0000
    17 C17     -0.1257  41.6557  36.8087   C.2       1 RES1   0.0000
    18 C18      0.8506  42.6100  36.1639   C.3       1 RES1   0.0000
    19 C19      1.1044  42.3192  34.6824   C.3       1 RES1   0.0000
    20 C20      2.0854  43.2694  34.0136   C.3       1 RES1   0.0000
    21 C21      2.3382  42.9811  32.5415   C.3       1 RES1   0.0000
    22 C22      3.3254  43.9477  31.8936   C.3       1 RES1   0.0000
    23 C23      3.6194  43.7087  30.4162   C.3       1 RES1   0.0000
    24 C24      4.2154  42.3279  30.1854   C.3       1 RES1   0.0000
    25 C25      4.5331  44.7883  29.8567   C.3       1 RES1   0.0000
    26 O26      2.3707  43.7770  29.7016   O.3       1 RES1   0.0000
    27 C27      0.3213  40.4438  37.3276   C.2       1 RES1   0.0000
    28 C28      3.7125  36.0280  40.8670   C.3       1 RES1   0.0000
    29 C29      4.0189  36.2243  42.3459   C.3       1 RES1   0.0000
    30 O30      4.6870  35.0728  42.8664   O.3       1 RES1   0.0000
    31 C31      4.9040  37.4496  42.5383   C.3       1 RES1   0.0000
    32 C32      4.2168  38.6993  41.9971   C.3       1 RES1   0.0000
    33 O33      3.0473  38.9271  42.7787   O.3       1 RES1   0.0000
@<TRIPOS>BOND
     1     1     2    2
     2     2     3    1
     3     3     4    2
     4     4     5    1
     5     5     6    2
     6     6     7    1
     7     7     8    1
     8     8     9    1
     9     9    10    1
    10    10    11    1
    11    11    12    1
    12     6    13    1
    13    13    14    2
    14    14    15    1
    15    15    16    2
    16    16    17    1
    17    17    18    1
    18    18    19    1
    19    19    20    1
    20    20    21    1
    21    21    22    1
    22    22    23    1
    23    23    24    1
    24    23    25    1
    25    23    26    1
    26    17    27    2
    27     3    28    1
    28    28    29    1
    29    29    30    1
    30    29    31    1
    31    31    32    1
    32    32    33    1
    33    32     2    1
    34    27    13    1
@<TRIPOS>SUBSTRUCTURE
     1 RES1        1 GROUP             0 ****  ****    0  
@<TRIPOS>MOLECULE
ligand_18
    33    34     1     0     0
SMALL
NO_CHARGES
****
Generated from the CSD

@<TRIPOS>ATOM
     1 C1      -0.3323  42.3876  40.1399   C.2       1 RES1   0.0000
     2 C2      -1.3932  42.3630  39.3572   C.2       1 RES1   0.0000
     3 C3      -2.2901  41.1868  39.2298   C.2       1 RES1   0.0000
     4 C4      -1.8705  39.9252  38.9225   C.2       1 RES1   0.0000
     5 C5      -0.5293  39.4827  38.7268   C.2       1 RES1   0.0000
     6 C6      -0.0817  38.2358  38.4230   C.2       1 RES1   0.0000
     7 C7      -0.9360  37.0203  38.2046   C.3       1 RES1   0.0000
     8 C8      -1.2849  36.7074  36.7535   C.3       1 RES1   0.0000
     9 C9      -2.1573  35.4747  36.5882   C.3       1 RES1   0.0000
    10 C10     -2.5038  35.1651  35.1405   C.3       1 RES1   0.0000
    11 C11     -3.3725  33.9419  34.9425   C.3       1 RES1   0.0000
    12 C12     -3.6887  33.6763  33.4906   C.3       1 RES1   0.0000
    13 C13      1.3924  38.0873  38.3169   C.2       1 RES1   0.0000
    14 C14      1.9493  37.2417  37.3643   C.2       1 RES1   0.0000
    15 C15      3.3210  37.0948  37.2828   C.2       1 RES1   0.0000
    16 C16      4.1473  37.7859  38.1485   C.2       1 RES1   0.0000
    17 C17      3.6165  38.6327  39.1080   C.2       1 RES1   0.0000
    18 C18      4.5102  39.3653  40.0797   C.3       1 RES1   0.0000
    19 C19      5.0258  40.7051  39.5479   C.3       1 RES1   0.0000
    20 C20      5.9283  41.4594  40.5118   C.3       1 RES1   0.0000
    21 C21      6.4411  42.7909  39.9841   C.3       1 RES1   0.0000
    22 C22      7.3438  43.5281  40.9690   C.3       1 RES1   0.0000
    23 C23      7.8896  44.8713  40.4955   C.3       1 RES1   0.0000
    24 C24      8.7294  44.7160  39.2362   C.3       1 RES1   0.0000
    25 C25      8.6891  45.5566  41.5930   C.3       1 RES1   0.0000
    26 O26      6.7671  45.7159  40.1777   O.3       1 RES1   0.0000
    27 C27      2.2344  38.7810  39.1821   C.2       1 RES1   0.0000
    28 C28     -3.7559  41.5167  39.4125   C.3       1 RES1   0.0000
    29 C29     -4.1645  42.6603  38.4933   C.3       1 RES1   0.0000
    30 O30     -5.5386  42.9932  38.7040   O.3       1 RES1   0.0000
    31 C31     -3.3018  43.8859  38.7683   C.3       1 RES1   0.0000
    32 C32     -1.8269  43.5654  38.5471   C.3       1 RES1   0.0000
    33 O33     -1.6498  43.2562  37.1674   O.3       1 RES1   0.0000
@<TRIPOS>BOND
     1     1     2    2
     2     2     3    1
     3     3     4    2
     4     4     5    1
     5     5     6    2
     6     6     7    1
     7     7     8    1
     8     8     9    1
     9     9    10    1
    10    10    11    1
    11    11    12    1
    12     6    13    1
    13    13    14    2
    14    14    15    1
    15    15    16    2
    16    16    17    1
    17    17    18    1
    18    18    19    1
    19    19    20    1
    20    20    21    1
    21    21    22    1
    22    22    23    1
    23    23    24    1
    24    23    25    1
    25    23    26    1
    26    17    27    2
    27     3    28    1
    28    28    29    1
    29    29    30    1
    30    29    31    1
    31    31    32    1
    32    32    33    1
    33    32     2    1
    34    27    13    1
@<TRIPOS>SUBSTRUCTURE
     1 RES1        1 GROUP             0 ****  ****    0  
@<TRIPOS>MOLECULE
ligand_19
    33    34     1     0     0
SMALL
NO_CHARGES
****
Generated from the CSD

@<TRIPOS>ATOM
     1 C1      -0.3323  42.3876  40.1399   C.2       1 RES1   0.0000
     2 C2      -1.3932  42.3630  39.3572   C.2       1 RES1   0.0000
     3 C3      -2.2901  41.1868  39.2298   C.2       1 RES1   0.0000
     4 C4      -1.8705  39.9252  38.9225   C.2       1 RES1   0.0000
     5 C5      -0.5293  39.4827  38.7268   C.2       1 RES1   0.0000
     6 C6      -0.0817  38.2358  38.4230   C.2       1 RES1   0.0000
     7 C7      -0.9360  37.0203  38.2046   C.3       1 RES1   0.0000
     8 C8      -1.2849  36.7074  36.7535   C.3       1 RES1   0.0000
     9 C9      -2.1573  35.4747  36.5882   C.3       1 RES1   0.0000
    10 C10     -2.5038  35.1651  35.1405   C.3       1 RES1   0.0000
    11 C11     -3.3725  33.9419  34.9425   C.3       1 RES1   0.0000
    12 C12     -3.6887  33.6763  33.4906   C.3       1 RES1   0.0000
    13 C13      1.3924  38.0873  38.3169   C.2       1 RES1   0.0000
    14 C14      1.9493  37.2417  37.3643   C.2       1 RES1   0.0000
    15 C15      3.3210  37.0948  37.2828   C.2       1 RES1   0.0000
    16 C16      4.1473  37.7859  38.1485   C.2       1 RES1   0.0000
    17 C17      3.6165  38.6327  39.1080   C.2       1 RES1   0.0000
    18 C18      4.5102  39.3653  40.0797   C.3       1 RES1   0.0000
    19 C19      4.7203  38.6203  41.4006   C.3       1 RES1   0.0000
    20 C20      5.6179  39.3415  42.3939   C.3       1 RES1   0.0000
    21 C21      5.8271  38.6020  43.7067   C.3       1 RES1   0.0000
    22 C22      6.7308  39.3456  44.6860   C.3       1 RES1   0.0000
    23 C23      6.9782  38.6526  46.0220   C.3       1 RES1   0.0000
    24 C24      5.6782  38.4306  46.7809   C.3       1 RES1   0.0000
    25 C25      7.9687  39.4346  46.8709   C.3       1 RES1   0.0000
    26 O26      7.5572  37.3624  45.7488   O.3       1 RES1   0.0000
    27 C27      2.2344  38.7810  39.1821   C.2       1 RES1   0.0000
    28 C28     -3.7559  41.5167  39.4125   C.3       1 RES1   0.0000
    29 C29     -4.1645  42.6603  38.4933   C.3       1 RES1   0.0000
    30 O30     -5.5386  42.9932  38.7040   O.3       1 RES1   0.0000
    31 C31     -3.3018  43.8859  38.7683   C.3       1 RES1   0.0000
    32 C32     -1.8269  43.5654  38.5471   C.3       1 RES1   0.0000
    33 O33     -1.6498  43.2562  37.1674   O.3       1 RES1   0.0000
@<TRIPOS>BOND
     1     1     2    2
     2     2     3    1
     3     3     4    2
     4     4     5    1
     5     5     6    2
     6     6     7    1
     7     7     8    1
     8     8     9    1
     9     9    10    1
    10    10    11    1
    11    11    12    1
    12     6    13    1
    13    13    14    2
    14    14    15    1
    15    15    16    2
    16    16    17    1
    17    17    18    1
    18    18    19    1
    19    19    20    1
    20    20    21    1
    21    21    22    1
    22    22    23    1
    23    23    24    1
    24    23    25    1
    25    23    26    1
    26    17    27    2
    27     3    28    1
    28    28    29    1
    29    29    30    1
    30    29    31    1
    31    31    32    1
    32    32    33    1
    33    32     2    1
    34    27    13    1
@<TRIPOS>SUBSTRUCTURE
     1 RES1        1 GROUP             0 ****  ****    0  
@<TRIPOS>MOLECULE
ligand_20
    33    34     1     0     0
SMALL
NO_CHARGES
****
Generated from the CSD

@<TRIPOS>ATOM
     1 C1      -0.3298  42.3503  40.2275   C.2       1 RES1   0.0000
     2 C2      -1.3890  42.3442  39.4420   C.2       1 RES1   0.0000
     3 C3      -2.2874  41.1725  39.2874   C.2       1 RES1   0.0000
     4 C4      -1.8691  39.9171  38.9540   C.2       1 RES1   0.0000
     5 C5      -0.5281  39.4767  38.7520   C.2       1 RES1   0.0000
     6 C6      -0.0817  38.2358  38.4230   C.2       1 RES1   0.0000
     7 C7      -0.9373  37.0264  38.1774   C.3       1 RES1   0.0000
     8 C8      -1.0216  36.5572  36.7289   C.3       1 RES1   0.0000
     9 C9      -1.8984  35.3319  36.5349   C.3       1 RES1   0.0000
    10 C10     -1.9807  34.8662  35.0898   C.3       1 RES1   0.0000
    11 C11     -2.8475  33.6465  34.8635   C.3       1 RES1   0.0000
    12 C12     -2.8975  33.2234  33.4155   C.3       1 RES1   0.0000
    13 C13      1.3924  38.0873  38.3169   C.2       1 RES1   0.0000
    14 C14      2.0194  36.9327  38.7710   C.2       1 RES1   0.0000
    15 C15      3.3931  36.8085  38.6855   C.2       1 RES1   0.0000
    16 C16      4.1520  37.8317  38.1498   C.2       1 RES1   0.0000
    17 C17      3.5510  38.9932  37.6926   C.2       1 RES1   0.0000
    18 C18      4.3754  40.1296  37.1372   C.3       1 RES1   0.0000
    19 C19      4.6734  39.9968  35.6414   C.3       1 RES1   0.0000
    20 C20      5.5031  41.1319  35.0618   C.3       1 RES1   0.0000
    21 C21      5.7996  41.0007  33.5756   C.3       1 RES1   0.0000
    22 C22      6.6330  42.1511  33.0182   C.3       1 RES1   0.0000
    23 C23      6.9630  42.0751  31.5310   C.3       1 RES1   0.0000
    24 C24      7.7590  40.8206  31.2027   C.3       1 RES1   0.0000
    25 C25      7.7065  43.3190  31.0694   C.3       1 RES1   0.0000
    26 O26      5.7198  42.0128  30.8063   O.3       1 RES1   0.0000
    27 C27      2.1664  39.1106  37.7763   C.2       1 RES1   0.0000
    28 C28     -3.7531  41.5008  39.4738   C.3       1 RES1   0.0000
    29 C29     -4.1578  42.6645  38.5785   C.3       1 RES1   0.0000
    30 O30     -5.5318  42.9950  38.7931   O.3       1 RES1   0.0000
    31 C31     -3.2938  43.8825  38.8817   C.3       1 RES1   0.0000
    32 C32     -1.8189  43.5645  38.6570   C.3       1 RES1   0.0000
    33 O33     -1.6391  43.2847  37.2714   O.3       1 RES1   0.0000
@<TRIPOS>BOND
     1     1     2    2
     2     2     3    1
     3     3     4    2
     4     4     5    1
     5     5     6    2
     6     6     7    1
     7     7     8    1
     8     8     9    1
     9     9    10    1
    10    10    11    1
    11    11    12    1
    12     6    13    1
    13    13    14    2
    14    14    15    1
    15    15    16    2
    16    16    17    1
    17    17    18    1
    18    18    19    1
    19    19    20    1
    20    20    21    1
    21    21    22    1
    22    22    23    1
    23    23    24    1
    24    23    25    1
    25    23    26    1
    26    17    27    2
    27     3    28    1
    28    28    29    1
    29    29    30    1
    30    29    31    1
    31    31    32    1
    32    32    33    1
    33    32     2    1
    34    27    13    1
@<TRIPOS>SUBSTRUCTURE
     1 RES1        1 GROUP             0 ****  ****    0  
@<TRIPOS>MOLECULE
ligand_21
    33    34     1     0     0
SMALL
NO_CHARGES
****
Generated from the CSD

@<TRIPOS>ATOM
     1 C1      -0.3298  42.3503  40.2275   C.2       1 RES1   0.0000
     2 C2      -1.3890  42.3442  39.4420   C.2       1 RES1   0.0000
     3 C3      -2.2874  41.1725  39.2874   C.2       1 RES1   0.0000
     4 C4      -1.8691  39.9171  38.9540   C.2       1 RES1   0.0000
     5 C5      -0.5281  39.4767  38.7520   C.2       1 RES1   0.0000
     6 C6      -0.0817  38.2358  38.4230   C.2       1 RES1   0.0000
     7 C7      -0.9373  37.0264  38.1774   C.3       1 RES1   0.0000
     8 C8      -1.0216  36.5572  36.7289   C.3       1 RES1   0.0000
     9 C9      -1.8984  35.3319  36.5349   C.3       1 RES1   0.0000
    10 C10     -1.9807  34.8662  35.0898   C.3       1 RES1   0.0000
    11 C11     -2.8475  33.6465  34.8635   C.3       1 RES1   0.0000
    12 C12     -2.8975  33.2234  33.4155   C.3       1 RES1   0.0000
    13 C13      1.3924  38.0873  38.3169   C.2       1 RES1   0.0000
    14 C14      2.0194  36.9327  38.7710   C.2       1 RES1   0.0000
    15 C15      3.3931  36.8085  38.6855   C.2       1 RES1   0.0000
    16 C16      4.1520  37.8317  38.1498   C.2       1 RES1   0.0000
    17 C17      3.5510  38.9932  37.6926   C.2       1 RES1   0.0000
    18 C18      4.3754  40.1296  37.1372   C.3       1 RES1   0.0000
    19 C19      4.7470  41.1851  38.1820   C.3       1 RES1   0.0000
    20 C20      5.5779  42.3390  37.6428   C.3       1 RES1   0.0000
    21 C21      5.9475  43.3883  38.6804   C.3       1 RES1   0.0000
    22 C22      6.7806  44.5350  38.1152   C.3       1 RES1   0.0000
    23 C23      7.1824  45.6196  39.1095   C.3       1 RES1   0.0000
    24 C24      5.9618  46.2889  39.7237   C.3       1 RES1   0.0000
    25 C25      8.0903  46.6519  38.4586   C.3       1 RES1   0.0000
    26 O26      7.9242  44.9908  40.1719   O.3       1 RES1   0.0000
    27 C27      2.1664  39.1106  37.7763   C.2       1 RES1   0.0000
    28 C28     -3.7531  41.5008  39.4738   C.3       1 RES1   0.0000
    29 C29     -4.1578  42.6645  38.5785   C.3       1 RES1   0.0000
    30 O30     -5.5318  42.9950  38.7931   O.3       1 RES1   0.0000
    31 C31     -3.2938  43.8825  38.8817   C.3       1 RES1   0.0000
    32 C32     -1.8189  43.5645  38.6570   C.3       1 RES1   0.0000
    33 O33     -1.6391  43.2847  37.2714   O.3       1 RES1   0.0000
@<TRIPOS>BOND
     1     1     2    2
     2     2     3    1
     3     3     4    2
     4     4     5    1
     5     5     6    2
     6     6     7    1
     7     7     8    1
     8     8     9    1
     9     9    10    1
    10    10    11    1
    11    11    12    1
    12     6    13    1
    13    13    14    2
    14    14    15    1
    15    15    16    2
    16    16    17    1
    17    17    18    1
    18    18    19    1
    19    19    20    1
    20    20    21    1
    21    21    22    1
    22    22    23    1
    23    23    24    1
    24    23    25    1
    25    23    26    1
    26    17    27    2
    27     3    28    1
    28    28    29    1
    29    29    30    1
    30    29    31    1
    31    31    32    1
    32    32    33    1
    33    32     2    1
    34    27    13    1
@<TRIPOS>SUBSTRUCTURE
     1 RES1        1 GROUP             0 ****  ****    0  
@<TRIPOS>MOLECULE
ligand_22
    33    34     1     0     0
SMALL
NO_CHARGES
****
Generated from the CSD

@<TRIPOS>ATOM
     1 C1       4.0942  39.3936  39.6349   C.2       1 RES1   0.0000
     2 C2       3.7815  38.5210  40.5727   C.2       1 RES1   0.0000
     3 C3       3.0397  37.2628  40.3063   C.2       1 RES1   0.0000
     4 C4       1.8404  37.1956  39.6586   C.2       1 RES1   0.0000
     5 C5       1.1105  38.2723  39.0746   C.2       1 RES1   0.0000
     6 C6      -0.0817  38.2358  38.4230   C.2       1 RES1   0.0000
     7 C7      -0.9211  37.0134  38.1861   C.3       1 RES1   0.0000
     8 C8      -0.7135  36.3164  36.8458   C.3       1 RES1   0.0000
     9 C9      -1.5875  35.0885  36.6552   C.3       1 RES1   0.0000
    10 C10     -1.3785  34.3955  35.3180   C.3       1 RES1   0.0000
    11 C11     -2.2354  33.1677  35.0977   C.3       1 RES1   0.0000
    12 C12     -1.9921  32.5159  33.7582   C.3       1 RES1   0.0000
    13 C13     -0.5687  39.5360  37.8953   C.2       1 RES1   0.0000
    14 C14     -1.2609  39.5937  36.6910   C.2       1 RES1   0.0000
    15 C15     -1.6957  40.8089  36.1970   C.2       1 RES1   0.0000
    16 C16     -1.4438  41.9741  36.8960   C.2       1 RES1   0.0000
    17 C17     -0.7541  41.9433  38.0971   C.2       1 RES1   0.0000
    18 C18     -0.4452  43.2149  38.8501   C.3       1 RES1   0.0000
    19 C19     -1.5653  43.6545  39.7965   C.3       1 RES1   0.0000
    20 C20     -1.2740  44.9339  40.5651   C.3       1 RES1   0.0000
    21 C21     -2.3866  45.3714  41.5058   C.3       1 RES1   0.0000
    22 C22     -2.0705  46.6568  42.2649   C.3       1 RES1   0.0000
    23 C23     -3.1500  47.1462  43.2248   C.3       1 RES1   0.0000
    24 C24     -4.4532  47.4340  42.4941   C.3       1 RES1   0.0000
    25 C25     -2.6845  48.3720  43.9956   C.3       1 RES1   0.0000
    26 O26     -3.4000  46.0968  44.1791   O.3       1 RES1   0.0000
    27 C27     -0.3231  40.7158  38.5925   C.2       1 RES1   0.0000
    28 C28      3.7062  36.0305  40.8790   C.3       1 RES1   0.0000
    29 C29      4.0062  36.2250  42.3595   C.3       1 RES1   0.0000
    30 O30      4.6741  35.0738  42.8809   O.3       1 RES1   0.0000
    31 C31      4.8885  37.4515  42.5575   C.3       1 RES1   0.0000
    32 C32      4.2013  38.7009  42.0154   C.3       1 RES1   0.0000
    33 O33      3.0283  38.9256  42.7925   O.3       1 RES1   0.0000
@<TRIPOS>BOND
     1     1     2    2
     2     2     3    1
     3     3     4    2
     4     4     5    1
     5     5     6    2
     6     6     7    1
     7     7     8    1
     8     8     9    1
     9     9    10    1
    10    10    11    1
    11    11    12    1
    12     6    13    1
    13    13    14    2
    14    14    15    1
    15    15    16    2
    16    16    17    1
    17    17    18    1
    18    18    19    1
    19    19    20    1
    20    20    21    1
    21    21    22    1
    22    22    23    1
    23    23    24    1
    24    23    25    1
    25    23    26    1
    26    17    27    2
    27     3    28    1
    28    28    29    1
    29    29    30    1
    30    29    31    1
    31    31    32    1
    32    32    33    1
    33    32     2    1
    34    27    13    1
@<TRIPOS>SUBSTRUCTURE
     1 RES1        1 GROUP             0 ****  ****    0  
@<TRIPOS>MOLECULE
ligand_23
    33    34     1     0     0
SMALL
NO_CHARGES
****
Generated from the CSD

@<TRIPOS>ATOM
     1 C1       4.1028  39.3871  39.6110   C.2       1 RES1   0.0000
     2 C2       3.7931  38.5170  40.5522   C.2       1 RES1   0.0000
     3 C3       3.0473  37.2600  40.2922   C.2       1 RES1   0.0000
     4 C4       1.8445  37.1940  39.6509   C.2       1 RES1   0.0000
     5 C5       1.1139  38.2711  39.0685   C.2       1 RES1   0.0000
     6 C6      -0.0817  38.2358  38.4230   C.2       1 RES1   0.0000
     7 C7      -0.9248  37.0146  38.1926   C.3       1 RES1   0.0000
     8 C8      -0.9871  36.5141  36.7536   C.3       1 RES1   0.0000
     9 C9      -1.8519  35.2780  36.5748   C.3       1 RES1   0.0000
    10 C10     -1.9123  34.7810  35.1391   C.3       1 RES1   0.0000
    11 C11     -2.7667  33.5499  34.9281   C.3       1 RES1   0.0000
    12 C12     -2.7951  33.0958  33.4889   C.3       1 RES1   0.0000
    13 C13     -0.5687  39.5360  37.8953   C.2       1 RES1   0.0000
    14 C14      0.3207  40.4508  37.3433   C.2       1 RES1   0.0000
    15 C15     -0.1368  41.6660  36.8703   C.2       1 RES1   0.0000
    16 C16     -1.4805  41.9801  36.9445   C.2       1 RES1   0.0000
    17 C17     -2.3864  41.0863  37.4922   C.2       1 RES1   0.0000
    18 C18     -3.8508  41.4351  37.6081   C.3       1 RES1   0.0000
    19 C19     -4.6625  41.0974  36.3547   C.3       1 RES1   0.0000
    20 C20     -6.1408  41.4410  36.4507   C.3       1 RES1   0.0000
    21 C21     -6.9480  41.1057  35.2057   C.3       1 RES1   0.0000
    22 C22     -8.4273  41.4597  35.3268   C.3       1 RES1   0.0000
    23 C23     -9.2893  41.1463  34.1081   C.3       1 RES1   0.0000
    24 C24     -8.8061  41.9006  32.8781   C.3       1 RES1   0.0000
    25 C25    -10.7552  41.4465  34.3807   C.3       1 RES1   0.0000
    26 O26     -9.1731  39.7365  33.8369   O.3       1 RES1   0.0000
    27 C27     -1.9208  39.8616  37.9623   C.2       1 RES1   0.0000
    28 C28      3.7141  36.0274  40.8639   C.3       1 RES1   0.0000
    29 C29      4.0222  36.2242  42.3424   C.3       1 RES1   0.0000
    30 O30      4.6904  35.0726  42.8627   O.3       1 RES1   0.0000
    31 C31      4.9081  37.4492  42.5334   C.3       1 RES1   0.0000
    32 C32      4.2208  38.6990  41.9923   C.3       1 RES1   0.0000
    33 O33      3.0523  38.9277  42.7751   O.3       1 RES1   0.0000
@<TRIPOS>BOND
     1     1     2    2
     2     2     3    1
     3     3     4    2
     4     4     5    1
     5     5     6    2
     6     6     7    1
     7     7     8    1
     8     8     9    1
     9     9    10    1
    10    10    11    1
    11    11    12    1
    12     6    13    1
    13    13    14    2
    14    14    15    1
    15    15    16    2
    16    16    17    1
    17    17    18    1
    18    18    19    1
    19    19    20    1
    20    20    21    1
    21    21    22    1
    22    22    23    1
    23    23    24    1
    24    23    25    1
    25    23    26    1
    26    17    27    2
    27     3    28    1
    28    28    29    1
    29    29    30    1
    30    29    31    1
    31    31    32    1
    32    32    33    1
    33    32     2    1
    34    27    13    1
@<TRIPOS>SUBSTRUCTURE
     1 RES1        1 GROUP             0 ****  ****    0  
@<TRIPOS>MOLECULE
ligand_24
    33    34     1     0     0
SMALL
NO_CHARGES
****
Generated from the CSD

@<TRIPOS>ATOM
     1 C1      -0.3302  42.3569  40.2123   C.2       1 RES1   0.0000
     2 C2      -1.3897  42.3476  39.4273   C.2       1 RES1   0.0000
     3 C3      -2.2879  41.1751  39.2775   C.2       1 RES1   0.0000
     4 C4      -1.8693  39.9185  38.9486   C.2       1 RES1   0.0000
     5 C5      -0.5283  39.4778  38.7476   C.2       1 RES1   0.0000
     6 C6      -0.0817  38.2358  38.4230   C.2       1 RES1   0.0000
     7 C7      -0.9371  37.0253  38.1821   C.3       1 RES1   0.0000
     8 C8      -1.0217  36.5508  36.7354   C.3       1 RES1   0.0000
     9 C9      -1.8984  35.3246  36.5461   C.3       1 RES1   0.0000
    10 C10     -1.9810  34.8536  35.1028   C.3       1 RES1   0.0000
    11 C11     -2.8476  33.6329  34.8812   C.3       1 RES1   0.0000
    12 C12     -2.8980  33.2045  33.4347   C.3       1 RES1   0.0000
    13 C13      1.3924  38.0873  38.3169   C.2       1 RES1   0.0000
    14 C14      2.1652  39.1010  37.7621   C.2       1 RES1   0.0000
    15 C15      3.5342  38.9489  37.6503   C.2       1 RES1   0.0000
    16 C16      4.1431  37.7880  38.0876   C.2       1 RES1   0.0000
    17 C17      3.3946  36.7624  38.6419   C.2       1 RES1   0.0000
    18 C18      4.0475  35.4772  39.0910   C.3       1 RES1   0.0000
    19 C19      4.5748  35.5268  40.5274   C.3       1 RES1   0.0000
    20 C20      5.2364  34.2416  40.9996   C.3       1 RES1   0.0000
    21 C21      5.7607  34.2901  42.4268   C.3       1 RES1   0.0000
    22 C22      6.4197  32.9894  42.8768   C.3       1 RES1   0.0000
    23 C23      6.9656  32.9772  44.3010   C.3       1 RES1   0.0000
    24 C24      8.0330  34.0440  44.4952   C.3       1 RES1   0.0000
    25 C25      7.5053  31.6040  44.6702   C.3       1 RES1   0.0000
    26 O26      5.8750  33.2745  45.1936   O.3       1 RES1   0.0000
    27 C27      2.0167  36.9232  38.7569   C.2       1 RES1   0.0000
    28 C28     -3.7536  41.5036  39.4632   C.3       1 RES1   0.0000
    29 C29     -4.1589  42.6639  38.5637   C.3       1 RES1   0.0000
    30 O30     -5.5330  42.9948  38.7776   O.3       1 RES1   0.0000
    31 C31     -3.2952  43.8832  38.8620   C.3       1 RES1   0.0000
    32 C32     -1.8203  43.5648  38.6379   C.3       1 RES1   0.0000
    33 O33     -1.6410  43.2799  37.2533   O.3       1 RES1   0.0000
@<TRIPOS>BOND
     1     1     2    2
     2     2     3    1
     3     3     4    2
     4     4     5    1
     5     5     6    2
     6     6     7    1
     7     7     8    1
     8     8     9    1
     9     9    10    1
    10    10    11    1
    11    11    12    1
    12     6    13    1
    13    13    14    2
    14    14    15    1
    15    15    16    2
    16    16    17    1
    17    17    18    1
    18    18    19    1
    19    19    20    1
    20    20    21    1
    21    21    22    1
    22    22    23    1
    23    23    24    1
    24    23    25    1
    25    23    26    1
    26    17    27    2
    27     3    28    1
    28    28    29    1
    29    29    30    1
    30    29    31    1
    31    31    32    1
    32    32    33    1
    33    32     2    1
    34    27    13    1
@<TRIPOS>SUBSTRUCTURE
     1 RES1        1 GROUP             0 ****  ****    0  
@<TRIPOS>MOLECULE
ligand_25
    33    34     1     0     0
SMALL
NO_CHARGES
****
Generated from the CSD

@<TRIPOS>ATOM
     1 C1       4.0942  39.3936  39.6349   C.2       1 RES1   0.0000
     2 C2       3.7815  38.5210  40.5727   C.2       1 RES1   0.0000
     3 C3       3.0397  37.2628  40.3063   C.2       1 RES1   0.0000
     4 C4       1.8404  37.1956  39.6586   C.2       1 RES1   0.0000
     5 C5       1.1105  38.2723  39.0746   C.2       1 RES1   0.0000
     6 C6      -0.0817  38.2358  38.4230   C.2       1 RES1   0.0000
     7 C7      -0.9211  37.0134  38.1861   C.3       1 RES1   0.0000
     8 C8      -0.7135  36.3164  36.8458   C.3       1 RES1   0.0000
     9 C9      -1.5875  35.0885  36.6552   C.3       1 RES1   0.0000
    10 C10     -1.3785  34.3955  35.3180   C.3       1 RES1   0.0000
    11 C11     -2.2354  33.1677  35.0977   C.3       1 RES1   0.0000
    12 C12     -1.9921  32.5159  33.7582   C.3       1 RES1   0.0000
    13 C13     -0.5687  39.5360  37.8953   C.2       1 RES1   0.0000
    14 C14     -1.2609  39.5937  36.6910   C.2       1 RES1   0.0000
    15 C15     -1.6957  40.8089  36.1970   C.2       1 RES1   0.0000
    16 C16     -1.4438  41.9741  36.8960   C.2       1 RES1   0.0000
    17 C17     -0.7541  41.9433  38.0971   C.2       1 RES1   0.0000
    18 C18     -0.4452  43.2149  38.8501   C.3       1 RES1   0.0000
    19 C19      0.9259  43.8079  38.5151   C.3       1 RES1   0.0000
    20 C20      1.2569  45.0899  39.2633   C.3       1 RES1   0.0000
    21 C21      2.6191  45.6798  38.9310   C.3       1 RES1   0.0000
    22 C22      2.9276  46.9648  39.6940   C.3       1 RES1   0.0000
    23 C23      4.2813  47.6041  39.4024   C.3       1 RES1   0.0000
    24 C24      5.4254  46.6614  39.7454   C.3       1 RES1   0.0000
    25 C25      4.4347  48.9254  40.1400   C.3       1 RES1   0.0000
    26 O26      4.3434  47.8802  37.9902   O.3       1 RES1   0.0000
    27 C27     -0.3231  40.7158  38.5925   C.2       1 RES1   0.0000
    28 C28      3.7062  36.0305  40.8790   C.3       1 RES1   0.0000
    29 C29      4.0062  36.2250  42.3595   C.3       1 RES1   0.0000
    30 O30      4.6741  35.0738  42.8809   O.3       1 RES1   0.0000
    31 C31      4.8885  37.4515  42.5575   C.3       1 RES1   0.0000
    32 C32      4.2013  38.7009  42.0154   C.3       1 RES1   0.0000
    33 O33      3.0283  38.9256  42.7925   O.3       1 RES1   0.0000
@<TRIPOS>BOND
     1     1     2    2
     2     2     3    1
     3     3     4    2
     4     4     5    1
     5     5     6    2
     6     6     7    1
     7     7     8    1
     8     8     9    1
     9     9    10    1
    10    10    11    1
    11    11    12    1
    12     6    13    1
    13    13    14    2
    14    14    15    1
    15    15    16    2
    16    16    17    1
    17    17    18    1
    18    18    19    1
    19    19    20    1
    20    20    21    1
    21    21    22    1
    22    22    23    1
    23    23    24    1
    24    23    25    1
    25    23    26    1
    26    17    27    2
    27     3    28    1
    28    28    29    1
    29    29    30    1
    30    29    31    1
    31    31    32    1
    32    32    33    1
    33    32     2    1
    34    27    13    1
@<TRIPOS>SUBSTRUCTURE
     1 RES1        1 GROUP             0 ****  ****    0  
@<TRIPOS>MOLECULE
ligand_26
    33    34     1     0     0
SMALL
NO_CHARGES
****
Generated from the CSD

@<TRIPOS>ATOM
     1 C1       4.1028  39.3871  39.6110   C.2       1 RES1   0.0000
     2 C2       3.7931  38.5170  40.5522   C.2       1 RES1   0.0000
     3 C3       3.0473  37.2600  40.2922   C.2       1 RES1   0.0000
     4 C4       1.8445  37.1940  39.6509   C.2       1 RES1   0.0000
     5 C5       1.1139  38.2711  39.0685   C.2       1 RES1   0.0000
     6 C6      -0.0817  38.2358  38.4230   C.2       1 RES1   0.0000
     7 C7      -0.9248  37.0146  38.1926   C.3       1 RES1   0.0000
     8 C8      -0.9871  36.5141  36.7536   C.3       1 RES1   0.0000
     9 C9      -1.8519  35.2780  36.5748   C.3       1 RES1   0.0000
    10 C10     -1.9123  34.7810  35.1391   C.3       1 RES1   0.0000
    11 C11     -2.7667  33.5499  34.9281   C.3       1 RES1   0.0000
    12 C12     -2.7951  33.0958  33.4889   C.3       1 RES1   0.0000
    13 C13     -0.5687  39.5360  37.8953   C.2       1 RES1   0.0000
    14 C14      0.3207  40.4508  37.3433   C.2       1 RES1   0.0000
    15 C15     -0.1368  41.6660  36.8703   C.2       1 RES1   0.0000
    16 C16     -1.4805  41.9801  36.9445   C.2       1 RES1   0.0000
    17 C17     -2.3864  41.0863  37.4922   C.2       1 RES1   0.0000
    18 C18     -3.8508  41.4351  37.6081   C.3       1 RES1   0.0000
    19 C19     -4.2283  42.0561  38.9555   C.3       1 RES1   0.0000
    20 C20     -5.6997  42.4150  39.0929   C.3       1 RES1   0.0000
    21 C21     -6.0756  43.0321  40.4316   C.3       1 RES1   0.0000
    22 C22     -7.5563  43.3832  40.5447   C.3       1 RES1   0.0000
    23 C23     -7.9942  44.0062  41.8663   C.3       1 RES1   0.0000
    24 C24     -7.7232  43.0723  43.0366   C.3       1 RES1   0.0000
    25 C25     -9.4615  44.4047  41.8258   C.3       1 RES1   0.0000
    26 O26     -7.2197  45.2038  42.0670   O.3       1 RES1   0.0000
    27 C27     -1.9208  39.8616  37.9623   C.2       1 RES1   0.0000
    28 C28      3.7141  36.0274  40.8639   C.3       1 RES1   0.0000
    29 C29      4.0222  36.2242  42.3424   C.3       1 RES1   0.0000
    30 O30      4.6904  35.0726  42.8627   O.3       1 RES1   0.0000
    31 C31      4.9081  37.4492  42.5334   C.3       1 RES1   0.0000
    32 C32      4.2208  38.6990  41.9923   C.3       1 RES1   0.0000
    33 O33      3.0523  38.9277  42.7751   O.3       1 RES1   0.0000
@<TRIPOS>BOND
     1     1     2    2
     2     2     3    1
     3     3     4    2
     4     4     5    1
     5     5     6    2
     6     6     7    1
     7     7     8    1
     8     8     9    1
     9     9    10    1
    10    10    11    1
    11    11    12    1
    12     6    13    1
    13    13    14    2
    14    14    15    1
    15    15    16    2
    16    16    17    1
    17    17    18    1
    18    18    19    1
    19    19    20    1
    20    20    21    1
    21    21    22    1
    22    22    23    1
    23    23    24    1
    24    23    25    1
    25    23    26    1
    26    17    27    2
    27     3    28    1
    28    28    29    1
    29    29    30    1
    30    29    31    1
    31    31    32    1
    32    32    33    1
    33    32     2    1
    34    27    13    1
@<TRIPOS>SUBSTRUCTURE
     1 RES1        1 GROUP             0 ****  ****    0  
@<TRIPOS>MOLECULE
ligand_27
    33    34     1     0     0
SMALL
NO_CHARGES
****
Generated from the CSD

@<TRIPOS>ATOM
     1 C1      -0.3302  42.3569  40.2123   C.2       1 RES1   0.0000
     2 C2      -1.3897  42.3476  39.4273   C.2       1 RES1   0.0000
     3 C3      -2.2879  41.1751  39.2775   C.2       1 RES1   0.0000
     4 C4      -1.8693  39.9185  38.9486   C.2       1 RES1   0.0000
     5 C5      -0.5283  39.4778  38.7476   C.2       1 RES1   0.0000
     6 C6      -0.0817  38.2358  38.4230   C.2       1 RES1   0.0000
     7 C7      -0.9371  37.0253  38.1821   C.3       1 RES1   0.0000
     8 C8      -1.0217  36.5508  36.7354   C.3       1 RES1   0.0000
     9 C9      -1.8984  35.3246  36.5461   C.3       1 RES1   0.0000
    10 C10     -1.9810  34.8536  35.1028   C.3       1 RES1   0.0000
    11 C11     -2.8476  33.6329  34.8812   C.3       1 RES1   0.0000
    12 C12     -2.8980  33.2045  33.4347   C.3       1 RES1   0.0000
    13 C13      1.3924  38.0873  38.3169   C.2       1 RES1   0.0000
    14 C14      2.1652  39.1010  37.7621   C.2       1 RES1   0.0000
    15 C15      3.5342  38.9489  37.6503   C.2       1 RES1   0.0000
    16 C16      4.1431  37.7880  38.0876   C.2       1 RES1   0.0000
    17 C17      3.3946  36.7624  38.6419   C.2       1 RES1   0.0000
    18 C18      4.0475  35.4772  39.0910   C.3       1 RES1   0.0000
    19 C19      4.0503  34.3840  38.0192   C.3       1 RES1   0.0000
    20 C20      4.7036  33.0806  38.4516   C.3       1 RES1   0.0000
    21 C21      4.7068  31.9937  37.3872   C.3       1 RES1   0.0000
    22 C22      5.3674  30.6966  37.8449   C.3       1 RES1   0.0000
    23 C23      5.4010  29.5681  36.8193   C.3       1 RES1   0.0000
    24 C24      3.9974  29.1632  36.3939   C.3       1 RES1   0.0000
    25 C25      6.1689  28.3671  37.3496   C.3       1 RES1   0.0000
    26 O26      6.0945  30.0525  35.6536   O.3       1 RES1   0.0000
    27 C27      2.0167  36.9232  38.7569   C.2       1 RES1   0.0000
    28 C28     -3.7536  41.5036  39.4632   C.3       1 RES1   0.0000
    29 C29     -4.1589  42.6639  38.5637   C.3       1 RES1   0.0000
    30 O30     -5.5330  42.9948  38.7776   O.3       1 RES1   0.0000
    31 C31     -3.2952  43.8832  38.8620   C.3       1 RES1   0.0000
    32 C32     -1.8203  43.5648  38.6379   C.3       1 RES1   0.0000
    33 O33     -1.6410  43.2799  37.2533   O.3       1 RES1   0.0000
@<TRIPOS>BOND
     1     1     2    2
     2     2     3    1
     3     3     4    2
     4     4     5    1
     5     5     6    2
     6     6     7    1
     7     7     8    1
     8     8     9    1
     9     9    10    1
    10    10    11    1
    11    11    12    1
    12     6    13    1
    13    13    14    2
    14    14    15    1
    15    15    16    2
    16    16    17    1
    17    17    18    1
    18    18    19    1
    19    19    20    1
    20    20    21    1
    21    21    22    1
    22    22    23    1
    23    23    24    1
    24    23    25    1
    25    23    26    1
    26    17    27    2
    27     3    28    1
    28    28    29    1
    29    29    30    1
    30    29    31    1
    31    31    32    1
    32    32    33    1
    33    32     2    1
    34    27    13    1
@<TRIPOS>SUBSTRUCTURE
     1 RES1        1 GROUP             0 ****  ****    0  
@<TRIPOS>MOLECULE
ligand_28
    33    34     1     0     0
SMALL
NO_CHARGES
****
Generated from the CSD

@<TRIPOS>ATOM
     1 C1      -0.3323  42.3871  40.1409   C.2       1 RES1   0.0000
     2 C2      -1.3932  42.3628  39.3582   C.2       1 RES1   0.0000
     3 C3      -2.2901  41.1867  39.2305   C.2       1 RES1   0.0000
     4 C4      -1.8705  39.9251  38.9229   C.2       1 RES1   0.0000
     5 C5      -0.5293  39.4826  38.7271   C.2       1 RES1   0.0000
     6 C6      -0.0817  38.2358  38.4230   C.2       1 RES1   0.0000
     7 C7      -0.9360  37.0203  38.2043   C.3       1 RES1   0.0000
     8 C8      -1.2890  36.7107  36.7535   C.3       1 RES1   0.0000
     9 C9      -2.1606  35.4775  36.5878   C.3       1 RES1   0.0000
    10 C10     -2.5111  35.1710  35.1404   C.3       1 RES1   0.0000
    11 C11     -3.3791  33.9473  34.9420   C.3       1 RES1   0.0000
    12 C12     -3.6994  33.6849  33.4905   C.3       1 RES1   0.0000
    13 C13      1.3924  38.0873  38.3169   C.2       1 RES1   0.0000
    14 C14      2.2353  38.7919  39.1688   C.2       1 RES1   0.0000
    15 C15      3.6063  38.6626  39.0529   C.2       1 RES1   0.0000
    16 C16      4.1478  37.8338  38.0888   C.2       1 RES1   0.0000
    17 C17      3.3291  37.1229  37.2265   C.2       1 RES1   0.0000
    18 C18      3.9127  36.2415  36.1484   C.3       1 RES1   0.0000
    19 C19      4.2223  34.8186  36.6209   C.3       1 RES1   0.0000
    20 C20      4.8113  33.9140  35.5497   C.3       1 RES1   0.0000
    21 C21      5.1193  32.4999  36.0183   C.3       1 RES1   0.0000
    22 C22      5.7089  31.6124  34.9260   C.3       1 RES1   0.0000
    23 C23      6.0389  30.1810  35.3365   C.3       1 RES1   0.0000
    24 C24      7.0626  30.1486  36.4617   C.3       1 RES1   0.0000
    25 C25      6.5227  29.3664  34.1466   C.3       1 RES1   0.0000
    26 O26      4.8277  29.5714  35.8222   O.3       1 RES1   0.0000
    27 C27      1.9487  37.2528  37.3512   C.2       1 RES1   0.0000
    28 C28     -3.7559  41.5165  39.4132   C.3       1 RES1   0.0000
    29 C29     -4.1644  42.6604  38.4943   C.3       1 RES1   0.0000
    30 O30     -5.5385  42.9932  38.7050   O.3       1 RES1   0.0000
    31 C31     -3.3018  43.8859  38.7696   C.3       1 RES1   0.0000
    32 C32     -1.8268  43.5654  38.5484   C.3       1 RES1   0.0000
    33 O33     -1.6497  43.2566  37.1686   O.3       1 RES1   0.0000
@<TRIPOS>BOND
     1     1     2    2
     2     2     3    1
     3     3     4    2
     4     4     5    1
     5     5     6    2
     6     6     7    1
     7     7     8    1
     8     8     9    1
     9     9    10    1
    10    10    11    1
    11    11    12    1
    12     6    13    1
    13    13    14    2
    14    14    15    1
    15    15    16    2
    16    16    17    1
    17    17    18    1
    18    18    19    1
    19    19    20    1
    20    20    21    1
    21    21    22    1
    22    22    23    1
    23    23    24    1
    24    23    25    1
    25    23    26    1
    26    17    27    2
    27     3    28    1
    28    28    29    1
    29    29    30    1
    30    29    31    1
    31    31    32    1
    32    32    33    1
    33    32     2    1
    34    27    13    1
@<TRIPOS>SUBSTRUCTURE
     1 RES1        1 GROUP             0 ****  ****    0  
@<TRIPOS>MOLECULE
ligand_29
    33    34     1     0     0
SMALL
NO_CHARGES
****
Generated from the CSD

@<TRIPOS>ATOM
     1 C1      -0.3323  42.3871  40.1409   C.2       1 RES1   0.0000
     2 C2      -1.3932  42.3628  39.3582   C.2       1 RES1   0.0000
     3 C3      -2.2901  41.1867  39.2305   C.2       1 RES1   0.0000
     4 C4      -1.8705  39.9251  38.9229   C.2       1 RES1   0.0000
     5 C5      -0.5293  39.4826  38.7271   C.2       1 RES1   0.0000
     6 C6      -0.0817  38.2358  38.4230   C.2       1 RES1   0.0000
     7 C7      -0.9360  37.0203  38.2043   C.3       1 RES1   0.0000
     8 C8      -1.2890  36.7107  36.7535   C.3       1 RES1   0.0000
     9 C9      -2.1606  35.4775  36.5878   C.3       1 RES1   0.0000
    10 C10     -2.5111  35.1710  35.1404   C.3       1 RES1   0.0000
    11 C11     -3.3791  33.9473  34.9420   C.3       1 RES1   0.0000
    12 C12     -3.6994  33.6849  33.4905   C.3       1 RES1   0.0000
    13 C13      1.3924  38.0873  38.3169   C.2       1 RES1   0.0000
    14 C14      2.2353  38.7919  39.1688   C.2       1 RES1   0.0000
    15 C15      3.6063  38.6626  39.0529   C.2       1 RES1   0.0000
    16 C16      4.1478  37.8338  38.0888   C.2       1 RES1   0.0000
    17 C17      3.3291  37.1229  37.2265   C.2       1 RES1   0.0000
    18 C18      3.9127  36.2415  36.1484   C.3       1 RES1   0.0000
    19 C19      4.0770  36.9488  34.8007   C.3       1 RES1   0.0000
    20 C20      4.6636  36.0781  33.7005   C.3       1 RES1   0.0000
    21 C21      4.8272  36.7801  32.3608   C.3       1 RES1   0.0000
    22 C22      5.4173  35.8860  31.2741   C.3       1 RES1   0.0000
    23 C23      5.6053  36.5352  29.9068   C.3       1 RES1   0.0000
    24 C24      4.2810  37.0215  29.3367   C.3       1 RES1   0.0000
    25 C25      6.2905  35.5844  28.9373   C.3       1 RES1   0.0000
    26 O26      6.4615  37.6808  30.0767   O.3       1 RES1   0.0000
    27 C27      1.9487  37.2528  37.3512   C.2       1 RES1   0.0000
    28 C28     -3.7559  41.5165  39.4132   C.3       1 RES1   0.0000
    29 C29     -4.1644  42.6604  38.4943   C.3       1 RES1   0.0000
    30 O30     -5.5385  42.9932  38.7050   O.3       1 RES1   0.0000
    31 C31     -3.3018  43.8859  38.7696   C.3       1 RES1   0.0000
    32 C32     -1.8268  43.5654  38.5484   C.3       1 RES1   0.0000
    33 O33     -1.6497  43.2566  37.1686   O.3       1 RES1   0.0000
@<TRIPOS>BOND
     1     1     2    2
     2     2     3    1
     3     3     4    2
     4     4     5    1
     5     5     6    2
     6     6     7    1
     7     7     8    1
     8     8     9    1
     9     9    10    1
    10    10    11    1
    11    11    12    1
    12     6    13    1
    13    13    14    2
    14    14    15    1
    15    15    16    2
    16    16    17    1
    17    17    18    1
    18    18    19    1
    19    19    20    1
    20    20    21    1
    21    21    22    1
    22    22    23    1
    23    23    24    1
    24    23    25    1
    25    23    26    1
    26    17    27    2
    27     3    28    1
    28    28    29    1
    29    29    30    1
    30    29    31    1
    31    31    32    1
    32    32    33    1
    33    32     2    1
    34    27    13    1
@<TRIPOS>SUBSTRUCTURE
     1 RES1        1 GROUP             0 ****  ****    0  
@<TRIPOS>MOLECULE
ligand_30
    33    34     1     0     0
SMALL
NO_CHARGES
****
Generated from the CSD

@<TRIPOS>ATOM
     1 C1       4.0912  39.3958  39.6431   C.2       1 RES1   0.0000
     2 C2       3.7774  38.5223  40.5797   C.2       1 RES1   0.0000
     3 C3       3.0370  37.2638  40.3112   C.2       1 RES1   0.0000
     4 C4       1.8390  37.1962  39.6614   C.2       1 RES1   0.0000
     5 C5       1.1093  38.2727  39.0768   C.2       1 RES1   0.0000
     6 C6      -0.0817  38.2358  38.4230   C.2       1 RES1   0.0000
     7 C7      -0.9198  37.0129  38.1838   C.3       1 RES1   0.0000
     8 C8      -0.7049  36.3136  36.8458   C.3       1 RES1   0.0000
     9 C9      -1.5778  35.0852  36.6528   C.3       1 RES1   0.0000
    10 C10     -1.3616  34.3898  35.3180   C.3       1 RES1   0.0000
    11 C11     -2.2172  33.1615  35.0953   C.3       1 RES1   0.0000
    12 C12     -1.9667  32.5073  33.7583   C.3       1 RES1   0.0000
    13 C13     -0.5687  39.5360  37.8953   C.2       1 RES1   0.0000
    14 C14     -0.3391  40.7131  38.5984   C.2       1 RES1   0.0000
    15 C15     -0.8104  41.9171  38.1104   C.2       1 RES1   0.0000
    16 C16     -1.5142  41.9583  36.9218   C.2       1 RES1   0.0000
    17 C17     -1.7580  40.7988  36.2038   C.2       1 RES1   0.0000
    18 C18     -2.5550  40.8302  34.9219   C.3       1 RES1   0.0000
    19 C19     -1.7075  41.1185  33.6800   C.3       1 RES1   0.0000
    20 C20     -2.4916  41.1546  32.3775   C.3       1 RES1   0.0000
    21 C21     -1.6502  41.4411  31.1429   C.3       1 RES1   0.0000
    22 C22     -2.4593  41.4720  29.8496   C.3       1 RES1   0.0000
    23 C23     -1.6692  41.7551  28.5760   C.3       1 RES1   0.0000
    24 C24     -0.9816  43.1110  28.6397   C.3       1 RES1   0.0000
    25 C25     -2.5587  41.6612  27.3459   C.3       1 RES1   0.0000
    26 O26     -0.6482  40.7461  28.4573   O.3       1 RES1   0.0000
    27 C27     -1.2763  39.5896  36.6973   C.2       1 RES1   0.0000
    28 C28      3.7034  36.0316  40.8843   C.3       1 RES1   0.0000
    29 C29      4.0007  36.2254  42.3654   C.3       1 RES1   0.0000
    30 O30      4.6684  35.0743  42.8873   O.3       1 RES1   0.0000
    31 C31      4.8817  37.4523  42.5658   C.3       1 RES1   0.0000
    32 C32      4.1946  38.7016  42.0233   C.3       1 RES1   0.0000
    33 O33      3.0200  38.9249  42.7985   O.3       1 RES1   0.0000
@<TRIPOS>BOND
     1     1     2    2
     2     2     3    1
     3     3     4    2
     4     4     5    1
     5     5     6    2
     6     6     7    1
     7     7     8    1
     8     8     9    1
     9     9    10    1
    10    10    11    1
    11    11    12    1
    12     6    13    1
    13    13    14    2
    14    14    15    1
    15    15    16    2
    16    16    17    1
    17    17    18    1
    18    18    19    1
    19    19    20    1
    20    20    21    1
    21    21    22    1
    22    22    23    1
    23    23    24    1
    24    23    25    1
    25    23    26    1
    26    17    27    2
    27     3    28    1
    28    28    29    1
    29    29    30    1
    30    29    31    1
    31    31    32    1
    32    32    33    1
    33    32     2    1
    34    27    13    1
@<TRIPOS>SUBSTRUCTURE
     1 RES1        1 GROUP             0 ****  ****    0  
@<TRIPOS>MOLECULE
ligand_31
    33    34     1     0     0
SMALL
NO_CHARGES
****
Generated from the CSD

@<TRIPOS>ATOM
     1 C1       4.0912  39.3958  39.6431   C.2       1 RES1   0.0000
     2 C2       3.7774  38.5223  40.5797   C.2       1 RES1   0.0000
     3 C3       3.0370  37.2638  40.3112   C.2       1 RES1   0.0000
     4 C4       1.8390  37.1962  39.6614   C.2       1 RES1   0.0000
     5 C5       1.1093  38.2727  39.0768   C.2       1 RES1   0.0000
     6 C6      -0.0817  38.2358  38.4230   C.2       1 RES1   0.0000
     7 C7      -0.9198  37.0129  38.1838   C.3       1 RES1   0.0000
     8 C8      -0.7049  36.3136  36.8458   C.3       1 RES1   0.0000
     9 C9      -1.5778  35.0852  36.6528   C.3       1 RES1   0.0000
    10 C10     -1.3616  34.3898  35.3180   C.3       1 RES1   0.0000
    11 C11     -2.2172  33.1615  35.0953   C.3       1 RES1   0.0000
    12 C12     -1.9667  32.5073  33.7583   C.3       1 RES1   0.0000
    13 C13     -0.5687  39.5360  37.8953   C.2       1 RES1   0.0000
    14 C14     -0.3391  40.7131  38.5984   C.2       1 RES1   0.0000
    15 C15     -0.8104  41.9171  38.1104   C.2       1 RES1   0.0000
    16 C16     -1.5142  41.9583  36.9218   C.2       1 RES1   0.0000
    17 C17     -1.7580  40.7988  36.2038   C.2       1 RES1   0.0000
    18 C18     -2.5550  40.8302  34.9219   C.3       1 RES1   0.0000
    19 C19     -4.0498  40.5673  35.1228   C.3       1 RES1   0.0000
    20 C20     -4.8711  40.5946  33.8433   C.3       1 RES1   0.0000
    21 C21     -6.3566  40.3335  34.0421   C.3       1 RES1   0.0000
    22 C22     -7.1585  40.3661  32.7443   C.3       1 RES1   0.0000
    23 C23     -8.6561  40.1108  32.8800   C.3       1 RES1   0.0000
    24 C24     -8.9332  38.7388  33.4766   C.3       1 RES1   0.0000
    25 C25     -9.3631  40.2676  31.5425   C.3       1 RES1   0.0000
    26 O26     -9.1923  41.1007  33.7784   O.3       1 RES1   0.0000
    27 C27     -1.2763  39.5896  36.6973   C.2       1 RES1   0.0000
    28 C28      3.7034  36.0316  40.8843   C.3       1 RES1   0.0000
    29 C29      4.0007  36.2254  42.3654   C.3       1 RES1   0.0000
    30 O30      4.6684  35.0743  42.8873   O.3       1 RES1   0.0000
    31 C31      4.8817  37.4523  42.5658   C.3       1 RES1   0.0000
    32 C32      4.1946  38.7016  42.0233   C.3       1 RES1   0.0000
    33 O33      3.0200  38.9249  42.7985   O.3       1 RES1   0.0000
@<TRIPOS>BOND
     1     1     2    2
     2     2     3    1
     3     3     4    2
     4     4     5    1
     5     5     6    2
     6     6     7    1
     7     7     8    1
     8     8     9    1
     9     9    10    1
    10    10    11    1
    11    11    12    1
    12     6    13    1
    13    13    14    2
    14    14    15    1
    15    15    16    2
    16    16    17    1
    17    17    18    1
    18    18    19    1
    19    19    20    1
    20    20    21    1
    21    21    22    1
    22    22    23    1
    23    23    24    1
    24    23    25    1
    25    23    26    1
    26    17    27    2
    27     3    28    1
    28    28    29    1
    29    29    30    1
    30    29    31    1
    31    31    32    1
    32    32    33    1
    33    32     2    1
    34    27    13    1
@<TRIPOS>SUBSTRUCTURE
     1 RES1        1 GROUP             0 ****  ****    0  
@<TRIPOS>MOLECULE
ligand_32
    33    34     1     0     0
SMALL
NO_CHARGES
****
Generated from the CSD

@<TRIPOS>ATOM
     1 C1       3.1595  39.5957  41.2058   C.2       1 RES1   0.0000
     2 C2       3.7313  38.5241  40.6925   C.2       1 RES1   0.0000
     3 C3       2.9978  37.2775  40.3812   C.2       1 RES1   0.0000
     4 C4       1.8183  37.2037  39.6990   C.2       1 RES1   0.0000
     5 C5       1.0924  38.2784  39.1064   C.2       1 RES1   0.0000
     6 C6      -0.0817  38.2358  38.4230   C.2       1 RES1   0.0000
     7 C7      -0.9012  37.0069  38.1519   C.3       1 RES1   0.0000
     8 C8      -0.9124  36.5235  36.7057   C.3       1 RES1   0.0000
     9 C9      -1.7549  35.2787  36.4854   C.3       1 RES1   0.0000
    10 C10     -1.7644  34.7988  35.0427   C.3       1 RES1   0.0000
    11 C11     -2.5956  33.5596  34.7905   C.3       1 RES1   0.0000
    12 C12     -2.5735  33.1230  33.3458   C.3       1 RES1   0.0000
    13 C13     -0.5687  39.5360  37.8953   C.2       1 RES1   0.0000
    14 C14      0.1902  40.6900  38.0531   C.2       1 RES1   0.0000
    15 C15     -0.2771  41.8996  37.5752   C.2       1 RES1   0.0000
    16 C16     -1.5020  41.9699  36.9393   C.2       1 RES1   0.0000
    17 C17     -2.2780  40.8345  36.7717   C.2       1 RES1   0.0000
    18 C18     -3.6323  40.9083  36.1084   C.3       1 RES1   0.0000
    19 C19     -3.5754  40.7856  34.5835   C.3       1 RES1   0.0000
    20 C20     -4.9297  40.8575  33.8954   C.3       1 RES1   0.0000
    21 C21     -4.8741  40.7356  32.3801   C.3       1 RES1   0.0000
    22 C22     -6.2447  40.8106  31.7135   C.3       1 RES1   0.0000
    23 C23     -6.2532  40.6943  30.1928   C.3       1 RES1   0.0000
    24 C24     -5.4426  41.8082  29.5466   C.3       1 RES1   0.0000
    25 C25     -7.6744  40.6807  29.6511   C.3       1 RES1   0.0000
    26 O26     -5.6385  39.4395  29.8432   O.3       1 RES1   0.0000
    27 C27     -1.8000  39.6179  37.2504   C.2       1 RES1   0.0000
    28 C28      3.6248  36.0151  40.9483   C.3       1 RES1   0.0000
    29 C29      5.1299  35.9259  40.7069   C.3       1 RES1   0.0000
    30 O30      5.3504  35.6836  39.3156   O.3       1 RES1   0.0000
    31 C31      5.8221  37.2165  41.1374   C.3       1 RES1   0.0000
    32 C32      5.2338  38.4404  40.4359   C.3       1 RES1   0.0000
    33 O33      5.9262  39.6356  40.7861   O.3       1 RES1   0.0000
@<TRIPOS>BOND
     1     1     2    2
     2     2     3    1
     3     3     4    2
     4     4     5    1
     5     5     6    2
     6     6     7    1
     7     7     8    1
     8     8     9    1
     9     9    10    1
    10    10    11    1
    11    11    12    1
    12     6    13    1
    13    13    14    2
    14    14    15    1
    15    15    16    2
    16    16    17    1
    17    17    18    1
    18    18    19    1
    19    19    20    1
    20    20    21    1
    21    21    22    1
    22    22    23    1
    23    23    24    1
    24    23    25    1
    25    23    26    1
    26    17    27    2
    27     3    28    1
    28    28    29    1
    29    29    30    1
    30    29    31    1
    31    31    32    1
    32    32    33    1
    33    32     2    1
    34    27    13    1
@<TRIPOS>SUBSTRUCTURE
     1 RES1        1 GROUP             0 ****  ****    0  
@<TRIPOS>MOLECULE
ligand_33
    33    34     1     0     0
SMALL
NO_CHARGES
****
Generated from the CSD

@<TRIPOS>ATOM
     1 C1       3.1595  39.5957  41.2058   C.2       1 RES1   0.0000
     2 C2       3.7313  38.5241  40.6925   C.2       1 RES1   0.0000
     3 C3       2.9978  37.2775  40.3812   C.2       1 RES1   0.0000
     4 C4       1.8183  37.2037  39.6990   C.2       1 RES1   0.0000
     5 C5       1.0924  38.2784  39.1064   C.2       1 RES1   0.0000
     6 C6      -0.0817  38.2358  38.4230   C.2       1 RES1   0.0000
     7 C7      -0.9012  37.0069  38.1519   C.3       1 RES1   0.0000
     8 C8      -0.9124  36.5235  36.7057   C.3       1 RES1   0.0000
     9 C9      -1.7549  35.2787  36.4854   C.3       1 RES1   0.0000
    10 C10     -1.7644  34.7988  35.0427   C.3       1 RES1   0.0000
    11 C11     -2.5956  33.5596  34.7905   C.3       1 RES1   0.0000
    12 C12     -2.5735  33.1230  33.3458   C.3       1 RES1   0.0000
    13 C13     -0.5687  39.5360  37.8953   C.2       1 RES1   0.0000
    14 C14      0.1902  40.6900  38.0531   C.2       1 RES1   0.0000
    15 C15     -0.2771  41.8996  37.5752   C.2       1 RES1   0.0000
    16 C16     -1.5020  41.9699  36.9393   C.2       1 RES1   0.0000
    17 C17     -2.2780  40.8345  36.7717   C.2       1 RES1   0.0000
    18 C18     -3.6323  40.9083  36.1084   C.3       1 RES1   0.0000
    19 C19     -4.7888  41.0909  37.0947   C.3       1 RES1   0.0000
    20 C20     -6.1624  41.1676  36.4466   C.3       1 RES1   0.0000
    21 C21     -7.3122  41.3490  37.4260   C.3       1 RES1   0.0000
    22 C22     -8.6791  41.4231  36.7517   C.3       1 RES1   0.0000
    23 C23     -9.8727  41.6049  37.6838   C.3       1 RES1   0.0000
    24 C24     -9.9858  40.4531  38.6715   C.3       1 RES1   0.0000
    25 C25    -11.1642  41.7662  36.8967   C.3       1 RES1   0.0000
    26 O26     -9.6637  42.8148  38.4367   O.3       1 RES1   0.0000
    27 C27     -1.8000  39.6179  37.2504   C.2       1 RES1   0.0000
    28 C28      3.6248  36.0151  40.9483   C.3       1 RES1   0.0000
    29 C29      5.1299  35.9259  40.7069   C.3       1 RES1   0.0000
    30 O30      5.3504  35.6836  39.3156   O.3       1 RES1   0.0000
    31 C31      5.8221  37.2165  41.1374   C.3       1 RES1   0.0000
    32 C32      5.2338  38.4404  40.4359   C.3       1 RES1   0.0000
    33 O33      5.9262  39.6356  40.7861   O.3       1 RES1   0.0000
@<TRIPOS>BOND
     1     1     2    2
     2     2     3    1
     3     3     4    2
     4     4     5    1
     5     5     6    2
     6     6     7    1
     7     7     8    1
     8     8     9    1
     9     9    10    1
    10    10    11    1
    11    11    12    1
    12     6    13    1
    13    13    14    2
    14    14    15    1
    15    15    16    2
    16    16    17    1
    17    17    18    1
    18    18    19    1
    19    19    20    1
    20    20    21    1
    21    21    22    1
    22    22    23    1
    23    23    24    1
    24    23    25    1
    25    23    26    1
    26    17    27    2
    27     3    28    1
    28    28    29    1
    29    29    30    1
    30    29    31    1
    31    31    32    1
    32    32    33    1
    33    32     2    1
    34    27    13    1
@<TRIPOS>SUBSTRUCTURE
     1 RES1        1 GROUP             0 ****  ****    0  
@<TRIPOS>MOLECULE
ligand_34
    33    34     1     0     0
SMALL
NO_CHARGES
****
Generated from the CSD

@<TRIPOS>ATOM
     1 C1      -0.5008  42.6993  38.4089   C.2       1 RES1   0.0000
     2 C2      -1.4186  42.3847  39.3019   C.2       1 RES1   0.0000
     3 C3      -2.2921  41.1958  39.1905   C.2       1 RES1   0.0000
     4 C4      -1.8715  39.9300  38.9022   C.2       1 RES1   0.0000
     5 C5      -0.5301  39.4862  38.7107   C.2       1 RES1   0.0000
     6 C6      -0.0817  38.2358  38.4230   C.2       1 RES1   0.0000
     7 C7      -0.9351  37.0166  38.2221   C.3       1 RES1   0.0000
     8 C8      -1.0380  36.5086  36.7880   C.3       1 RES1   0.0000
     9 C9      -1.9093  35.2730  36.6399   C.3       1 RES1   0.0000
    10 C10     -2.0103  34.7685  35.2090   C.3       1 RES1   0.0000
    11 C11     -2.8720  33.5377  35.0283   C.3       1 RES1   0.0000
    12 C12     -2.9410  33.0761  33.5929   C.3       1 RES1   0.0000
    13 C13      1.3924  38.0873  38.3169   C.2       1 RES1   0.0000
    14 C14      2.2275  39.1809  38.5156   C.2       1 RES1   0.0000
    15 C15      3.5971  39.0395  38.3979   C.2       1 RES1   0.0000
    16 C16      4.1450  37.8111  38.0805   C.2       1 RES1   0.0000
    17 C17      3.3339  36.7069  37.8754   C.2       1 RES1   0.0000
    18 C18      3.9218  35.3692  37.4951   C.3       1 RES1   0.0000
    19 C19      4.3417  34.5199  38.6976   C.3       1 RES1   0.0000
    20 C20      4.9366  33.1679  38.3361   C.3       1 RES1   0.0000
    21 C21      5.3542  32.3233  39.5305   C.3       1 RES1   0.0000
    22 C22      5.9478  30.9724  39.1419   C.3       1 RES1   0.0000
    23 C23      6.3857  30.0797  40.2985   C.3       1 RES1   0.0000
    24 C24      7.4600  30.7509  41.1414   C.3       1 RES1   0.0000
    25 C25      6.8648  28.7262  39.7964   C.3       1 RES1   0.0000
    26 O26      5.2389  29.8545  41.1403   O.3       1 RES1   0.0000
    27 C27      1.9552  36.8538  38.0004   C.2       1 RES1   0.0000
    28 C28     -3.7750  41.4813  39.3574   C.3       1 RES1   0.0000
    29 C29     -4.0885  42.3709  40.5582   C.3       1 RES1   0.0000
    30 O30     -3.8673  41.6143  41.7506   O.3       1 RES1   0.0000
    31 C31     -3.2081  43.6178  40.5496   C.3       1 RES1   0.0000
    32 C32     -1.7212  43.2656  40.5113   C.3       1 RES1   0.0000
    33 O33     -0.8996  44.4282  40.5733   O.3       1 RES1   0.0000
@<TRIPOS>BOND
     1     1     2    2
     2     2     3    1
     3     3     4    2
     4     4     5    1
     5     5     6    2
     6     6     7    1
     7     7     8    1
     8     8     9    1
     9     9    10    1
    10    10    11    1
    11    11    12    1
    12     6    13    1
    13    13    14    2
    14    14    15    1
    15    15    16    2
    16    16    17    1
    17    17    18    1
    18    18    19    1
    19    19    20    1
    20    20    21    1
    21    21    22    1
    22    22    23    1
    23    23    24    1
    24    23    25    1
    25    23    26    1
    26    17    27    2
    27     3    28    1
    28    28    29    1
    29    29    30    1
    30    29    31    1
    31    31    32    1
    32    32    33    1
    33    32     2    1
    34    27    13    1
@<TRIPOS>SUBSTRUCTURE
     1 RES1        1 GROUP             0 ****  ****    0  
@<TRIPOS>MOLECULE
ligand_35
    33    34     1     0     0
SMALL
NO_CHARGES
****
Generated from the CSD

@<TRIPOS>ATOM
     1 C1      -0.5008  42.6993  38.4089   C.2       1 RES1   0.0000
     2 C2      -1.4186  42.3847  39.3019   C.2       1 RES1   0.0000
     3 C3      -2.2921  41.1958  39.1905   C.2       1 RES1   0.0000
     4 C4      -1.8715  39.9300  38.9022   C.2       1 RES1   0.0000
     5 C5      -0.5301  39.4862  38.7107   C.2       1 RES1   0.0000
     6 C6      -0.0817  38.2358  38.4230   C.2       1 RES1   0.0000
     7 C7      -0.9351  37.0166  38.2221   C.3       1 RES1   0.0000
     8 C8      -1.0380  36.5086  36.7880   C.3       1 RES1   0.0000
     9 C9      -1.9093  35.2730  36.6399   C.3       1 RES1   0.0000
    10 C10     -2.0103  34.7685  35.2090   C.3       1 RES1   0.0000
    11 C11     -2.8720  33.5377  35.0283   C.3       1 RES1   0.0000
    12 C12     -2.9410  33.0761  33.5929   C.3       1 RES1   0.0000
    13 C13      1.3924  38.0873  38.3169   C.2       1 RES1   0.0000
    14 C14      2.2275  39.1809  38.5156   C.2       1 RES1   0.0000
    15 C15      3.5971  39.0395  38.3979   C.2       1 RES1   0.0000
    16 C16      4.1450  37.8111  38.0805   C.2       1 RES1   0.0000
    17 C17      3.3339  36.7069  37.8754   C.2       1 RES1   0.0000
    18 C18      3.9218  35.3692  37.4951   C.3       1 RES1   0.0000
    19 C19      3.9792  35.1323  35.9837   C.3       1 RES1   0.0000
    20 C20      4.5684  33.7900  35.5790   C.3       1 RES1   0.0000
    21 C21      4.6258  33.5538  34.0773   C.3       1 RES1   0.0000
    22 C22      5.2205  32.2010  33.6971   C.3       1 RES1   0.0000
    23 C23      5.3043  31.9064  32.2029   C.3       1 RES1   0.0000
    24 C24      3.9273  31.9240  31.5558   C.3       1 RES1   0.0000
    25 C25      6.0028  30.5805  31.9431   C.3       1 RES1   0.0000
    26 O26      6.0936  32.9451  31.5925   O.3       1 RES1   0.0000
    27 C27      1.9552  36.8538  38.0004   C.2       1 RES1   0.0000
    28 C28     -3.7750  41.4813  39.3574   C.3       1 RES1   0.0000
    29 C29     -4.0885  42.3709  40.5582   C.3       1 RES1   0.0000
    30 O30     -3.8673  41.6143  41.7506   O.3       1 RES1   0.0000
    31 C31     -3.2081  43.6178  40.5496   C.3       1 RES1   0.0000
    32 C32     -1.7212  43.2656  40.5113   C.3       1 RES1   0.0000
    33 O33     -0.8996  44.4282  40.5733   O.3       1 RES1   0.0000
@<TRIPOS>BOND
     1     1     2    2
     2     2     3    1
     3     3     4    2
     4     4     5    1
     5     5     6    2
     6     6     7    1
     7     7     8    1
     8     8     9    1
     9     9    10    1
    10    10    11    1
    11    11    12    1
    12     6    13    1
    13    13    14    2
    14    14    15    1
    15    15    16    2
    16    16    17    1
    17    17    18    1
    18    18    19    1
    19    19    20    1
    20    20    21    1
    21    21    22    1
    22    22    23    1
    23    23    24    1
    24    23    25    1
    25    23    26    1
    26    17    27    2
    27     3    28    1
    28    28    29    1
    29    29    30    1
    30    29    31    1
    31    31    32    1
    32    32    33    1
    33    32     2    1
    34    27    13    1
@<TRIPOS>SUBSTRUCTURE
     1 RES1        1 GROUP             0 ****  ****    0  
@<TRIPOS>MOLECULE
ligand_36
    33    34     1     0     0
SMALL
NO_CHARGES
****
Generated from the CSD

@<TRIPOS>ATOM
     1 C1       3.1376  39.5974  41.2303   C.2       1 RES1   0.0000
     2 C2       3.7156  38.5286  40.7182   C.2       1 RES1   0.0000
     3 C3       2.9875  37.2809  40.3990   C.2       1 RES1   0.0000
     4 C4       1.8126  37.2056  39.7089   C.2       1 RES1   0.0000
     5 C5       1.0878  38.2798  39.1142   C.2       1 RES1   0.0000
     6 C6      -0.0817  38.2358  38.4230   C.2       1 RES1   0.0000
     7 C7      -0.8961  37.0055  38.1436   C.3       1 RES1   0.0000
     8 C8      -0.8974  36.5262  36.6960   C.3       1 RES1   0.0000
     9 C9      -1.7351  35.2797  36.4671   C.3       1 RES1   0.0000
    10 C10     -1.7348  34.8039  35.0229   C.3       1 RES1   0.0000
    11 C11     -2.5609  33.5631  34.7623   C.3       1 RES1   0.0000
    12 C12     -2.5291  33.1307  33.3165   C.3       1 RES1   0.0000
    13 C13     -0.5687  39.5360  37.8953   C.2       1 RES1   0.0000
    14 C14     -1.7902  39.6167  37.2362   C.2       1 RES1   0.0000
    15 C15     -2.2290  40.8263  36.7322   C.2       1 RES1   0.0000
    16 C16     -1.4560  41.9625  36.8785   C.2       1 RES1   0.0000
    17 C17     -0.2342  41.9075  37.5291   C.2       1 RES1   0.0000
    18 C18      0.6321  43.1368  37.6636   C.3       1 RES1   0.0000
    19 C19      0.3026  43.9874  38.8931   C.3       1 RES1   0.0000
    20 C20      1.1641  45.2310  39.0472   C.3       1 RES1   0.0000
    21 C21      0.8374  46.0768  40.2687   C.3       1 RES1   0.0000
    22 C22      1.7149  47.3182  40.4009   C.3       1 RES1   0.0000
    23 C23      1.4340  48.2070  41.6081   C.3       1 RES1   0.0000
    24 C24      0.0078  48.7368  41.5871   C.3       1 RES1   0.0000
    25 C25      2.4312  49.3525  41.6903   C.3       1 RES1   0.0000
    26 O26      1.5903  47.4034  42.7931   O.3       1 RES1   0.0000
    27 C27      0.2005  40.6875  38.0395   C.2       1 RES1   0.0000
    28 C28      3.6141  36.0187  40.9671   C.3       1 RES1   0.0000
    29 C29      5.1210  35.9341  40.7354   C.3       1 RES1   0.0000
    30 O30      5.3512  35.6958  39.3449   O.3       1 RES1   0.0000
    31 C31      5.8069  37.2254  41.1735   C.3       1 RES1   0.0000
    32 C32      5.2199  38.4495  40.4712   C.3       1 RES1   0.0000
    33 O33      5.9069  39.6456  40.8287   O.3       1 RES1   0.0000
@<TRIPOS>BOND
     1     1     2    2
     2     2     3    1
     3     3     4    2
     4     4     5    1
     5     5     6    2
     6     6     7    1
     7     7     8    1
     8     8     9    1
     9     9    10    1
    10    10    11    1
    11    11    12    1
    12     6    13    1
    13    13    14    2
    14    14    15    1
    15    15    16    2
    16    16    17    1
    17    17    18    1
    18    18    19    1
    19    19    20    1
    20    20    21    1
    21    21    22    1
    22    22    23    1
    23    23    24    1
    24    23    25    1
    25    23    26    1
    26    17    27    2
    27     3    28    1
    28    28    29    1
    29    29    30    1
    30    29    31    1
    31    31    32    1
    32    32    33    1
    33    32     2    1
    34    27    13    1
@<TRIPOS>SUBSTRUCTURE
     1 RES1        1 GROUP             0 ****  ****    0  
@<TRIPOS>MOLECULE
ligand_37
    33    34     1     0     0
SMALL
NO_CHARGES
****
Generated from the CSD

@<TRIPOS>ATOM
     1 C1       3.1376  39.5974  41.2303   C.2       1 RES1   0.0000
     2 C2       3.7156  38.5286  40.7182   C.2       1 RES1   0.0000
     3 C3       2.9875  37.2809  40.3990   C.2       1 RES1   0.0000
     4 C4       1.8126  37.2056  39.7089   C.2       1 RES1   0.0000
     5 C5       1.0878  38.2798  39.1142   C.2       1 RES1   0.0000
     6 C6      -0.0817  38.2358  38.4230   C.2       1 RES1   0.0000
     7 C7      -0.8961  37.0055  38.1436   C.3       1 RES1   0.0000
     8 C8      -0.8974  36.5262  36.6960   C.3       1 RES1   0.0000
     9 C9      -1.7351  35.2797  36.4671   C.3       1 RES1   0.0000
    10 C10     -1.7348  34.8039  35.0229   C.3       1 RES1   0.0000
    11 C11     -2.5609  33.5631  34.7623   C.3       1 RES1   0.0000
    12 C12     -2.5291  33.1307  33.3165   C.3       1 RES1   0.0000
    13 C13     -0.5687  39.5360  37.8953   C.2       1 RES1   0.0000
    14 C14     -1.7902  39.6167  37.2362   C.2       1 RES1   0.0000
    15 C15     -2.2290  40.8263  36.7322   C.2       1 RES1   0.0000
    16 C16     -1.4560  41.9625  36.8785   C.2       1 RES1   0.0000
    17 C17     -0.2342  41.9075  37.5291   C.2       1 RES1   0.0000
    18 C18      0.6321  43.1368  37.6636   C.3       1 RES1   0.0000
    19 C19      1.6649  43.2844  36.5433   C.3       1 RES1   0.0000
    20 C20      2.5482  44.5169  36.6600   C.3       1 RES1   0.0000
    21 C21      3.5748  44.6643  35.5471   C.3       1 RES1   0.0000
    22 C22      4.4482  45.9078  35.6866   C.3       1 RES1   0.0000
    23 C23      5.4979  46.1100  34.5987   C.3       1 RES1   0.0000
    24 C24      6.4780  44.9471  34.5505   C.3       1 RES1   0.0000
    25 C25      6.2357  47.4268  34.7858   C.3       1 RES1   0.0000
    26 O26      4.8148  46.1660  33.3319   O.3       1 RES1   0.0000
    27 C27      0.2005  40.6875  38.0395   C.2       1 RES1   0.0000
    28 C28      3.6141  36.0187  40.9671   C.3       1 RES1   0.0000
    29 C29      5.1210  35.9341  40.7354   C.3       1 RES1   0.0000
    30 O30      5.3512  35.6958  39.3449   O.3       1 RES1   0.0000
    31 C31      5.8069  37.2254  41.1735   C.3       1 RES1   0.0000
    32 C32      5.2199  38.4495  40.4712   C.3       1 RES1   0.0000
    33 O33      5.9069  39.6456  40.8287   O.3       1 RES1   0.0000
@<TRIPOS>BOND
     1     1     2    2
     2     2     3    1
     3     3     4    2
     4     4     5    1
     5     5     6    2
     6     6     7    1
     7     7     8    1
     8     8     9    1
     9     9    10    1
    10    10    11    1
    11    11    12    1
    12     6    13    1
    13    13    14    2
    14    14    15    1
    15    15    16    2
    16    16    17    1
    17    17    18    1
    18    18    19    1
    19    19    20    1
    20    20    21    1
    21    21    22    1
    22    22    23    1
    23    23    24    1
    24    23    25    1
    25    23    26    1
    26    17    27    2
    27     3    28    1
    28    28    29    1
    29    29    30    1
    30    29    31    1
    31    31    32    1
    32    32    33    1
    33    32     2    1
    34    27    13    1
@<TRIPOS>SUBSTRUCTURE
     1 RES1        1 GROUP             0 ****  ****    0  
@<TRIPOS>MOLECULE
ligand_38
    33    34     1     0     0
SMALL
NO_CHARGES
****
Generated from the CSD

@<TRIPOS>ATOM
     1 C1      -0.5015  42.6992  38.4005   C.2       1 RES1   0.0000
     2 C2      -1.4190  42.3861  39.2944   C.2       1 RES1   0.0000
     3 C3      -2.2924  41.1969  39.1854   C.2       1 RES1   0.0000
     4 C4      -1.8716  39.9307  38.8995   C.2       1 RES1   0.0000
     5 C5      -0.5302  39.4867  38.7085   C.2       1 RES1   0.0000
     6 C6      -0.0817  38.2358  38.4230   C.2       1 RES1   0.0000
     7 C7      -0.9350  37.0161  38.2244   C.3       1 RES1   0.0000
     8 C8      -1.0369  36.5047  36.7915   C.3       1 RES1   0.0000
     9 C9      -1.9084  35.2689  36.6456   C.3       1 RES1   0.0000
    10 C10     -2.0084  34.7611  35.2159   C.3       1 RES1   0.0000
    11 C11     -2.8703  33.5301  35.0375   C.3       1 RES1   0.0000
    12 C12     -2.9383  33.0650  33.6032   C.3       1 RES1   0.0000
    13 C13      1.3924  38.0873  38.3169   C.2       1 RES1   0.0000
    14 C14      1.9572  36.8528  38.0175   C.2       1 RES1   0.0000
    15 C15      3.3302  36.7179  37.9378   C.2       1 RES1   0.0000
    16 C16      4.1502  37.8085  38.1568   C.2       1 RES1   0.0000
    17 C17      3.6117  39.0487  38.4590   C.2       1 RES1   0.0000
    18 C18      4.5012  40.2376  38.7331   C.3       1 RES1   0.0000
    19 C19      4.9065  41.0038  37.4712   C.3       1 RES1   0.0000
    20 C20      5.8029  42.2056  37.7253   C.3       1 RES1   0.0000
    21 C21      6.2061  42.9675  36.4719   C.3       1 RES1   0.0000
    22 C22      7.1049  44.1681  36.7531   C.3       1 RES1   0.0000
    23 C23      7.5428  44.9726  35.5335   C.3       1 RES1   0.0000
    24 C24      8.3320  44.1137  34.5565   C.3       1 RES1   0.0000
    25 C25      8.3471  46.1968  35.9433   C.3       1 RES1   0.0000
    26 O26      6.3559  45.4328  34.8597   O.3       1 RES1   0.0000
    27 C27      2.2278  39.1800  38.5328   C.2       1 RES1   0.0000
    28 C28     -3.7753  41.4826  39.3521   C.3       1 RES1   0.0000
    29 C29     -4.0886  42.3744  40.5513   C.3       1 RES1   0.0000
    30 O30     -3.8670  41.6201  41.7450   O.3       1 RES1   0.0000
    31 C31     -3.2084  43.6214  40.5400   C.3       1 RES1   0.0000
    32 C32     -1.7215  43.2694  40.5021   C.3       1 RES1   0.0000
    33 O33     -0.9000  44.4322  40.5616   O.3       1 RES1   0.0000
@<TRIPOS>BOND
     1     1     2    2
     2     2     3    1
     3     3     4    2
     4     4     5    1
     5     5     6    2
     6     6     7    1
     7     7     8    1
     8     8     9    1
     9     9    10    1
    10    10    11    1
    11    11    12    1
    12     6    13    1
    13    13    14    2
    14    14    15    1
    15    15    16    2
    16    16    17    1
    17    17    18    1
    18    18    19    1
    19    19    20    1
    20    20    21    1
    21    21    22    1
    22    22    23    1
    23    23    24    1
    24    23    25    1
    25    23    26    1
    26    17    27    2
    27     3    28    1
    28    28    29    1
    29    29    30    1
    30    29    31    1
    31    31    32    1
    32    32    33    1
    33    32     2    1
    34    27    13    1
@<TRIPOS>SUBSTRUCTURE
     1 RES1        1 GROUP             0 ****  ****    0  
@<TRIPOS>MOLECULE
ligand_39
    33    34     1     0     0
SMALL
NO_CHARGES
****
Generated from the CSD

@<TRIPOS>ATOM
     1 C1      -0.5015  42.6992  38.4005   C.2       1 RES1   0.0000
     2 C2      -1.4190  42.3861  39.2944   C.2       1 RES1   0.0000
     3 C3      -2.2924  41.1969  39.1854   C.2       1 RES1   0.0000
     4 C4      -1.8716  39.9307  38.8995   C.2       1 RES1   0.0000
     5 C5      -0.5302  39.4867  38.7085   C.2       1 RES1   0.0000
     6 C6      -0.0817  38.2358  38.4230   C.2       1 RES1   0.0000
     7 C7      -0.9350  37.0161  38.2244   C.3       1 RES1   0.0000
     8 C8      -1.0369  36.5047  36.7915   C.3       1 RES1   0.0000
     9 C9      -1.9084  35.2689  36.6456   C.3       1 RES1   0.0000
    10 C10     -2.0084  34.7611  35.2159   C.3       1 RES1   0.0000
    11 C11     -2.8703  33.5301  35.0375   C.3       1 RES1   0.0000
    12 C12     -2.9383  33.0650  33.6032   C.3       1 RES1   0.0000
    13 C13      1.3924  38.0873  38.3169   C.2       1 RES1   0.0000
    14 C14      1.9572  36.8528  38.0175   C.2       1 RES1   0.0000
    15 C15      3.3302  36.7179  37.9378   C.2       1 RES1   0.0000
    16 C16      4.1502  37.8085  38.1568   C.2       1 RES1   0.0000
    17 C17      3.6117  39.0487  38.4590   C.2       1 RES1   0.0000
    18 C18      4.5012  40.2376  38.7331   C.3       1 RES1   0.0000
    19 C19      4.8181  40.4368  40.2175   C.3       1 RES1   0.0000
    20 C20      5.7131  41.6296  40.5154   C.3       1 RES1   0.0000
    21 C21      6.0285  41.8282  41.9903   C.3       1 RES1   0.0000
    22 C22      6.9276  43.0306  42.2630   C.3       1 RES1   0.0000
    23 C23      7.2791  43.2813  43.7259   C.3       1 RES1   0.0000
    24 C24      6.0319  43.5280  44.5618   C.3       1 RES1   0.0000
    25 C25      8.2564  44.4385  43.8650   C.3       1 RES1   0.0000
    26 O26      7.9251  42.0981  44.2330   O.3       1 RES1   0.0000
    27 C27      2.2278  39.1800  38.5328   C.2       1 RES1   0.0000
    28 C28     -3.7753  41.4826  39.3521   C.3       1 RES1   0.0000
    29 C29     -4.0886  42.3744  40.5513   C.3       1 RES1   0.0000
    30 O30     -3.8670  41.6201  41.7450   O.3       1 RES1   0.0000
    31 C31     -3.2084  43.6214  40.5400   C.3       1 RES1   0.0000
    32 C32     -1.7215  43.2694  40.5021   C.3       1 RES1   0.0000
    33 O33     -0.9000  44.4322  40.5616   O.3       1 RES1   0.0000
@<TRIPOS>BOND
     1     1     2    2
     2     2     3    1
     3     3     4    2
     4     4     5    1
     5     5     6    2
     6     6     7    1
     7     7     8    1
     8     8     9    1
     9     9    10    1
    10    10    11    1
    11    11    12    1
    12     6    13    1
    13    13    14    2
    14    14    15    1
    15    15    16    2
    16    16    17    1
    17    17    18    1
    18    18    19    1
    19    19    20    1
    20    20    21    1
    21    21    22    1
    22    22    23    1
    23    23    24    1
    24    23    25    1
    25    23    26    1
    26    17    27    2
    27     3    28    1
    28    28    29    1
    29    29    30    1
    30    29    31    1
    31    31    32    1
    32    32    33    1
    33    32     2    1
    34    27    13    1
@<TRIPOS>SUBSTRUCTURE
     1 RES1        1 GROUP             0 ****  ****    0  
@<TRIPOS>MOLECULE
ligand_40
    33    34     1     0     0
SMALL
NO_CHARGES
****
Generated from the CSD

@<TRIPOS>ATOM
     1 C1       3.2626  39.5857  41.0861   C.2       1 RES1   0.0000
     2 C2       3.8044  38.5009  40.5680   C.2       1 RES1   0.0000
     3 C3       3.0458  37.2604  40.2948   C.2       1 RES1   0.0000
     4 C4       1.8444  37.1940  39.6510   C.2       1 RES1   0.0000
     5 C5       1.1138  38.2711  39.0686   C.2       1 RES1   0.0000
     6 C6      -0.0817  38.2358  38.4230   C.2       1 RES1   0.0000
     7 C7      -0.9247  37.0146  38.1926   C.3       1 RES1   0.0000
     8 C8      -0.9869  36.5141  36.7535   C.3       1 RES1   0.0000
     9 C9      -1.8517  35.2780  36.5746   C.3       1 RES1   0.0000
    10 C10     -1.9120  34.7811  35.1389   C.3       1 RES1   0.0000
    11 C11     -2.7664  33.5499  34.9278   C.3       1 RES1   0.0000
    12 C12     -2.7947  33.0958  33.4886   C.3       1 RES1   0.0000
    13 C13     -0.5687  39.5360  37.8953   C.2       1 RES1   0.0000
    14 C14     -1.9207  39.8559  37.9460   C.2       1 RES1   0.0000
    15 C15     -2.3693  41.0599  37.4371   C.2       1 RES1   0.0000
    16 C16     -1.4775  41.9523  36.8732   C.2       1 RES1   0.0000
    17 C17     -0.1257  41.6557  36.8087   C.2       1 RES1   0.0000
    18 C18      0.8506  42.6100  36.1639   C.3       1 RES1   0.0000
    19 C19      0.1953  43.8808  35.6170   C.3       1 RES1   0.0000
    20 C20      1.1618  44.8560  34.9631   C.3       1 RES1   0.0000
    21 C21      0.5114  46.1191  34.4194   C.3       1 RES1   0.0000
    22 C22      1.5014  47.0808  33.7687   C.3       1 RES1   0.0000
    23 C23      0.9074  48.3672  33.2041   C.3       1 RES1   0.0000
    24 C24     -0.1223  48.0749  32.1226   C.3       1 RES1   0.0000
    25 C25      1.9958  49.2881  32.6744   C.3       1 RES1   0.0000
    26 O26      0.2376  49.0525  34.2794   O.3       1 RES1   0.0000
    27 C27      0.3213  40.4438  37.3276   C.2       1 RES1   0.0000
    28 C28      3.6744  35.9967  40.8571   C.3       1 RES1   0.0000
    29 C29      5.1699  35.8852  40.5696   C.3       1 RES1   0.0000
    30 O30      5.3432  35.6239  39.1750   O.3       1 RES1   0.0000
    31 C31      5.8916  37.1715  40.9626   C.3       1 RES1   0.0000
    32 C32      5.2968  38.3947  40.2653   C.3       1 RES1   0.0000
    33 O33      6.0150  39.5848  40.5791   O.3       1 RES1   0.0000
@<TRIPOS>BOND
     1     1     2    2
     2     2     3    1
     3     3     4    2
     4     4     5    1
     5     5     6    2
     6     6     7    1
     7     7     8    1
     8     8     9    1
     9     9    10    1
    10    10    11    1
    11    11    12    1
    12     6    13    1
    13    13    14    2
    14    14    15    1
    15    15    16    2
    16    16    17    1
    17    17    18    1
    18    18    19    1
    19    19    20    1
    20    20    21    1
    21    21    22    1
    22    22    23    1
    23    23    24    1
    24    23    25    1
    25    23    26    1
    26    17    27    2
    27     3    28    1
    28    28    29    1
    29    29    30    1
    30    29    31    1
    31    31    32    1
    32    32    33    1
    33    32     2    1
    34    27    13    1
@<TRIPOS>SUBSTRUCTURE
     1 RES1        1 GROUP             0 ****  ****    0  
@<TRIPOS>MOLECULE
ligand_41
    33    34     1     0     0
SMALL
NO_CHARGES
****
Generated from the CSD

@<TRIPOS>ATOM
     1 C1       3.2626  39.5857  41.0861   C.2       1 RES1   0.0000
     2 C2       3.8044  38.5009  40.5680   C.2       1 RES1   0.0000
     3 C3       3.0458  37.2604  40.2948   C.2       1 RES1   0.0000
     4 C4       1.8444  37.1940  39.6510   C.2       1 RES1   0.0000
     5 C5       1.1138  38.2711  39.0686   C.2       1 RES1   0.0000
     6 C6      -0.0817  38.2358  38.4230   C.2       1 RES1   0.0000
     7 C7      -0.9247  37.0146  38.1926   C.3       1 RES1   0.0000
     8 C8      -0.9869  36.5141  36.7535   C.3       1 RES1   0.0000
     9 C9      -1.8517  35.2780  36.5746   C.3       1 RES1   0.0000
    10 C10     -1.9120  34.7811  35.1389   C.3       1 RES1   0.0000
    11 C11     -2.7664  33.5499  34.9278   C.3       1 RES1   0.0000
    12 C12     -2.7947  33.0958  33.4886   C.3       1 RES1   0.0000
    13 C13     -0.5687  39.5360  37.8953   C.2       1 RES1   0.0000
    14 C14     -1.9207  39.8559  37.9460   C.2       1 RES1   0.0000
    15 C15     -2.3693  41.0599  37.4371   C.2       1 RES1   0.0000
    16 C16     -1.4775  41.9523  36.8732   C.2       1 RES1   0.0000
    17 C17     -0.1257  41.6557  36.8087   C.2       1 RES1   0.0000
    18 C18      0.8506  42.6100  36.1639   C.3       1 RES1   0.0000
    19 C19      2.2988  42.1139  36.1871   C.3       1 RES1   0.0000
    20 C20      3.2988  43.0609  35.5423   C.3       1 RES1   0.0000
    21 C21      4.7380  42.5687  35.5649   C.3       1 RES1   0.0000
    22 C22      5.7215  43.5358  34.9124   C.3       1 RES1   0.0000
    23 C23      7.1821  43.0964  34.9046   C.3       1 RES1   0.0000
    24 C24      7.7090  42.8972  36.3181   C.3       1 RES1   0.0000
    25 C25      8.0493  44.0869  34.1428   C.3       1 RES1   0.0000
    26 O26      7.2579  41.8307  34.2214   O.3       1 RES1   0.0000
    27 C27      0.3213  40.4438  37.3276   C.2       1 RES1   0.0000
    28 C28      3.6744  35.9967  40.8571   C.3       1 RES1   0.0000
    29 C29      5.1699  35.8852  40.5696   C.3       1 RES1   0.0000
    30 O30      5.3432  35.6239  39.1750   O.3       1 RES1   0.0000
    31 C31      5.8916  37.1715  40.9626   C.3       1 RES1   0.0000
    32 C32      5.2968  38.3947  40.2653   C.3       1 RES1   0.0000
    33 O33      6.0150  39.5848  40.5791   O.3       1 RES1   0.0000
@<TRIPOS>BOND
     1     1     2    2
     2     2     3    1
     3     3     4    2
     4     4     5    1
     5     5     6    2
     6     6     7    1
     7     7     8    1
     8     8     9    1
     9     9    10    1
    10    10    11    1
    11    11    12    1
    12     6    13    1
    13    13    14    2
    14    14    15    1
    15    15    16    2
    16    16    17    1
    17    17    18    1
    18    18    19    1
    19    19    20    1
    20    20    21    1
    21    21    22    1
    22    22    23    1
    23    23    24    1
    24    23    25    1
    25    23    26    1
    26    17    27    2
    27     3    28    1
    28    28    29    1
    29    29    30    1
    30    29    31    1
    31    31    32    1
    32    32    33    1
    33    32     2    1
    34    27    13    1
@<TRIPOS>SUBSTRUCTURE
     1 RES1        1 GROUP             0 ****  ****    0  
@<TRIPOS>MOLECULE
ligand_42
    33    34     1     0     0
SMALL
NO_CHARGES
****
Generated from the CSD

@<TRIPOS>ATOM
     1 C1      -0.4977  42.6995  38.4521   C.2       1 RES1   0.0000
     2 C2      -1.4166  42.3768  39.3411   C.2       1 RES1   0.0000
     3 C3      -2.2908  41.1897  39.2172   C.2       1 RES1   0.0000
     4 C4      -1.8708  39.9265  38.9169   C.2       1 RES1   0.0000
     5 C5      -0.5295  39.4837  38.7224   C.2       1 RES1   0.0000
     6 C6      -0.0817  38.2358  38.4230   C.2       1 RES1   0.0000
     7 C7      -0.9357  37.0192  38.2094   C.3       1 RES1   0.0000
     8 C8      -1.2850  36.7009  36.7596   C.3       1 RES1   0.0000
     9 C9      -2.1601  35.4694  36.5994   C.3       1 RES1   0.0000
    10 C10     -2.5068  35.1542  35.1529   C.3       1 RES1   0.0000
    11 C11     -3.3782  33.9321  34.9600   C.3       1 RES1   0.0000
    12 C12     -3.6945  33.6609  33.5092   C.3       1 RES1   0.0000
    13 C13      1.3924  38.0873  38.3169   C.2       1 RES1   0.0000
    14 C14      1.9493  37.2417  37.3643   C.2       1 RES1   0.0000
    15 C15      3.3210  37.0948  37.2828   C.2       1 RES1   0.0000
    16 C16      4.1473  37.7859  38.1485   C.2       1 RES1   0.0000
    17 C17      3.6165  38.6327  39.1080   C.2       1 RES1   0.0000
    18 C18      4.5102  39.3653  40.0797   C.3       1 RES1   0.0000
    19 C19      5.9997  39.0705  39.8845   C.3       1 RES1   0.0000
    20 C20      6.9177  39.7988  40.8538   C.3       1 RES1   0.0000
    21 C21      8.3980  39.5064  40.6605   C.3       1 RES1   0.0000
    22 C22      9.2978  40.2486  41.6444   C.3       1 RES1   0.0000
    23 C23     10.7948  39.9953  41.4996   C.3       1 RES1   0.0000
    24 C24     11.1301  38.5242  41.6962   C.3       1 RES1   0.0000
    25 C25     11.5936  40.8614  42.4615   C.3       1 RES1   0.0000
    26 O26     11.1763  40.3610  40.1597   O.3       1 RES1   0.0000
    27 C27      2.2344  38.7810  39.1821   C.2       1 RES1   0.0000
    28 C28     -3.7737  41.4747  39.3854   C.3       1 RES1   0.0000
    29 C29     -4.0877  42.3527  40.5945   C.3       1 RES1   0.0000
    30 O30     -3.8682  41.5843  41.7797   O.3       1 RES1   0.0000
    31 C31     -3.2064  43.5990  40.5989   C.3       1 RES1   0.0000
    32 C32     -1.7198  43.2462  40.5587   C.3       1 RES1   0.0000
    33 O33     -0.8974  44.4075  40.6328   O.3       1 RES1   0.0000
@<TRIPOS>BOND
     1     1     2    2
     2     2     3    1
     3     3     4    2
     4     4     5    1
     5     5     6    2
     6     6     7    1
     7     7     8    1
     8     8     9    1
     9     9    10    1
    10    10    11    1
    11    11    12    1
    12     6    13    1
    13    13    14    2
    14    14    15    1
    15    15    16    2
    16    16    17    1
    17    17    18    1
    18    18    19    1
    19    19    20    1
    20    20    21    1
    21    21    22    1
    22    22    23    1
    23    23    24    1
    24    23    25    1
    25    23    26    1
    26    17    27    2
    27     3    28    1
    28    28    29    1
    29    29    30    1
    30    29    31    1
    31    31    32    1
    32    32    33    1
    33    32     2    1
    34    27    13    1
@<TRIPOS>SUBSTRUCTURE
     1 RES1        1 GROUP             0 ****  ****    0  
@<TRIPOS>MOLECULE
ligand_43
    33    34     1     0     0
SMALL
NO_CHARGES
****
Generated from the CSD

@<TRIPOS>ATOM
     1 C1      -0.4977  42.6995  38.4521   C.2       1 RES1   0.0000
     2 C2      -1.4166  42.3768  39.3411   C.2       1 RES1   0.0000
     3 C3      -2.2908  41.1897  39.2172   C.2       1 RES1   0.0000
     4 C4      -1.8708  39.9265  38.9169   C.2       1 RES1   0.0000
     5 C5      -0.5295  39.4837  38.7224   C.2       1 RES1   0.0000
     6 C6      -0.0817  38.2358  38.4230   C.2       1 RES1   0.0000
     7 C7      -0.9357  37.0192  38.2094   C.3       1 RES1   0.0000
     8 C8      -1.2850  36.7009  36.7596   C.3       1 RES1   0.0000
     9 C9      -2.1601  35.4694  36.5994   C.3       1 RES1   0.0000
    10 C10     -2.5068  35.1542  35.1529   C.3       1 RES1   0.0000
    11 C11     -3.3782  33.9321  34.9600   C.3       1 RES1   0.0000
    12 C12     -3.6945  33.6609  33.5092   C.3       1 RES1   0.0000
    13 C13      1.3924  38.0873  38.3169   C.2       1 RES1   0.0000
    14 C14      1.9493  37.2417  37.3643   C.2       1 RES1   0.0000
    15 C15      3.3210  37.0948  37.2828   C.2       1 RES1   0.0000
    16 C16      4.1473  37.7859  38.1485   C.2       1 RES1   0.0000
    17 C17      3.6165  38.6327  39.1080   C.2       1 RES1   0.0000
    18 C18      4.5102  39.3653  40.0797   C.3       1 RES1   0.0000
    19 C19      3.7463  40.2549  41.0640   C.3       1 RES1   0.0000
    20 C20      4.6284  41.0021  42.0521   C.3       1 RES1   0.0000
    21 C21      3.8702  41.8863  43.0305   C.3       1 RES1   0.0000
    22 C22      4.7768  42.6248  44.0108   C.3       1 RES1   0.0000
    23 C23      4.0730  43.5283  45.0181   C.3       1 RES1   0.0000
    24 C24      3.2774  44.6221  44.3211   C.3       1 RES1   0.0000
    25 C25      5.0642  44.1296  46.0026   C.3       1 RES1   0.0000
    26 O26      3.1481  42.7170  45.7670   O.3       1 RES1   0.0000
    27 C27      2.2344  38.7810  39.1821   C.2       1 RES1   0.0000
    28 C28     -3.7737  41.4747  39.3854   C.3       1 RES1   0.0000
    29 C29     -4.0877  42.3527  40.5945   C.3       1 RES1   0.0000
    30 O30     -3.8682  41.5843  41.7797   O.3       1 RES1   0.0000
    31 C31     -3.2064  43.5990  40.5989   C.3       1 RES1   0.0000
    32 C32     -1.7198  43.2462  40.5587   C.3       1 RES1   0.0000
    33 O33     -0.8974  44.4075  40.6328   O.3       1 RES1   0.0000
@<TRIPOS>BOND
     1     1     2    2
     2     2     3    1
     3     3     4    2
     4     4     5    1
     5     5     6    2
     6     6     7    1
     7     7     8    1
     8     8     9    1
     9     9    10    1
    10    10    11    1
    11    11    12    1
    12     6    13    1
    13    13    14    2
    14    14    15    1
    15    15    16    2
    16    16    17    1
    17    17    18    1
    18    18    19    1
    19    19    20    1
    20    20    21    1
    21    21    22    1
    22    22    23    1
    23    23    24    1
    24    23    25    1
    25    23    26    1
    26    17    27    2
    27     3    28    1
    28    28    29    1
    29    29    30    1
    30    29    31    1
    31    31    32    1
    32    32    33    1
    33    32     2    1
    34    27    13    1
@<TRIPOS>SUBSTRUCTURE
     1 RES1        1 GROUP             0 ****  ****    0  
@<TRIPOS>MOLECULE
ligand_44
    33    34     1     0     0
SMALL
NO_CHARGES
****
Generated from the CSD

@<TRIPOS>ATOM
     1 C1      -0.4916  42.6987  38.5375   C.2       1 RES1   0.0000
     2 C2      -1.4127  42.3602  39.4184   C.2       1 RES1   0.0000
     3 C3      -2.2883  41.1770  39.2698   C.2       1 RES1   0.0000
     4 C4      -1.8694  39.9192  38.9460   C.2       1 RES1   0.0000
     5 C5      -0.5284  39.4783  38.7456   C.2       1 RES1   0.0000
     6 C6      -0.0817  38.2358  38.4230   C.2       1 RES1   0.0000
     7 C7      -0.9370  37.0248  38.1843   C.3       1 RES1   0.0000
     8 C8      -1.0218  36.5479  36.7384   C.3       1 RES1   0.0000
     9 C9      -1.8983  35.3212  36.5513   C.3       1 RES1   0.0000
    10 C10     -1.9812  34.8478  35.1088   C.3       1 RES1   0.0000
    11 C11     -2.8477  33.6266  34.8894   C.3       1 RES1   0.0000
    12 C12     -2.8982  33.1958  33.4436   C.3       1 RES1   0.0000
    13 C13      1.3924  38.0873  38.3169   C.2       1 RES1   0.0000
    14 C14      2.0194  36.9327  38.7710   C.2       1 RES1   0.0000
    15 C15      3.3931  36.8085  38.6855   C.2       1 RES1   0.0000
    16 C16      4.1520  37.8317  38.1498   C.2       1 RES1   0.0000
    17 C17      3.5510  38.9932  37.6926   C.2       1 RES1   0.0000
    18 C18      4.3754  40.1296  37.1372   C.3       1 RES1   0.0000
    19 C19      5.8814  39.8541  37.1425   C.3       1 RES1   0.0000
    20 C20      6.7303  40.9868  36.5868   C.3       1 RES1   0.0000
    21 C21      8.2269  40.7138  36.5918   C.3       1 RES1   0.0000
    22 C22      9.0565  41.8646  36.0298   C.3       1 RES1   0.0000
    23 C23     10.5663  41.6492  36.0088   C.3       1 RES1   0.0000
    24 C24     11.1136  41.4204  37.4099   C.3       1 RES1   0.0000
    25 C25     11.2778  42.8142  35.3380   C.3       1 RES1   0.0000
    26 O26     10.8320  40.4664  35.2311   O.3       1 RES1   0.0000
    27 C27      2.1664  39.1106  37.7763   C.2       1 RES1   0.0000
    28 C28     -3.7711  41.4607  39.4407   C.3       1 RES1   0.0000
    29 C29     -4.0863  42.3156  40.6659   C.3       1 RES1   0.0000
    30 O30     -3.8702  41.5241  41.8364   O.3       1 RES1   0.0000
    31 C31     -3.2033  43.5604  40.6961   C.3       1 RES1   0.0000
    32 C32     -1.7171  43.2062  40.6520   C.3       1 RES1   0.0000
    33 O33     -0.8932  44.3647  40.7502   O.3       1 RES1   0.0000
@<TRIPOS>BOND
     1     1     2    2
     2     2     3    1
     3     3     4    2
     4     4     5    1
     5     5     6    2
     6     6     7    1
     7     7     8    1
     8     8     9    1
     9     9    10    1
    10    10    11    1
    11    11    12    1
    12     6    13    1
    13    13    14    2
    14    14    15    1
    15    15    16    2
    16    16    17    1
    17    17    18    1
    18    18    19    1
    19    19    20    1
    20    20    21    1
    21    21    22    1
    22    22    23    1
    23    23    24    1
    24    23    25    1
    25    23    26    1
    26    17    27    2
    27     3    28    1
    28    28    29    1
    29    29    30    1
    30    29    31    1
    31    31    32    1
    32    32    33    1
    33    32     2    1
    34    27    13    1
@<TRIPOS>SUBSTRUCTURE
     1 RES1        1 GROUP             0 ****  ****    0  
@<TRIPOS>MOLECULE
ligand_45
    33    34     1     0     0
SMALL
NO_CHARGES
****
Generated from the CSD

@<TRIPOS>ATOM
     1 C1      -0.4916  42.6987  38.5375   C.2       1 RES1   0.0000
     2 C2      -1.4127  42.3602  39.4184   C.2       1 RES1   0.0000
     3 C3      -2.2883  41.1770  39.2698   C.2       1 RES1   0.0000
     4 C4      -1.8694  39.9192  38.9460   C.2       1 RES1   0.0000
     5 C5      -0.5284  39.4783  38.7456   C.2       1 RES1   0.0000
     6 C6      -0.0817  38.2358  38.4230   C.2       1 RES1   0.0000
     7 C7      -0.9370  37.0248  38.1843   C.3       1 RES1   0.0000
     8 C8      -1.0218  36.5479  36.7384   C.3       1 RES1   0.0000
     9 C9      -1.8983  35.3212  36.5513   C.3       1 RES1   0.0000
    10 C10     -1.9812  34.8478  35.1088   C.3       1 RES1   0.0000
    11 C11     -2.8477  33.6266  34.8894   C.3       1 RES1   0.0000
    12 C12     -2.8982  33.1958  33.4436   C.3       1 RES1   0.0000
    13 C13      1.3924  38.0873  38.3169   C.2       1 RES1   0.0000
    14 C14      2.0194  36.9327  38.7710   C.2       1 RES1   0.0000
    15 C15      3.3931  36.8085  38.6855   C.2       1 RES1   0.0000
    16 C16      4.1520  37.8317  38.1498   C.2       1 RES1   0.0000
    17 C17      3.5510  38.9932  37.6926   C.2       1 RES1   0.0000
    18 C18      4.3754  40.1296  37.1372   C.3       1 RES1   0.0000
    19 C19      3.5390  41.3279  36.6809   C.3       1 RES1   0.0000
    20 C20      4.3507  42.4841  36.1179   C.3       1 RES1   0.0000
    21 C21      3.5203  43.6753  35.6644   C.3       1 RES1   0.0000
    22 C22      4.3571  44.8215  35.1038   C.3       1 RES1   0.0000
    23 C23      3.5791  46.0456  34.6319   C.3       1 RES1   0.0000
    24 C24      2.6072  45.6892  33.5168   C.3       1 RES1   0.0000
    25 C25      4.5191  47.1568  34.1903   C.3       1 RES1   0.0000
    26 O26      2.8121  46.5373  35.7474   O.3       1 RES1   0.0000
    27 C27      2.1664  39.1106  37.7763   C.2       1 RES1   0.0000
    28 C28     -3.7711  41.4607  39.4407   C.3       1 RES1   0.0000
    29 C29     -4.0863  42.3156  40.6659   C.3       1 RES1   0.0000
    30 O30     -3.8702  41.5241  41.8364   O.3       1 RES1   0.0000
    31 C31     -3.2033  43.5604  40.6961   C.3       1 RES1   0.0000
    32 C32     -1.7171  43.2062  40.6520   C.3       1 RES1   0.0000
    33 O33     -0.8932  44.3647  40.7502   O.3       1 RES1   0.0000
@<TRIPOS>BOND
     1     1     2    2
     2     2     3    1
     3     3     4    2
     4     4     5    1
     5     5     6    2
     6     6     7    1
     7     7     8    1
     8     8     9    1
     9     9    10    1
    10    10    11    1
    11    11    12    1
    12     6    13    1
    13    13    14    2
    14    14    15    1
    15    15    16    2
    16    16    17    1
    17    17    18    1
    18    18    19    1
    19    19    20    1
    20    20    21    1
    21    21    22    1
    22    22    23    1
    23    23    24    1
    24    23    25    1
    25    23    26    1
    26    17    27    2
    27     3    28    1
    28    28    29    1
    29    29    30    1
    30    29    31    1
    31    31    32    1
    32    32    33    1
    33    32     2    1
    34    27    13    1
@<TRIPOS>SUBSTRUCTURE
     1 RES1        1 GROUP             0 ****  ****    0  
@<TRIPOS>MOLECULE
ligand_46
    33    34     1     0     0
SMALL
NO_CHARGES
****
Generated from the CSD

@<TRIPOS>ATOM
     1 C1       3.2588  39.5861  41.0906   C.2       1 RES1   0.0000
     2 C2       3.8017  38.5018  40.5727   C.2       1 RES1   0.0000
     3 C3       3.0441  37.2611  40.2981   C.2       1 RES1   0.0000
     4 C4       1.8435  37.1944  39.6528   C.2       1 RES1   0.0000
     5 C5       1.1130  38.2714  39.0700   C.2       1 RES1   0.0000
     6 C6      -0.0817  38.2358  38.4230   C.2       1 RES1   0.0000
     7 C7      -0.9239  37.0143  38.1911   C.3       1 RES1   0.0000
     8 C8      -0.7219  36.3147  36.8512   C.3       1 RES1   0.0000
     9 C9      -1.5957  35.0856  36.6673   C.3       1 RES1   0.0000
    10 C10     -1.3924  34.3900  35.3307   C.3       1 RES1   0.0000
    11 C11     -2.2491  33.1609  35.1170   C.3       1 RES1   0.0000
    12 C12     -2.0116  32.5065  33.7777   C.3       1 RES1   0.0000
    13 C13     -0.5687  39.5360  37.8953   C.2       1 RES1   0.0000
    14 C14     -1.2609  39.5937  36.6910   C.2       1 RES1   0.0000
    15 C15     -1.6957  40.8089  36.1970   C.2       1 RES1   0.0000
    16 C16     -1.4438  41.9741  36.8960   C.2       1 RES1   0.0000
    17 C17     -0.7541  41.9433  38.0971   C.2       1 RES1   0.0000
    18 C18     -0.4452  43.2149  38.8501   C.3       1 RES1   0.0000
    19 C19     -0.9608  44.4786  38.1567   C.3       1 RES1   0.0000
    20 C20     -0.6599  45.7712  38.8992   C.3       1 RES1   0.0000
    21 C21     -1.1719  47.0274  38.2108   C.3       1 RES1   0.0000
    22 C22     -0.8577  48.3103  38.9749   C.3       1 RES1   0.0000
    23 C23     -1.3468  49.6047  38.3332   C.3       1 RES1   0.0000
    24 C24     -0.7312  49.8086  36.9567   C.3       1 RES1   0.0000
    25 C25     -1.0670  50.8015  39.2293   C.3       1 RES1   0.0000
    26 O26     -2.7741  49.5035  38.1692   O.3       1 RES1   0.0000
    27 C27     -0.3231  40.7158  38.5925   C.2       1 RES1   0.0000
    28 C28      3.6726  35.9974  40.8605   C.3       1 RES1   0.0000
    29 C29      5.1685  35.8867  40.5747   C.3       1 RES1   0.0000
    30 O30      5.3436  35.6262  39.1802   O.3       1 RES1   0.0000
    31 C31      5.8891  37.1732  40.9692   C.3       1 RES1   0.0000
    32 C32      5.2946  38.3965  40.2717   C.3       1 RES1   0.0000
    33 O33      6.0118  39.5868  40.5869   O.3       1 RES1   0.0000
@<TRIPOS>BOND
     1     1     2    2
     2     2     3    1
     3     3     4    2
     4     4     5    1
     5     5     6    2
     6     6     7    1
     7     7     8    1
     8     8     9    1
     9     9    10    1
    10    10    11    1
    11    11    12    1
    12     6    13    1
    13    13    14    2
    14    14    15    1
    15    15    16    2
    16    16    17    1
    17    17    18    1
    18    18    19    1
    19    19    20    1
    20    20    21    1
    21    21    22    1
    22    22    23    1
    23    23    24    1
    24    23    25    1
    25    23    26    1
    26    17    27    2
    27     3    28    1
    28    28    29    1
    29    29    30    1
    30    29    31    1
    31    31    32    1
    32    32    33    1
    33    32     2    1
    34    27    13    1
@<TRIPOS>SUBSTRUCTURE
     1 RES1        1 GROUP             0 ****  ****    0  
@<TRIPOS>MOLECULE
ligand_47
    33    34     1     0     0
SMALL
NO_CHARGES
****
Generated from the CSD

@<TRIPOS>ATOM
     1 C1       3.2597  39.5860  41.0896   C.2       1 RES1   0.0000
     2 C2       3.8023  38.5016  40.5716   C.2       1 RES1   0.0000
     3 C3       3.0444  37.2610  40.2974   C.2       1 RES1   0.0000
     4 C4       1.8437  37.1943  39.6524   C.2       1 RES1   0.0000
     5 C5       1.1132  38.2713  39.0697   C.2       1 RES1   0.0000
     6 C6      -0.0817  38.2358  38.4230   C.2       1 RES1   0.0000
     7 C7      -0.9240  37.0144  38.1914   C.3       1 RES1   0.0000
     8 C8      -0.9848  36.5144  36.7521   C.3       1 RES1   0.0000
     9 C9      -1.8489  35.2780  36.5720   C.3       1 RES1   0.0000
    10 C10     -1.9077  34.7815  35.1360   C.3       1 RES1   0.0000
    11 C11     -2.7614  33.5501  34.9237   C.3       1 RES1   0.0000
    12 C12     -2.7882  33.0965  33.4843   C.3       1 RES1   0.0000
    13 C13     -0.5687  39.5360  37.8953   C.2       1 RES1   0.0000
    14 C14      0.3207  40.4508  37.3433   C.2       1 RES1   0.0000
    15 C15     -0.1368  41.6660  36.8703   C.2       1 RES1   0.0000
    16 C16     -1.4805  41.9801  36.9445   C.2       1 RES1   0.0000
    17 C17     -2.3864  41.0863  37.4922   C.2       1 RES1   0.0000
    18 C18     -3.8508  41.4351  37.6081   C.3       1 RES1   0.0000
    19 C19     -4.1933  42.8283  37.0737   C.3       1 RES1   0.0000
    20 C20     -5.6641  43.1995  37.1811   C.3       1 RES1   0.0000
    21 C21     -6.0053  44.5837  36.6503   C.3       1 RES1   0.0000
    22 C22     -7.4861  44.9323  36.7692   C.3       1 RES1   0.0000
    23 C23     -7.8898  46.3095  36.2526   C.3       1 RES1   0.0000
    24 C24     -7.1657  47.4176  37.0030   C.3       1 RES1   0.0000
    25 C25     -9.3962  46.5046  36.3293   C.3       1 RES1   0.0000
    26 O26     -7.5069  46.3900  34.8665   O.3       1 RES1   0.0000
    27 C27     -1.9208  39.8616  37.9623   C.2       1 RES1   0.0000
    28 C28      3.6730  35.9972  40.8598   C.3       1 RES1   0.0000
    29 C29      5.1688  35.8864  40.5736   C.3       1 RES1   0.0000
    30 O30      5.3435  35.6257  39.1791   O.3       1 RES1   0.0000
    31 C31      5.8896  37.1729  40.9677   C.3       1 RES1   0.0000
    32 C32      5.2951  38.3961  40.2703   C.3       1 RES1   0.0000
    33 O33      6.0125  39.5863  40.5852   O.3       1 RES1   0.0000
@<TRIPOS>BOND
     1     1     2    2
     2     2     3    1
     3     3     4    2
     4     4     5    1
     5     5     6    2
     6     6     7    1
     7     7     8    1
     8     8     9    1
     9     9    10    1
    10    10    11    1
    11    11    12    1
    12     6    13    1
    13    13    14    2
    14    14    15    1
    15    15    16    2
    16    16    17    1
    17    17    18    1
    18    18    19    1
    19    19    20    1
    20    20    21    1
    21    21    22    1
    22    22    23    1
    23    23    24    1
    24    23    25    1
    25    23    26    1
    26    17    27    2
    27     3    28    1
    28    28    29    1
    29    29    30    1
    30    29    31    1
    31    31    32    1
    32    32    33    1
    33    32     2    1
    34    27    13    1
@<TRIPOS>SUBSTRUCTURE
     1 RES1        1 GROUP             0 ****  ****    0  
@<TRIPOS>MOLECULE
ligand_48
    33    34     1     0     0
SMALL
NO_CHARGES
****
Generated from the CSD

@<TRIPOS>ATOM
     1 C1      -0.4921  42.6988  38.5318   C.2       1 RES1   0.0000
     2 C2      -1.4130  42.3614  39.4131   C.2       1 RES1   0.0000
     3 C3      -2.2885  41.1779  39.2663   C.2       1 RES1   0.0000
     4 C4      -1.8695  39.9197  38.9441   C.2       1 RES1   0.0000
     5 C5      -0.5284  39.4787  38.7440   C.2       1 RES1   0.0000
     6 C6      -0.0817  38.2358  38.4230   C.2       1 RES1   0.0000
     7 C7      -0.9369  37.0244  38.1860   C.3       1 RES1   0.0000
     8 C8      -1.0219  36.5456  36.7407   C.3       1 RES1   0.0000
     9 C9      -1.8983  35.3186  36.5554   C.3       1 RES1   0.0000
    10 C10     -1.9813  34.8433  35.1135   C.3       1 RES1   0.0000
    11 C11     -2.8477  33.6217  34.8958   C.3       1 RES1   0.0000
    12 C12     -2.8984  33.1891  33.4506   C.3       1 RES1   0.0000
    13 C13      1.3924  38.0873  38.3169   C.2       1 RES1   0.0000
    14 C14      2.1652  39.1010  37.7621   C.2       1 RES1   0.0000
    15 C15      3.5342  38.9489  37.6503   C.2       1 RES1   0.0000
    16 C16      4.1431  37.7880  38.0876   C.2       1 RES1   0.0000
    17 C17      3.3946  36.7624  38.6419   C.2       1 RES1   0.0000
    18 C18      4.0475  35.4772  39.0910   C.3       1 RES1   0.0000
    19 C19      5.5618  35.4485  38.8683   C.3       1 RES1   0.0000
    20 C20      6.2392  34.1620  39.3141   C.3       1 RES1   0.0000
    21 C21      7.7440  34.1327  39.0932   C.3       1 RES1   0.0000
    22 C22      8.4000  32.8323  39.5483   C.3       1 RES1   0.0000
    23 C23      9.9100  32.7436  39.3521   C.3       1 RES1   0.0000
    24 C24     10.2875  32.8793  37.8843   C.3       1 RES1   0.0000
    25 C25     10.4639  31.4512  39.9318   C.3       1 RES1   0.0000
    26 O26     10.5126  33.8390  40.0673   O.3       1 RES1   0.0000
    27 C27      2.0167  36.9232  38.7569   C.2       1 RES1   0.0000
    28 C28     -3.7713  41.4617  39.4370   C.3       1 RES1   0.0000
    29 C29     -4.0864  42.3182  40.6611   C.3       1 RES1   0.0000
    30 O30     -3.8701  41.5282  41.8326   O.3       1 RES1   0.0000
    31 C31     -3.2035  43.5630  40.6896   C.3       1 RES1   0.0000
    32 C32     -1.7172  43.2090  40.6457   C.3       1 RES1   0.0000
    33 O33     -0.8935  44.3677  40.7422   O.3       1 RES1   0.0000
@<TRIPOS>BOND
     1     1     2    2
     2     2     3    1
     3     3     4    2
     4     4     5    1
     5     5     6    2
     6     6     7    1
     7     7     8    1
     8     8     9    1
     9     9    10    1
    10    10    11    1
    11    11    12    1
    12     6    13    1
    13    13    14    2
    14    14    15    1
    15    15    16    2
    16    16    17    1
    17    17    18    1
    18    18    19    1
    19    19    20    1
    20    20    21    1
    21    21    22    1
    22    22    23    1
    23    23    24    1
    24    23    25    1
    25    23    26    1
    26    17    27    2
    27     3    28    1
    28    28    29    1
    29    29    30    1
    30    29    31    1
    31    31    32    1
    32    32    33    1
    33    32     2    1
    34    27    13    1
@<TRIPOS>SUBSTRUCTURE
     1 RES1        1 GROUP             0 ****  ****    0  
@<TRIPOS>MOLECULE
ligand_49
    33    34     1     0     0
SMALL
NO_CHARGES
****
Generated from the CSD

@<TRIPOS>ATOM
     1 C1       3.2588  39.5861  41.0906   C.2       1 RES1   0.0000
     2 C2       3.8017  38.5018  40.5727   C.2       1 RES1   0.0000
     3 C3       3.0441  37.2611  40.2981   C.2       1 RES1   0.0000
     4 C4       1.8435  37.1944  39.6528   C.2       1 RES1   0.0000
     5 C5       1.1130  38.2714  39.0700   C.2       1 RES1   0.0000
     6 C6      -0.0817  38.2358  38.4230   C.2       1 RES1   0.0000
     7 C7      -0.9239  37.0143  38.1911   C.3       1 RES1   0.0000
     8 C8      -0.7219  36.3147  36.8512   C.3       1 RES1   0.0000
     9 C9      -1.5957  35.0856  36.6673   C.3       1 RES1   0.0000
    10 C10     -1.3924  34.3900  35.3307   C.3       1 RES1   0.0000
    11 C11     -2.2491  33.1609  35.1170   C.3       1 RES1   0.0000
    12 C12     -2.0116  32.5065  33.7777   C.3       1 RES1   0.0000
    13 C13     -0.5687  39.5360  37.8953   C.2       1 RES1   0.0000
    14 C14     -1.2609  39.5937  36.6910   C.2       1 RES1   0.0000
    15 C15     -1.6957  40.8089  36.1970   C.2       1 RES1   0.0000
    16 C16     -1.4438  41.9741  36.8960   C.2       1 RES1   0.0000
    17 C17     -0.7541  41.9433  38.0971   C.2       1 RES1   0.0000
    18 C18     -0.4452  43.2149  38.8501   C.3       1 RES1   0.0000
    19 C19      0.3215  42.9838  40.1549   C.3       1 RES1   0.0000
    20 C20      0.6429  44.2526  40.9292   C.3       1 RES1   0.0000
    21 C21      1.4047  44.0238  42.2259   C.3       1 RES1   0.0000
    22 C22      1.7150  45.3113  42.9839   C.3       1 RES1   0.0000
    23 C23      2.4784  45.1456  44.2939   C.3       1 RES1   0.0000
    24 C24      1.7037  44.2868  45.2826   C.3       1 RES1   0.0000
    25 C25      2.8175  46.4960  44.9062   C.3       1 RES1   0.0000
    26 O26      3.7178  44.4735  43.9998   O.3       1 RES1   0.0000
    27 C27     -0.3231  40.7158  38.5925   C.2       1 RES1   0.0000
    28 C28      3.6726  35.9974  40.8605   C.3       1 RES1   0.0000
    29 C29      5.1685  35.8867  40.5747   C.3       1 RES1   0.0000
    30 O30      5.3436  35.6262  39.1802   O.3       1 RES1   0.0000
    31 C31      5.8891  37.1732  40.9692   C.3       1 RES1   0.0000
    32 C32      5.2946  38.3965  40.2717   C.3       1 RES1   0.0000
    33 O33      6.0118  39.5868  40.5869   O.3       1 RES1   0.0000
@<TRIPOS>BOND
     1     1     2    2
     2     2     3    1
     3     3     4    2
     4     4     5    1
     5     5     6    2
     6     6     7    1
     7     7     8    1
     8     8     9    1
     9     9    10    1
    10    10    11    1
    11    11    12    1
    12     6    13    1
    13    13    14    2
    14    14    15    1
    15    15    16    2
    16    16    17    1
    17    17    18    1
    18    18    19    1
    19    19    20    1
    20    20    21    1
    21    21    22    1
    22    22    23    1
    23    23    24    1
    24    23    25    1
    25    23    26    1
    26    17    27    2
    27     3    28    1
    28    28    29    1
    29    29    30    1
    30    29    31    1
    31    31    32    1
    32    32    33    1
    33    32     2    1
    34    27    13    1
@<TRIPOS>SUBSTRUCTURE
     1 RES1        1 GROUP             0 ****  ****    0  
@<TRIPOS>MOLECULE
ligand_50
    33    34     1     0     0
SMALL
NO_CHARGES
****
Generated from the CSD

@<TRIPOS>ATOM
     1 C1       3.2597  39.5860  41.0896   C.2       1 RES1   0.0000
     2 C2       3.8023  38.5016  40.5716   C.2       1 RES1   0.0000
     3 C3       3.0444  37.2610  40.2974   C.2       1 RES1   0.0000
     4 C4       1.8437  37.1943  39.6524   C.2       1 RES1   0.0000
     5 C5       1.1132  38.2713  39.0697   C.2       1 RES1   0.0000
     6 C6      -0.0817  38.2358  38.4230   C.2       1 RES1   0.0000
     7 C7      -0.9240  37.0144  38.1914   C.3       1 RES1   0.0000
     8 C8      -0.9848  36.5144  36.7521   C.3       1 RES1   0.0000
     9 C9      -1.8489  35.2780  36.5720   C.3       1 RES1   0.0000
    10 C10     -1.9077  34.7815  35.1360   C.3       1 RES1   0.0000
    11 C11     -2.7614  33.5501  34.9237   C.3       1 RES1   0.0000
    12 C12     -2.7882  33.0965  33.4843   C.3       1 RES1   0.0000
    13 C13     -0.5687  39.5360  37.8953   C.2       1 RES1   0.0000
    14 C14      0.3207  40.4508  37.3433   C.2       1 RES1   0.0000
    15 C15     -0.1368  41.6660  36.8703   C.2       1 RES1   0.0000
    16 C16     -1.4805  41.9801  36.9445   C.2       1 RES1   0.0000
    17 C17     -2.3864  41.0863  37.4922   C.2       1 RES1   0.0000
    18 C18     -3.8508  41.4351  37.6081   C.3       1 RES1   0.0000
    19 C19     -4.6975  40.3253  38.2367   C.3       1 RES1   0.0000
    20 C20     -6.1763  40.6566  38.3627   C.3       1 RES1   0.0000
    21 C21     -7.0183  39.5543  38.9872   C.3       1 RES1   0.0000
    22 C22     -8.4975  39.9107  39.1025   C.3       1 RES1   0.0000
    23 C23     -9.3936  38.8431  39.7220   C.3       1 RES1   0.0000
    24 C24     -9.3636  37.5553  38.9121   C.3       1 RES1   0.0000
    25 C25    -10.8204  39.3466  39.8774   C.3       1 RES1   0.0000
    26 O26     -8.8858  38.5505  41.0377   O.3       1 RES1   0.0000
    27 C27     -1.9208  39.8616  37.9623   C.2       1 RES1   0.0000
    28 C28      3.6730  35.9972  40.8598   C.3       1 RES1   0.0000
    29 C29      5.1688  35.8864  40.5736   C.3       1 RES1   0.0000
    30 O30      5.3435  35.6257  39.1791   O.3       1 RES1   0.0000
    31 C31      5.8896  37.1729  40.9677   C.3       1 RES1   0.0000
    32 C32      5.2951  38.3961  40.2703   C.3       1 RES1   0.0000
    33 O33      6.0125  39.5863  40.5852   O.3       1 RES1   0.0000
@<TRIPOS>BOND
     1     1     2    2
     2     2     3    1
     3     3     4    2
     4     4     5    1
     5     5     6    2
     6     6     7    1
     7     7     8    1
     8     8     9    1
     9     9    10    1
    10    10    11    1
    11    11    12    1
    12     6    13    1
    13    13    14    2
    14    14    15    1
    15    15    16    2
    16    16    17    1
    17    17    18    1
    18    18    19    1
    19    19    20    1
    20    20    21    1
    21    21    22    1
    22    22    23    1
    23    23    24    1
    24    23    25    1
    25    23    26    1
    26    17    27    2
    27     3    28    1
    28    28    29    1
    29    29    30    1
    30    29    31    1
    31    31    32    1
    32    32    33    1
    33    32     2    1
    34    27    13    1
@<TRIPOS>SUBSTRUCTURE
     1 RES1        1 GROUP             0 ****  ****    0  
@<TRIPOS>MOLECULE
ligand_51
    33    34     1     0     0
SMALL
NO_CHARGES
****
Generated from the CSD

@<TRIPOS>ATOM
     1 C1      -0.4921  42.6988  38.5318   C.2       1 RES1   0.0000
     2 C2      -1.4130  42.3614  39.4131   C.2       1 RES1   0.0000
     3 C3      -2.2885  41.1779  39.2663   C.2       1 RES1   0.0000
     4 C4      -1.8695  39.9197  38.9441   C.2       1 RES1   0.0000
     5 C5      -0.5284  39.4787  38.7440   C.2       1 RES1   0.0000
     6 C6      -0.0817  38.2358  38.4230   C.2       1 RES1   0.0000
     7 C7      -0.9369  37.0244  38.1860   C.3       1 RES1   0.0000
     8 C8      -1.0219  36.5456  36.7407   C.3       1 RES1   0.0000
     9 C9      -1.8983  35.3186  36.5554   C.3       1 RES1   0.0000
    10 C10     -1.9813  34.8433  35.1135   C.3       1 RES1   0.0000
    11 C11     -2.8477  33.6217  34.8958   C.3       1 RES1   0.0000
    12 C12     -2.8984  33.1891  33.4506   C.3       1 RES1   0.0000
    13 C13      1.3924  38.0873  38.3169   C.2       1 RES1   0.0000
    14 C14      2.1652  39.1010  37.7621   C.2       1 RES1   0.0000
    15 C15      3.5342  38.9489  37.6503   C.2       1 RES1   0.0000
    16 C16      4.1431  37.7880  38.0876   C.2       1 RES1   0.0000
    17 C17      3.3946  36.7624  38.6419   C.2       1 RES1   0.0000
    18 C18      4.0475  35.4772  39.0910   C.3       1 RES1   0.0000
    19 C19      3.0632  34.4623  39.6782   C.3       1 RES1   0.0000
    20 C20      3.7008  33.1601  40.1369   C.3       1 RES1   0.0000
    21 C21      2.7234  32.1510  40.7206   C.3       1 RES1   0.0000
    22 C22      3.3871  30.8536  41.1732   C.3       1 RES1   0.0000
    23 C23      2.4566  29.8016  41.7680   C.3       1 RES1   0.0000
    24 C24      1.7427  30.3278  43.0044   C.3       1 RES1   0.0000
    25 C25      3.2104  28.5198  42.0878   C.3       1 RES1   0.0000
    26 O26      1.4570  29.4879  40.7796   O.3       1 RES1   0.0000
    27 C27      2.0167  36.9232  38.7569   C.2       1 RES1   0.0000
    28 C28     -3.7713  41.4617  39.4370   C.3       1 RES1   0.0000
    29 C29     -4.0864  42.3182  40.6611   C.3       1 RES1   0.0000
    30 O30     -3.8701  41.5282  41.8326   O.3       1 RES1   0.0000
    31 C31     -3.2035  43.5630  40.6896   C.3       1 RES1   0.0000
    32 C32     -1.7172  43.2090  40.6457   C.3       1 RES1   0.0000
    33 O33     -0.8935  44.3677  40.7422   O.3       1 RES1   0.0000
@<TRIPOS>BOND
     1     1     2    2
     2     2     3    1
     3     3     4    2
     4     4     5    1
     5     5     6    2
     6     6     7    1
     7     7     8    1
     8     8     9    1
     9     9    10    1
    10    10    11    1
    11    11    12    1
    12     6    13    1
    13    13    14    2
    14    14    15    1
    15    15    16    2
    16    16    17    1
    17    17    18    1
    18    18    19    1
    19    19    20    1
    20    20    21    1
    21    21    22    1
    22    22    23    1
    23    23    24    1
    24    23    25    1
    25    23    26    1
    26    17    27    2
    27     3    28    1
    28    28    29    1
    29    29    30    1
    30    29    31    1
    31    31    32    1
    32    32    33    1
    33    32     2    1
    34    27    13    1
@<TRIPOS>SUBSTRUCTURE
     1 RES1        1 GROUP             0 ****  ****    0  
@<TRIPOS>MOLECULE
ligand_52
    33    34     1     0     0
SMALL
NO_CHARGES
****
Generated from the CSD

@<TRIPOS>ATOM
     1 C1      -0.4978  42.6995  38.4515   C.2       1 RES1   0.0000
     2 C2      -1.4166  42.3769  39.3406   C.2       1 RES1   0.0000
     3 C3      -2.2908  41.1898  39.2169   C.2       1 RES1   0.0000
     4 C4      -1.8708  39.9266  38.9168   C.2       1 RES1   0.0000
     5 C5      -0.5295  39.4837  38.7223   C.2       1 RES1   0.0000
     6 C6      -0.0817  38.2358  38.4230   C.2       1 RES1   0.0000
     7 C7      -0.9357  37.0192  38.2095   C.3       1 RES1   0.0000
     8 C8      -1.2891  36.7035  36.7601   C.3       1 RES1   0.0000
     9 C9      -2.1634  35.4715  36.6001   C.3       1 RES1   0.0000
    10 C10     -2.5143  35.1589  35.1540   C.3       1 RES1   0.0000
    11 C11     -3.3851  33.9363  34.9613   C.3       1 RES1   0.0000
    12 C12     -3.7056  33.6678  33.5109   C.3       1 RES1   0.0000
    13 C13      1.3924  38.0873  38.3169   C.2       1 RES1   0.0000
    14 C14      2.2353  38.7919  39.1688   C.2       1 RES1   0.0000
    15 C15      3.6063  38.6626  39.0529   C.2       1 RES1   0.0000
    16 C16      4.1478  37.8338  38.0888   C.2       1 RES1   0.0000
    17 C17      3.3291  37.1229  37.2265   C.2       1 RES1   0.0000
    18 C18      3.9127  36.2415  36.1484   C.3       1 RES1   0.0000
    19 C19      5.4434  36.2321  36.1263   C.3       1 RES1   0.0000
    20 C20      6.0518  35.3501  35.0472   C.3       1 RES1   0.0000
    21 C21      7.5729  35.3402  35.0245   C.3       1 RES1   0.0000
    22 C22      8.1587  34.4483  33.9337   C.3       1 RES1   0.0000
    23 C23      9.6814  34.3976  33.8612   C.3       1 RES1   0.0000
    24 C24     10.2705  35.7756  33.5980   C.3       1 RES1   0.0000
    25 C25     10.1480  33.4040  32.8083   C.3       1 RES1   0.0000
    26 O26     10.1687  33.9444  35.1386   O.3       1 RES1   0.0000
    27 C27      1.9487  37.2528  37.3512   C.2       1 RES1   0.0000
    28 C28     -3.7737  41.4748  39.3851   C.3       1 RES1   0.0000
    29 C29     -4.0877  42.3530  40.5941   C.3       1 RES1   0.0000
    30 O30     -3.8682  41.5847  41.7793   O.3       1 RES1   0.0000
    31 C31     -3.2064  43.5993  40.5983   C.3       1 RES1   0.0000
    32 C32     -1.7198  43.2464  40.5581   C.3       1 RES1   0.0000
    33 O33     -0.8974  44.4077  40.6321   O.3       1 RES1   0.0000
@<TRIPOS>BOND
     1     1     2    2
     2     2     3    1
     3     3     4    2
     4     4     5    1
     5     5     6    2
     6     6     7    1
     7     7     8    1
     8     8     9    1
     9     9    10    1
    10    10    11    1
    11    11    12    1
    12     6    13    1
    13    13    14    2
    14    14    15    1
    15    15    16    2
    16    16    17    1
    17    17    18    1
    18    18    19    1
    19    19    20    1
    20    20    21    1
    21    21    22    1
    22    22    23    1
    23    23    24    1
    24    23    25    1
    25    23    26    1
    26    17    27    2
    27     3    28    1
    28    28    29    1
    29    29    30    1
    30    29    31    1
    31    31    32    1
    32    32    33    1
    33    32     2    1
    34    27    13    1
@<TRIPOS>SUBSTRUCTURE
     1 RES1        1 GROUP             0 ****  ****    0  
@<TRIPOS>MOLECULE
ligand_53
    33    34     1     0     0
SMALL
NO_CHARGES
****
Generated from the CSD

@<TRIPOS>ATOM
     1 C1      -0.4978  42.6995  38.4515   C.2       1 RES1   0.0000
     2 C2      -1.4166  42.3769  39.3406   C.2       1 RES1   0.0000
     3 C3      -2.2908  41.1898  39.2169   C.2       1 RES1   0.0000
     4 C4      -1.8708  39.9266  38.9168   C.2       1 RES1   0.0000
     5 C5      -0.5295  39.4837  38.7223   C.2       1 RES1   0.0000
     6 C6      -0.0817  38.2358  38.4230   C.2       1 RES1   0.0000
     7 C7      -0.9357  37.0192  38.2095   C.3       1 RES1   0.0000
     8 C8      -1.2891  36.7035  36.7601   C.3       1 RES1   0.0000
     9 C9      -2.1634  35.4715  36.6001   C.3       1 RES1   0.0000
    10 C10     -2.5143  35.1589  35.1540   C.3       1 RES1   0.0000
    11 C11     -3.3851  33.9363  34.9613   C.3       1 RES1   0.0000
    12 C12     -3.7056  33.6678  33.5109   C.3       1 RES1   0.0000
    13 C13      1.3924  38.0873  38.3169   C.2       1 RES1   0.0000
    14 C14      2.2353  38.7919  39.1688   C.2       1 RES1   0.0000
    15 C15      3.6063  38.6626  39.0529   C.2       1 RES1   0.0000
    16 C16      4.1478  37.8338  38.0888   C.2       1 RES1   0.0000
    17 C17      3.3291  37.1229  37.2265   C.2       1 RES1   0.0000
    18 C18      3.9127  36.2415  36.1484   C.3       1 RES1   0.0000
    19 C19      2.8559  35.5353  35.2951   C.3       1 RES1   0.0000
    20 C20      3.4231  34.6421  34.2028   C.3       1 RES1   0.0000
    21 C21      2.3736  33.9400  33.3545   C.3       1 RES1   0.0000
    22 C22      2.9674  33.0503  32.2662   C.3       1 RES1   0.0000
    23 C23      1.9628  32.3189  31.3818   C.3       1 RES1   0.0000
    24 C24      1.0730  31.3948  32.2001   C.3       1 RES1   0.0000
    25 C25      2.6653  31.5470  30.2754   C.3       1 RES1   0.0000
    26 O26      1.1206  33.3082  30.7601   O.3       1 RES1   0.0000
    27 C27      1.9487  37.2528  37.3512   C.2       1 RES1   0.0000
    28 C28     -3.7737  41.4748  39.3851   C.3       1 RES1   0.0000
    29 C29     -4.0877  42.3530  40.5941   C.3       1 RES1   0.0000
    30 O30     -3.8682  41.5847  41.7793   O.3       1 RES1   0.0000
    31 C31     -3.2064  43.5993  40.5983   C.3       1 RES1   0.0000
    32 C32     -1.7198  43.2464  40.5581   C.3       1 RES1   0.0000
    33 O33     -0.8974  44.4077  40.6321   O.3       1 RES1   0.0000
@<TRIPOS>BOND
     1     1     2    2
     2     2     3    1
     3     3     4    2
     4     4     5    1
     5     5     6    2
     6     6     7    1
     7     7     8    1
     8     8     9    1
     9     9    10    1
    10    10    11    1
    11    11    12    1
    12     6    13    1
    13    13    14    2
    14    14    15    1
    15    15    16    2
    16    16    17    1
    17    17    18    1
    18    18    19    1
    19    19    20    1
    20    20    21    1
    21    21    22    1
    22    22    23    1
    23    23    24    1
    24    23    25    1
    25    23    26    1
    26    17    27    2
    27     3    28    1
    28    28    29    1
    29    29    30    1
    30    29    31    1
    31    31    32    1
    32    32    33    1
    33    32     2    1
    34    27    13    1
@<TRIPOS>SUBSTRUCTURE
     1 RES1        1 GROUP             0 ****  ****    0  
@<TRIPOS>MOLECULE
ligand_54
    33    34     1     0     0
SMALL
NO_CHARGES
****
Generated from the CSD

@<TRIPOS>ATOM
     1 C1       3.2503  39.5870  41.1008   C.2       1 RES1   0.0000
     2 C2       3.7957  38.5038  40.5832   C.2       1 RES1   0.0000
     3 C3       3.0401  37.2626  40.3054   C.2       1 RES1   0.0000
     4 C4       1.8414  37.1953  39.6568   C.2       1 RES1   0.0000
     5 C5       1.1113  38.2720  39.0732   C.2       1 RES1   0.0000
     6 C6      -0.0817  38.2358  38.4230   C.2       1 RES1   0.0000
     7 C7      -0.9219  37.0136  38.1876   C.3       1 RES1   0.0000
     8 C8      -0.7121  36.3127  36.8497   C.3       1 RES1   0.0000
     9 C9      -1.5848  35.0835  36.6618   C.3       1 RES1   0.0000
    10 C10     -1.3736  34.3865  35.3271   C.3       1 RES1   0.0000
    11 C11     -2.2293  33.1574  35.1095   C.3       1 RES1   0.0000
    12 C12     -1.9838  32.5016  33.7723   C.3       1 RES1   0.0000
    13 C13     -0.5687  39.5360  37.8953   C.2       1 RES1   0.0000
    14 C14     -0.3391  40.7131  38.5984   C.2       1 RES1   0.0000
    15 C15     -0.8104  41.9171  38.1104   C.2       1 RES1   0.0000
    16 C16     -1.5142  41.9583  36.9218   C.2       1 RES1   0.0000
    17 C17     -1.7580  40.7988  36.2038   C.2       1 RES1   0.0000
    18 C18     -2.5550  40.8302  34.9219   C.3       1 RES1   0.0000
    19 C19     -3.0372  42.2305  34.5340   C.3       1 RES1   0.0000
    20 C20     -3.8425  42.2842  33.2451   C.3       1 RES1   0.0000
    21 C21     -4.3220  43.6753  32.8589   C.3       1 RES1   0.0000
    22 C22     -5.1270  43.7028  31.5629   C.3       1 RES1   0.0000
    23 C23     -5.6356  45.0719  31.1235   C.3       1 RES1   0.0000
    24 C24     -6.5566  45.6833  32.1691   C.3       1 RES1   0.0000
    25 C25     -6.3334  44.9913  29.7745   C.3       1 RES1   0.0000
    26 O26     -4.4953  45.9394  30.9765   O.3       1 RES1   0.0000
    27 C27     -1.2763  39.5896  36.6973   C.2       1 RES1   0.0000
    28 C28      3.6686  35.9990  40.8682   C.3       1 RES1   0.0000
    29 C29      5.1653  35.8902  40.5863   C.3       1 RES1   0.0000
    30 O30      5.3444  35.6313  39.1920   O.3       1 RES1   0.0000
    31 C31      5.8835  37.1771  40.9839   C.3       1 RES1   0.0000
    32 C32      5.2895  38.4004  40.2861   C.3       1 RES1   0.0000
    33 O33      6.0046  39.5912  40.6044   O.3       1 RES1   0.0000
@<TRIPOS>BOND
     1     1     2    2
     2     2     3    1
     3     3     4    2
     4     4     5    1
     5     5     6    2
     6     6     7    1
     7     7     8    1
     8     8     9    1
     9     9    10    1
    10    10    11    1
    11    11    12    1
    12     6    13    1
    13    13    14    2
    14    14    15    1
    15    15    16    2
    16    16    17    1
    17    17    18    1
    18    18    19    1
    19    19    20    1
    20    20    21    1
    21    21    22    1
    22    22    23    1
    23    23    24    1
    24    23    25    1
    25    23    26    1
    26    17    27    2
    27     3    28    1
    28    28    29    1
    29    29    30    1
    30    29    31    1
    31    31    32    1
    32    32    33    1
    33    32     2    1
    34    27    13    1
@<TRIPOS>SUBSTRUCTURE
     1 RES1        1 GROUP             0 ****  ****    0  
@<TRIPOS>MOLECULE
ligand_55
    33    34     1     0     0
SMALL
NO_CHARGES
****
Generated from the CSD

@<TRIPOS>ATOM
     1 C1       3.2503  39.5870  41.1008   C.2       1 RES1   0.0000
     2 C2       3.7957  38.5038  40.5832   C.2       1 RES1   0.0000
     3 C3       3.0401  37.2626  40.3054   C.2       1 RES1   0.0000
     4 C4       1.8414  37.1953  39.6568   C.2       1 RES1   0.0000
     5 C5       1.1113  38.2720  39.0732   C.2       1 RES1   0.0000
     6 C6      -0.0817  38.2358  38.4230   C.2       1 RES1   0.0000
     7 C7      -0.9219  37.0136  38.1876   C.3       1 RES1   0.0000
     8 C8      -0.7121  36.3127  36.8497   C.3       1 RES1   0.0000
     9 C9      -1.5848  35.0835  36.6618   C.3       1 RES1   0.0000
    10 C10     -1.3736  34.3865  35.3271   C.3       1 RES1   0.0000
    11 C11     -2.2293  33.1574  35.1095   C.3       1 RES1   0.0000
    12 C12     -1.9838  32.5016  33.7723   C.3       1 RES1   0.0000
    13 C13     -0.5687  39.5360  37.8953   C.2       1 RES1   0.0000
    14 C14     -0.3391  40.7131  38.5984   C.2       1 RES1   0.0000
    15 C15     -0.8104  41.9171  38.1104   C.2       1 RES1   0.0000
    16 C16     -1.5142  41.9583  36.9218   C.2       1 RES1   0.0000
    17 C17     -1.7580  40.7988  36.2038   C.2       1 RES1   0.0000
    18 C18     -2.5550  40.8302  34.9219   C.3       1 RES1   0.0000
    19 C19     -2.7202  39.4554  34.2689   C.3       1 RES1   0.0000
    20 C20     -3.5204  39.4649  32.9757   C.3       1 RES1   0.0000
    21 C21     -3.6849  38.0992  32.3262   C.3       1 RES1   0.0000
    22 C22     -4.4910  38.1352  31.0310   C.3       1 RES1   0.0000
    23 C23     -4.6899  36.7939  30.3327   C.3       1 RES1   0.0000
    24 C24     -3.3585  36.1662  29.9474   C.3       1 RES1   0.0000
    25 C25     -5.5886  36.9375  29.1141   C.3       1 RES1   0.0000
    26 O26     -5.3456  35.9074  31.2594   O.3       1 RES1   0.0000
    27 C27     -1.2763  39.5896  36.6973   C.2       1 RES1   0.0000
    28 C28      3.6686  35.9990  40.8682   C.3       1 RES1   0.0000
    29 C29      5.1653  35.8902  40.5863   C.3       1 RES1   0.0000
    30 O30      5.3444  35.6313  39.1920   O.3       1 RES1   0.0000
    31 C31      5.8835  37.1771  40.9839   C.3       1 RES1   0.0000
    32 C32      5.2895  38.4004  40.2861   C.3       1 RES1   0.0000
    33 O33      6.0046  39.5912  40.6044   O.3       1 RES1   0.0000
@<TRIPOS>BOND
     1     1     2    2
     2     2     3    1
     3     3     4    2
     4     4     5    1
     5     5     6    2
     6     6     7    1
     7     7     8    1
     8     8     9    1
     9     9    10    1
    10    10    11    1
    11    11    12    1
    12     6    13    1
    13    13    14    2
    14    14    15    1
    15    15    16    2
    16    16    17    1
    17    17    18    1
    18    18    19    1
    19    19    20    1
    20    20    21    1
    21    21    22    1
    22    22    23    1
    23    23    24    1
    24    23    25    1
    25    23    26    1
    26    17    27    2
    27     3    28    1
    28    28    29    1
    29    29    30    1
    30    29    31    1
    31    31    32    1
    32    32    33    1
    33    32     2    1
    34    27    13    1
@<TRIPOS>SUBSTRUCTURE
     1 RES1        1 GROUP             0 ****  ****    0  
@<TRIPOS>MOLECULE
ligand_56
    33    34     1     0     0
SMALL
NO_CHARGES
****
Generated from the CSD

@<TRIPOS>ATOM
     1 C1       3.2626  39.5857  41.0861   C.2       1 RES1   0.0000
     2 C2       3.8044  38.5009  40.5680   C.2       1 RES1   0.0000
     3 C3       3.0458  37.2604  40.2948   C.2       1 RES1   0.0000
     4 C4       1.8444  37.1940  39.6510   C.2       1 RES1   0.0000
     5 C5       1.1138  38.2711  39.0686   C.2       1 RES1   0.0000
     6 C6      -0.0817  38.2358  38.4230   C.2       1 RES1   0.0000
     7 C7      -0.9247  37.0146  38.1926   C.3       1 RES1   0.0000
     8 C8      -0.9869  36.5141  36.7535   C.3       1 RES1   0.0000
     9 C9      -1.8517  35.2780  36.5747   C.3       1 RES1   0.0000
    10 C10     -1.9121  34.7811  35.1389   C.3       1 RES1   0.0000
    11 C11     -2.7664  33.5499  34.9278   C.3       1 RES1   0.0000
    12 C12     -2.7947  33.0958  33.4886   C.3       1 RES1   0.0000
    13 C13     -0.5687  39.5360  37.8953   C.2       1 RES1   0.0000
    14 C14     -1.9207  39.8559  37.9460   C.2       1 RES1   0.0000
    15 C15     -2.3693  41.0599  37.4371   C.2       1 RES1   0.0000
    16 C16     -1.4775  41.9523  36.8732   C.2       1 RES1   0.0000
    17 C17     -0.1257  41.6557  36.8087   C.2       1 RES1   0.0000
    18 C18      0.8506  42.6100  36.1639   C.3       1 RES1   0.0000
    19 C19      1.3896  43.6756  37.1218   C.3       1 RES1   0.0000
    20 C20      0.3397  44.6480  37.6365   C.3       1 RES1   0.0000
    21 C21      0.8745  45.7072  38.5885   C.3       1 RES1   0.0000
    22 C22     -0.1975  46.6701  39.0906   C.3       1 RES1   0.0000
    23 C23      0.2790  47.7560  40.0498   C.3       1 RES1   0.0000
    24 C24      0.8867  47.1562  41.3092   C.3       1 RES1   0.0000
    25 C25     -0.8506  48.7120  40.4015   C.3       1 RES1   0.0000
    26 O26      1.3044  48.5154  39.3817   O.3       1 RES1   0.0000
    27 C27      0.3213  40.4438  37.3276   C.2       1 RES1   0.0000
    28 C28      3.6744  35.9967  40.8571   C.3       1 RES1   0.0000
    29 C29      5.1699  35.8852  40.5696   C.3       1 RES1   0.0000
    30 O30      5.3432  35.6239  39.1750   O.3       1 RES1   0.0000
    31 C31      5.8916  37.1715  40.9626   C.3       1 RES1   0.0000
    32 C32      5.2968  38.3947  40.2653   C.3       1 RES1   0.0000
    33 O33      6.0150  39.5848  40.5791   O.3       1 RES1   0.0000
@<TRIPOS>BOND
     1     1     2    2
     2     2     3    1
     3     3     4    2
     4     4     5    1
     5     5     6    2
     6     6     7    1
     7     7     8    1
     8     8     9    1
     9     9    10    1
    10    10    11    1
    11    11    12    1
    12     6    13    1
    13    13    14    2
    14    14    15    1
    15    15    16    2
    16    16    17    1
    17    17    18    1
    18    18    19    1
    19    19    20    1
    20    20    21    1
    21    21    22    1
    22    22    23    1
    23    23    24    1
    24    23    25    1
    25    23    26    1
    26    17    27    2
    27     3    28    1
    28    28    29    1
    29    29    30    1
    30    29    31    1
    31    31    32    1
    32    32    33    1
    33    32     2    1
    34    27    13    1
@<TRIPOS>SUBSTRUCTURE
     1 RES1        1 GROUP             0 ****  ****    0  
@<TRIPOS>MOLECULE
ligand_57
    33    34     1     0     0
SMALL
NO_CHARGES
****
Generated from the CSD

@<TRIPOS>ATOM
     1 C1       3.2626  39.5857  41.0861   C.2       1 RES1   0.0000
     2 C2       3.8044  38.5009  40.5680   C.2       1 RES1   0.0000
     3 C3       3.0458  37.2604  40.2948   C.2       1 RES1   0.0000
     4 C4       1.8444  37.1940  39.6510   C.2       1 RES1   0.0000
     5 C5       1.1138  38.2711  39.0686   C.2       1 RES1   0.0000
     6 C6      -0.0817  38.2358  38.4230   C.2       1 RES1   0.0000
     7 C7      -0.9247  37.0146  38.1926   C.3       1 RES1   0.0000
     8 C8      -0.9869  36.5141  36.7535   C.3       1 RES1   0.0000
     9 C9      -1.8517  35.2780  36.5747   C.3       1 RES1   0.0000
    10 C10     -1.9121  34.7811  35.1389   C.3       1 RES1   0.0000
    11 C11     -2.7664  33.5499  34.9278   C.3       1 RES1   0.0000
    12 C12     -2.7947  33.0958  33.4886   C.3       1 RES1   0.0000
    13 C13     -0.5687  39.5360  37.8953   C.2       1 RES1   0.0000
    14 C14     -1.9207  39.8559  37.9460   C.2       1 RES1   0.0000
    15 C15     -2.3693  41.0599  37.4371   C.2       1 RES1   0.0000
    16 C16     -1.4775  41.9523  36.8732   C.2       1 RES1   0.0000
    17 C17     -0.1257  41.6557  36.8087   C.2       1 RES1   0.0000
    18 C18      0.8506  42.6100  36.1639   C.3       1 RES1   0.0000
    19 C19      1.3896  43.6756  37.1218   C.3       1 RES1   0.0000
    20 C20      2.2368  43.1282  38.2599   C.3       1 RES1   0.0000
    21 C21      2.7728  44.1865  39.2122   C.3       1 RES1   0.0000
    22 C22      3.6192  43.6124  40.3447   C.3       1 RES1   0.0000
    23 C23      4.1852  44.6266  41.3333   C.3       1 RES1   0.0000
    24 C24      5.0916  45.6322  40.6387   C.3       1 RES1   0.0000
    25 C25      4.9227  43.9337  42.4688   C.3       1 RES1   0.0000
    26 O26      3.0786  45.3495  41.9054   O.3       1 RES1   0.0000
    27 C27      0.3213  40.4438  37.3276   C.2       1 RES1   0.0000
    28 C28      3.6744  35.9967  40.8571   C.3       1 RES1   0.0000
    29 C29      5.1699  35.8852  40.5696   C.3       1 RES1   0.0000
    30 O30      5.3432  35.6239  39.1750   O.3       1 RES1   0.0000
    31 C31      5.8916  37.1715  40.9626   C.3       1 RES1   0.0000
    32 C32      5.2968  38.3947  40.2653   C.3       1 RES1   0.0000
    33 O33      6.0150  39.5848  40.5791   O.3       1 RES1   0.0000
@<TRIPOS>BOND
     1     1     2    2
     2     2     3    1
     3     3     4    2
     4     4     5    1
     5     5     6    2
     6     6     7    1
     7     7     8    1
     8     8     9    1
     9     9    10    1
    10    10    11    1
    11    11    12    1
    12     6    13    1
    13    13    14    2
    14    14    15    1
    15    15    16    2
    16    16    17    1
    17    17    18    1
    18    18    19    1
    19    19    20    1
    20    20    21    1
    21    21    22    1
    22    22    23    1
    23    23    24    1
    24    23    25    1
    25    23    26    1
    26    17    27    2
    27     3    28    1
    28    28    29    1
    29    29    30    1
    30    29    31    1
    31    31    32    1
    32    32    33    1
    33    32     2    1
    34    27    13    1
@<TRIPOS>SUBSTRUCTURE
     1 RES1        1 GROUP             0 ****  ****    0  
@<TRIPOS>MOLECULE
ligand_58
    33    34     1     0     0
SMALL
NO_CHARGES
****
Generated from the CSD

@<TRIPOS>ATOM
     1 C1       3.2594  39.5860  41.0899   C.2       1 RES1   0.0000
     2 C2       3.8022  38.5016  40.5719   C.2       1 RES1   0.0000
     3 C3       3.0444  37.2610  40.2975   C.2       1 RES1   0.0000
     4 C4       1.8437  37.1943  39.6525   C.2       1 RES1   0.0000
     5 C5       1.1132  38.2713  39.0698   C.2       1 RES1   0.0000
     6 C6      -0.0817  38.2358  38.4230   C.2       1 RES1   0.0000
     7 C7      -0.9240  37.0144  38.1913   C.3       1 RES1   0.0000
     8 C8      -0.9847  36.5144  36.7520   C.3       1 RES1   0.0000
     9 C9      -1.8488  35.2779  36.5719   C.3       1 RES1   0.0000
    10 C10     -1.9076  34.7815  35.1359   C.3       1 RES1   0.0000
    11 C11     -2.7612  33.5501  34.9236   C.3       1 RES1   0.0000
    12 C12     -2.7880  33.0966  33.4841   C.3       1 RES1   0.0000
    13 C13     -0.5687  39.5360  37.8953   C.2       1 RES1   0.0000
    14 C14     -1.9207  39.8559  37.9460   C.2       1 RES1   0.0000
    15 C15     -2.3693  41.0599  37.4371   C.2       1 RES1   0.0000
    16 C16     -1.4775  41.9523  36.8732   C.2       1 RES1   0.0000
    17 C17     -0.1257  41.6557  36.8087   C.2       1 RES1   0.0000
    18 C18      0.8506  42.6100  36.1639   C.3       1 RES1   0.0000
    19 C19      1.1044  42.3192  34.6824   C.3       1 RES1   0.0000
    20 C20      1.7868  40.9876  34.4104   C.3       1 RES1   0.0000
    21 C21      2.0394  40.6979  32.9385   C.3       1 RES1   0.0000
    22 C22      2.7245  39.3569  32.6918   C.3       1 RES1   0.0000
    23 C23      3.0044  39.0102  31.2331   C.3       1 RES1   0.0000
    24 C24      1.7191  38.9478  30.4212   C.3       1 RES1   0.0000
    25 C25      3.7765  37.7049  31.1175   C.3       1 RES1   0.0000
    26 O26      3.8263  40.0564  30.6813   O.3       1 RES1   0.0000
    27 C27      0.3213  40.4438  37.3276   C.2       1 RES1   0.0000
    28 C28      3.6729  35.9973  40.8599   C.3       1 RES1   0.0000
    29 C29      5.1687  35.8865  40.5739   C.3       1 RES1   0.0000
    30 O30      5.3435  35.6258  39.1793   O.3       1 RES1   0.0000
    31 C31      5.8895  37.1730  40.9681   C.3       1 RES1   0.0000
    32 C32      5.2950  38.3962  40.2707   C.3       1 RES1   0.0000
    33 O33      6.0123  39.5865  40.5856   O.3       1 RES1   0.0000
@<TRIPOS>BOND
     1     1     2    2
     2     2     3    1
     3     3     4    2
     4     4     5    1
     5     5     6    2
     6     6     7    1
     7     7     8    1
     8     8     9    1
     9     9    10    1
    10    10    11    1
    11    11    12    1
    12     6    13    1
    13    13    14    2
    14    14    15    1
    15    15    16    2
    16    16    17    1
    17    17    18    1
    18    18    19    1
    19    19    20    1
    20    20    21    1
    21    21    22    1
    22    22    23    1
    23    23    24    1
    24    23    25    1
    25    23    26    1
    26    17    27    2
    27     3    28    1
    28    28    29    1
    29    29    30    1
    30    29    31    1
    31    31    32    1
    32    32    33    1
    33    32     2    1
    34    27    13    1
@<TRIPOS>SUBSTRUCTURE
     1 RES1        1 GROUP             0 ****  ****    0  
@<TRIPOS>MOLECULE
ligand_59
    33    34     1     0     0
SMALL
NO_CHARGES
****
Generated from the CSD

@<TRIPOS>ATOM
     1 C1       3.2626  39.5857  41.0861   C.2       1 RES1   0.0000
     2 C2       3.8044  38.5009  40.5680   C.2       1 RES1   0.0000
     3 C3       3.0458  37.2604  40.2948   C.2       1 RES1   0.0000
     4 C4       1.8444  37.1940  39.6510   C.2       1 RES1   0.0000
     5 C5       1.1138  38.2711  39.0686   C.2       1 RES1   0.0000
     6 C6      -0.0817  38.2358  38.4230   C.2       1 RES1   0.0000
     7 C7      -0.9247  37.0146  38.1926   C.3       1 RES1   0.0000
     8 C8      -0.9869  36.5141  36.7535   C.3       1 RES1   0.0000
     9 C9      -1.8517  35.2780  36.5747   C.3       1 RES1   0.0000
    10 C10     -1.9121  34.7811  35.1389   C.3       1 RES1   0.0000
    11 C11     -2.7664  33.5499  34.9278   C.3       1 RES1   0.0000
    12 C12     -2.7947  33.0958  33.4886   C.3       1 RES1   0.0000
    13 C13     -0.5687  39.5360  37.8953   C.2       1 RES1   0.0000
    14 C14     -1.9207  39.8559  37.9460   C.2       1 RES1   0.0000
    15 C15     -2.3693  41.0599  37.4371   C.2       1 RES1   0.0000
    16 C16     -1.4775  41.9523  36.8732   C.2       1 RES1   0.0000
    17 C17     -0.1257  41.6557  36.8087   C.2       1 RES1   0.0000
    18 C18      0.8506  42.6100  36.1639   C.3       1 RES1   0.0000
    19 C19      1.1044  42.3192  34.6824   C.3       1 RES1   0.0000
    20 C20     -0.1103  42.5074  33.7871   C.3       1 RES1   0.0000
    21 C21      0.1410  42.2186  32.3148   C.3       1 RES1   0.0000
    22 C22     -1.0922  42.4146  31.4378   C.3       1 RES1   0.0000
    23 C23     -0.9018  42.1396  29.9496   C.3       1 RES1   0.0000
    24 C24      0.1554  43.0533  29.3475   C.3       1 RES1   0.0000
    25 C25     -2.2161  42.2688  29.1950   C.3       1 RES1   0.0000
    26 O26     -0.4459  40.7809  29.8072   O.3       1 RES1   0.0000
    27 C27      0.3213  40.4438  37.3276   C.2       1 RES1   0.0000
    28 C28      3.6744  35.9967  40.8571   C.3       1 RES1   0.0000
    29 C29      5.1699  35.8852  40.5696   C.3       1 RES1   0.0000
    30 O30      5.3432  35.6239  39.1750   O.3       1 RES1   0.0000
    31 C31      5.8916  37.1715  40.9626   C.3       1 RES1   0.0000
    32 C32      5.2968  38.3947  40.2653   C.3       1 RES1   0.0000
    33 O33      6.0150  39.5848  40.5791   O.3       1 RES1   0.0000
@<TRIPOS>BOND
     1     1     2    2
     2     2     3    1
     3     3     4    2
     4     4     5    1
     5     5     6    2
     6     6     7    1
     7     7     8    1
     8     8     9    1
     9     9    10    1
    10    10    11    1
    11    11    12    1
    12     6    13    1
    13    13    14    2
    14    14    15    1
    15    15    16    2
    16    16    17    1
    17    17    18    1
    18    18    19    1
    19    19    20    1
    20    20    21    1
    21    21    22    1
    22    22    23    1
    23    23    24    1
    24    23    25    1
    25    23    26    1
    26    17    27    2
    27     3    28    1
    28    28    29    1
    29    29    30    1
    30    29    31    1
    31    31    32    1
    32    32    33    1
    33    32     2    1
    34    27    13    1
@<TRIPOS>SUBSTRUCTURE
     1 RES1        1 GROUP             0 ****  ****    0  
@<TRIPOS>MOLECULE
ligand_60
    33    34     1     0     0
SMALL
NO_CHARGES
****
Generated from the CSD

@<TRIPOS>ATOM
     1 C1      -0.4977  42.6995  38.4521   C.2       1 RES1   0.0000
     2 C2      -1.4166  42.3768  39.3411   C.2       1 RES1   0.0000
     3 C3      -2.2908  41.1897  39.2172   C.2       1 RES1   0.0000
     4 C4      -1.8708  39.9265  38.9169   C.2       1 RES1   0.0000
     5 C5      -0.5295  39.4837  38.7224   C.2       1 RES1   0.0000
     6 C6      -0.0817  38.2358  38.4230   C.2       1 RES1   0.0000
     7 C7      -0.9357  37.0192  38.2094   C.3       1 RES1   0.0000
     8 C8      -1.2850  36.7009  36.7596   C.3       1 RES1   0.0000
     9 C9      -2.1601  35.4694  36.5994   C.3       1 RES1   0.0000
    10 C10     -2.5068  35.1542  35.1529   C.3       1 RES1   0.0000
    11 C11     -3.3782  33.9321  34.9600   C.3       1 RES1   0.0000
    12 C12     -3.6945  33.6609  33.5092   C.3       1 RES1   0.0000
    13 C13      1.3924  38.0873  38.3169   C.2       1 RES1   0.0000
    14 C14      1.9493  37.2417  37.3643   C.2       1 RES1   0.0000
    15 C15      3.3210  37.0948  37.2828   C.2       1 RES1   0.0000
    16 C16      4.1473  37.7859  38.1485   C.2       1 RES1   0.0000
    17 C17      3.6165  38.6327  39.1080   C.2       1 RES1   0.0000
    18 C18      4.5102  39.3653  40.0797   C.3       1 RES1   0.0000
    19 C19      5.0258  40.7051  39.5479   C.3       1 RES1   0.0000
    20 C20      5.9480  40.5914  38.3440   C.3       1 RES1   0.0000
    21 C21      6.4608  41.9223  37.8149   C.3       1 RES1   0.0000
    22 C22      7.3834  41.7816  36.6077   C.3       1 RES1   0.0000
    23 C23      7.9302  43.0838  36.0318   C.3       1 RES1   0.0000
    24 C24      6.8076  43.9971  35.5617   C.3       1 RES1   0.0000
    25 C25      8.9123  42.8148  34.9020   C.3       1 RES1   0.0000
    26 O26      8.6444  43.7643  37.0812   O.3       1 RES1   0.0000
    27 C27      2.2344  38.7810  39.1821   C.2       1 RES1   0.0000
    28 C28     -3.7737  41.4747  39.3854   C.3       1 RES1   0.0000
    29 C29     -4.0877  42.3527  40.5945   C.3       1 RES1   0.0000
    30 O30     -3.8682  41.5843  41.7797   O.3       1 RES1   0.0000
    31 C31     -3.2064  43.5990  40.5989   C.3       1 RES1   0.0000
    32 C32     -1.7198  43.2462  40.5587   C.3       1 RES1   0.0000
    33 O33     -0.8974  44.4075  40.6328   O.3       1 RES1   0.0000
@<TRIPOS>BOND
     1     1     2    2
     2     2     3    1
     3     3     4    2
     4     4     5    1
     5     5     6    2
     6     6     7    1
     7     7     8    1
     8     8     9    1
     9     9    10    1
    10    10    11    1
    11    11    12    1
    12     6    13    1
    13    13    14    2
    14    14    15    1
    15    15    16    2
    16    16    17    1
    17    17    18    1
    18    18    19    1
    19    19    20    1
    20    20    21    1
    21    21    22    1
    22    22    23    1
    23    23    24    1
    24    23    25    1
    25    23    26    1
    26    17    27    2
    27     3    28    1
    28    28    29    1
    29    29    30    1
    30    29    31    1
    31    31    32    1
    32    32    33    1
    33    32     2    1
    34    27    13    1
@<TRIPOS>SUBSTRUCTURE
     1 RES1        1 GROUP             0 ****  ****    0  
@<TRIPOS>MOLECULE
ligand_61
    33    34     1     0     0
SMALL
NO_CHARGES
****
Generated from the CSD

@<TRIPOS>ATOM
     1 C1      -0.4977  42.6995  38.4521   C.2       1 RES1   0.0000
     2 C2      -1.4166  42.3768  39.3411   C.2       1 RES1   0.0000
     3 C3      -2.2908  41.1897  39.2172   C.2       1 RES1   0.0000
     4 C4      -1.8708  39.9265  38.9169   C.2       1 RES1   0.0000
     5 C5      -0.5295  39.4837  38.7224   C.2       1 RES1   0.0000
     6 C6      -0.0817  38.2358  38.4230   C.2       1 RES1   0.0000
     7 C7      -0.9357  37.0192  38.2094   C.3       1 RES1   0.0000
     8 C8      -1.2850  36.7009  36.7596   C.3       1 RES1   0.0000
     9 C9      -2.1601  35.4694  36.5994   C.3       1 RES1   0.0000
    10 C10     -2.5068  35.1542  35.1529   C.3       1 RES1   0.0000
    11 C11     -3.3782  33.9321  34.9600   C.3       1 RES1   0.0000
    12 C12     -3.6945  33.6609  33.5092   C.3       1 RES1   0.0000
    13 C13      1.3924  38.0873  38.3169   C.2       1 RES1   0.0000
    14 C14      1.9493  37.2417  37.3643   C.2       1 RES1   0.0000
    15 C15      3.3210  37.0948  37.2828   C.2       1 RES1   0.0000
    16 C16      4.1473  37.7859  38.1485   C.2       1 RES1   0.0000
    17 C17      3.6165  38.6327  39.1080   C.2       1 RES1   0.0000
    18 C18      4.5102  39.3653  40.0797   C.3       1 RES1   0.0000
    19 C19      5.0258  40.7051  39.5479   C.3       1 RES1   0.0000
    20 C20      3.9439  41.7481  39.3151   C.3       1 RES1   0.0000
    21 C21      4.4554  43.0797  38.7866   C.3       1 RES1   0.0000
    22 C22      3.3514  44.1088  38.5613   C.3       1 RES1   0.0000
    23 C23      3.8036  45.4656  38.0313   C.3       1 RES1   0.0000
    24 C24      4.7764  46.1389  38.9882   C.3       1 RES1   0.0000
    25 C25      2.6132  46.3700  37.7514   C.3       1 RES1   0.0000
    26 O26      4.4900  45.2453  36.7844   O.3       1 RES1   0.0000
    27 C27      2.2344  38.7810  39.1821   C.2       1 RES1   0.0000
    28 C28     -3.7737  41.4747  39.3854   C.3       1 RES1   0.0000
    29 C29     -4.0877  42.3527  40.5945   C.3       1 RES1   0.0000
    30 O30     -3.8682  41.5843  41.7797   O.3       1 RES1   0.0000
    31 C31     -3.2064  43.5990  40.5989   C.3       1 RES1   0.0000
    32 C32     -1.7198  43.2462  40.5587   C.3       1 RES1   0.0000
    33 O33     -0.8974  44.4075  40.6328   O.3       1 RES1   0.0000
@<TRIPOS>BOND
     1     1     2    2
     2     2     3    1
     3     3     4    2
     4     4     5    1
     5     5     6    2
     6     6     7    1
     7     7     8    1
     8     8     9    1
     9     9    10    1
    10    10    11    1
    11    11    12    1
    12     6    13    1
    13    13    14    2
    14    14    15    1
    15    15    16    2
    16    16    17    1
    17    17    18    1
    18    18    19    1
    19    19    20    1
    20    20    21    1
    21    21    22    1
    22    22    23    1
    23    23    24    1
    24    23    25    1
    25    23    26    1
    26    17    27    2
    27     3    28    1
    28    28    29    1
    29    29    30    1
    30    29    31    1
    31    31    32    1
    32    32    33    1
    33    32     2    1
    34    27    13    1
@<TRIPOS>SUBSTRUCTURE
     1 RES1        1 GROUP             0 ****  ****    0  
@<TRIPOS>MOLECULE
ligand_62
    33    34     1     0     0
SMALL
NO_CHARGES
****
Generated from the CSD

@<TRIPOS>ATOM
     1 C1      -0.4977  42.6995  38.4521   C.2       1 RES1   0.0000
     2 C2      -1.4166  42.3768  39.3411   C.2       1 RES1   0.0000
     3 C3      -2.2908  41.1897  39.2172   C.2       1 RES1   0.0000
     4 C4      -1.8708  39.9265  38.9169   C.2       1 RES1   0.0000
     5 C5      -0.5295  39.4837  38.7224   C.2       1 RES1   0.0000
     6 C6      -0.0817  38.2358  38.4230   C.2       1 RES1   0.0000
     7 C7      -0.9357  37.0192  38.2094   C.3       1 RES1   0.0000
     8 C8      -1.2850  36.7009  36.7596   C.3       1 RES1   0.0000
     9 C9      -2.1601  35.4694  36.5994   C.3       1 RES1   0.0000
    10 C10     -2.5068  35.1542  35.1529   C.3       1 RES1   0.0000
    11 C11     -3.3782  33.9321  34.9600   C.3       1 RES1   0.0000
    12 C12     -3.6945  33.6609  33.5092   C.3       1 RES1   0.0000
    13 C13      1.3924  38.0873  38.3169   C.2       1 RES1   0.0000
    14 C14      1.9493  37.2417  37.3643   C.2       1 RES1   0.0000
    15 C15      3.3210  37.0948  37.2828   C.2       1 RES1   0.0000
    16 C16      4.1473  37.7859  38.1485   C.2       1 RES1   0.0000
    17 C17      3.6165  38.6327  39.1080   C.2       1 RES1   0.0000
    18 C18      4.5102  39.3653  40.0797   C.3       1 RES1   0.0000
    19 C19      4.7203  38.6203  41.4006   C.3       1 RES1   0.0000
    20 C20      3.4617  38.4583  42.2387   C.3       1 RES1   0.0000
    21 C21      3.6696  37.7181  43.5514   C.3       1 RES1   0.0000
    22 C22      2.3928  37.5685  44.3736   C.3       1 RES1   0.0000
    23 C23      2.5384  36.8338  45.7023   C.3       1 RES1   0.0000
    24 C24      3.0408  35.4122  45.4980   C.3       1 RES1   0.0000
    25 C25      1.2291  36.8347  46.4763   C.3       1 RES1   0.0000
    26 O26      3.5151  37.5394  46.4914   O.3       1 RES1   0.0000
    27 C27      2.2344  38.7810  39.1821   C.2       1 RES1   0.0000
    28 C28     -3.7737  41.4747  39.3854   C.3       1 RES1   0.0000
    29 C29     -4.0877  42.3527  40.5945   C.3       1 RES1   0.0000
    30 O30     -3.8682  41.5843  41.7797   O.3       1 RES1   0.0000
    31 C31     -3.2064  43.5990  40.5989   C.3       1 RES1   0.0000
    32 C32     -1.7198  43.2462  40.5587   C.3       1 RES1   0.0000
    33 O33     -0.8974  44.4075  40.6328   O.3       1 RES1   0.0000
@<TRIPOS>BOND
     1     1     2    2
     2     2     3    1
     3     3     4    2
     4     4     5    1
     5     5     6    2
     6     6     7    1
     7     7     8    1
     8     8     9    1
     9     9    10    1
    10    10    11    1
    11    11    12    1
    12     6    13    1
    13    13    14    2
    14    14    15    1
    15    15    16    2
    16    16    17    1
    17    17    18    1
    18    18    19    1
    19    19    20    1
    20    20    21    1
    21    21    22    1
    22    22    23    1
    23    23    24    1
    24    23    25    1
    25    23    26    1
    26    17    27    2
    27     3    28    1
    28    28    29    1
    29    29    30    1
    30    29    31    1
    31    31    32    1
    32    32    33    1
    33    32     2    1
    34    27    13    1
@<TRIPOS>SUBSTRUCTURE
     1 RES1        1 GROUP             0 ****  ****    0  
@<TRIPOS>MOLECULE
ligand_63
    33    34     1     0     0
SMALL
NO_CHARGES
****
Generated from the CSD

@<TRIPOS>ATOM
     1 C1      -0.4977  42.6995  38.4521   C.2       1 RES1   0.0000
     2 C2      -1.4166  42.3768  39.3411   C.2       1 RES1   0.0000
     3 C3      -2.2908  41.1897  39.2172   C.2       1 RES1   0.0000
     4 C4      -1.8708  39.9265  38.9169   C.2       1 RES1   0.0000
     5 C5      -0.5295  39.4837  38.7224   C.2       1 RES1   0.0000
     6 C6      -0.0817  38.2358  38.4230   C.2       1 RES1   0.0000
     7 C7      -0.9357  37.0192  38.2094   C.3       1 RES1   0.0000
     8 C8      -1.2850  36.7009  36.7596   C.3       1 RES1   0.0000
     9 C9      -2.1601  35.4694  36.5994   C.3       1 RES1   0.0000
    10 C10     -2.5068  35.1542  35.1529   C.3       1 RES1   0.0000
    11 C11     -3.3782  33.9321  34.9600   C.3       1 RES1   0.0000
    12 C12     -3.6945  33.6609  33.5092   C.3       1 RES1   0.0000
    13 C13      1.3924  38.0873  38.3169   C.2       1 RES1   0.0000
    14 C14      1.9493  37.2417  37.3643   C.2       1 RES1   0.0000
    15 C15      3.3210  37.0948  37.2828   C.2       1 RES1   0.0000
    16 C16      4.1473  37.7859  38.1485   C.2       1 RES1   0.0000
    17 C17      3.6165  38.6327  39.1080   C.2       1 RES1   0.0000
    18 C18      4.5102  39.3653  40.0797   C.3       1 RES1   0.0000
    19 C19      4.7203  38.6203  41.4006   C.3       1 RES1   0.0000
    20 C20      5.4658  37.3016  41.2676   C.3       1 RES1   0.0000
    21 C21      5.6749  36.5607  42.5797   C.3       1 RES1   0.0000
    22 C22      6.4248  35.2413  42.4199   C.3       1 RES1   0.0000
    23 C23      6.6650  34.4520  43.7028   C.3       1 RES1   0.0000
    24 C24      7.4895  35.2522  44.7003   C.3       1 RES1   0.0000
    25 C25      7.3274  33.1149  43.4086   C.3       1 RES1   0.0000
    26 O26      5.3830  34.1842  44.3021   O.3       1 RES1   0.0000
    27 C27      2.2344  38.7810  39.1821   C.2       1 RES1   0.0000
    28 C28     -3.7737  41.4747  39.3854   C.3       1 RES1   0.0000
    29 C29     -4.0877  42.3527  40.5945   C.3       1 RES1   0.0000
    30 O30     -3.8682  41.5843  41.7797   O.3       1 RES1   0.0000
    31 C31     -3.2064  43.5990  40.5989   C.3       1 RES1   0.0000
    32 C32     -1.7198  43.2462  40.5587   C.3       1 RES1   0.0000
    33 O33     -0.8974  44.4075  40.6328   O.3       1 RES1   0.0000
@<TRIPOS>BOND
     1     1     2    2
     2     2     3    1
     3     3     4    2
     4     4     5    1
     5     5     6    2
     6     6     7    1
     7     7     8    1
     8     8     9    1
     9     9    10    1
    10    10    11    1
    11    11    12    1
    12     6    13    1
    13    13    14    2
    14    14    15    1
    15    15    16    2
    16    16    17    1
    17    17    18    1
    18    18    19    1
    19    19    20    1
    20    20    21    1
    21    21    22    1
    22    22    23    1
    23    23    24    1
    24    23    25    1
    25    23    26    1
    26    17    27    2
    27     3    28    1
    28    28    29    1
    29    29    30    1
    30    29    31    1
    31    31    32    1
    32    32    33    1
    33    32     2    1
    34    27    13    1
@<TRIPOS>SUBSTRUCTURE
     1 RES1        1 GROUP             0 ****  ****    0  
@<TRIPOS>MOLECULE
ligand_64
    33    34     1     0     0
SMALL
NO_CHARGES
****
Generated from the CSD

@<TRIPOS>ATOM
     1 C1      -0.4916  42.6987  38.5375   C.2       1 RES1   0.0000
     2 C2      -1.4127  42.3602  39.4184   C.2       1 RES1   0.0000
     3 C3      -2.2883  41.1770  39.2698   C.2       1 RES1   0.0000
     4 C4      -1.8694  39.9192  38.9460   C.2       1 RES1   0.0000
     5 C5      -0.5284  39.4783  38.7456   C.2       1 RES1   0.0000
     6 C6      -0.0817  38.2358  38.4230   C.2       1 RES1   0.0000
     7 C7      -0.9370  37.0248  38.1843   C.3       1 RES1   0.0000
     8 C8      -1.0218  36.5479  36.7384   C.3       1 RES1   0.0000
     9 C9      -1.8983  35.3212  36.5513   C.3       1 RES1   0.0000
    10 C10     -1.9812  34.8478  35.1088   C.3       1 RES1   0.0000
    11 C11     -2.8477  33.6266  34.8894   C.3       1 RES1   0.0000
    12 C12     -2.8982  33.1958  33.4437   C.3       1 RES1   0.0000
    13 C13      1.3924  38.0873  38.3169   C.2       1 RES1   0.0000
    14 C14      2.0194  36.9327  38.7710   C.2       1 RES1   0.0000
    15 C15      3.3931  36.8085  38.6855   C.2       1 RES1   0.0000
    16 C16      4.1520  37.8317  38.1498   C.2       1 RES1   0.0000
    17 C17      3.5510  38.9932  37.6926   C.2       1 RES1   0.0000
    18 C18      4.3754  40.1296  37.1372   C.3       1 RES1   0.0000
    19 C19      4.6734  39.9968  35.6414   C.3       1 RES1   0.0000
    20 C20      5.5476  38.8070  35.2770   C.3       1 RES1   0.0000
    21 C21      5.8441  38.6744  33.7909   C.3       1 RES1   0.0000
    22 C22      6.7224  37.4737  33.4511   C.3       1 RES1   0.0000
    23 C23      7.0545  37.2879  31.9741   C.3       1 RES1   0.0000
    24 C24      5.7948  37.0990  31.1418   C.3       1 RES1   0.0000
    25 C25      8.0131  36.1250  31.7690   C.3       1 RES1   0.0000
    26 O26      7.7122  38.4847  31.5163   O.3       1 RES1   0.0000
    27 C27      2.1664  39.1106  37.7763   C.2       1 RES1   0.0000
    28 C28     -3.7711  41.4607  39.4407   C.3       1 RES1   0.0000
    29 C29     -4.0863  42.3157  40.6659   C.3       1 RES1   0.0000
    30 O30     -3.8702  41.5241  41.8364   O.3       1 RES1   0.0000
    31 C31     -3.2033  43.5604  40.6961   C.3       1 RES1   0.0000
    32 C32     -1.7171  43.2062  40.6520   C.3       1 RES1   0.0000
    33 O33     -0.8932  44.3648  40.7501   O.3       1 RES1   0.0000
@<TRIPOS>BOND
     1     1     2    2
     2     2     3    1
     3     3     4    2
     4     4     5    1
     5     5     6    2
     6     6     7    1
     7     7     8    1
     8     8     9    1
     9     9    10    1
    10    10    11    1
    11    11    12    1
    12     6    13    1
    13    13    14    2
    14    14    15    1
    15    15    16    2
    16    16    17    1
    17    17    18    1
    18    18    19    1
    19    19    20    1
    20    20    21    1
    21    21    22    1
    22    22    23    1
    23    23    24    1
    24    23    25    1
    25    23    26    1
    26    17    27    2
    27     3    28    1
    28    28    29    1
    29    29    30    1
    30    29    31    1
    31    31    32    1
    32    32    33    1
    33    32     2    1
    34    27    13    1
@<TRIPOS>SUBSTRUCTURE
     1 RES1        1 GROUP             0 ****  ****    0  
@<TRIPOS>MOLECULE
ligand_65
    33    34     1     0     0
SMALL
NO_CHARGES
****
Generated from the CSD

@<TRIPOS>ATOM
     1 C1      -0.4916  42.6987  38.5375   C.2       1 RES1   0.0000
     2 C2      -1.4127  42.3602  39.4184   C.2       1 RES1   0.0000
     3 C3      -2.2883  41.1770  39.2698   C.2       1 RES1   0.0000
     4 C4      -1.8694  39.9192  38.9460   C.2       1 RES1   0.0000
     5 C5      -0.5284  39.4783  38.7456   C.2       1 RES1   0.0000
     6 C6      -0.0817  38.2358  38.4230   C.2       1 RES1   0.0000
     7 C7      -0.9370  37.0248  38.1843   C.3       1 RES1   0.0000
     8 C8      -1.0218  36.5479  36.7384   C.3       1 RES1   0.0000
     9 C9      -1.8983  35.3212  36.5513   C.3       1 RES1   0.0000
    10 C10     -1.9812  34.8478  35.1088   C.3       1 RES1   0.0000
    11 C11     -2.8477  33.6266  34.8894   C.3       1 RES1   0.0000
    12 C12     -2.8982  33.1958  33.4437   C.3       1 RES1   0.0000
    13 C13      1.3924  38.0873  38.3169   C.2       1 RES1   0.0000
    14 C14      2.0194  36.9327  38.7710   C.2       1 RES1   0.0000
    15 C15      3.3931  36.8085  38.6855   C.2       1 RES1   0.0000
    16 C16      4.1520  37.8317  38.1498   C.2       1 RES1   0.0000
    17 C17      3.5510  38.9932  37.6926   C.2       1 RES1   0.0000
    18 C18      4.3754  40.1296  37.1372   C.3       1 RES1   0.0000
    19 C19      4.6734  39.9968  35.6414   C.3       1 RES1   0.0000
    20 C20      3.4463  40.0720  34.7462   C.3       1 RES1   0.0000
    21 C21      3.7415  39.9402  33.2597   C.3       1 RES1   0.0000
    22 C22      2.4950  40.0188  32.3832   C.3       1 RES1   0.0000
    23 C23      2.7278  39.8928  30.8811   C.3       1 RES1   0.0000
    24 C24      3.6383  40.9979  30.3662   C.3       1 RES1   0.0000
    25 C25      1.4108  39.8839  30.1203   C.3       1 RES1   0.0000
    26 O26      3.3819  38.6323  30.6406   O.3       1 RES1   0.0000
    27 C27      2.1664  39.1106  37.7763   C.2       1 RES1   0.0000
    28 C28     -3.7711  41.4607  39.4407   C.3       1 RES1   0.0000
    29 C29     -4.0863  42.3157  40.6659   C.3       1 RES1   0.0000
    30 O30     -3.8702  41.5241  41.8364   O.3       1 RES1   0.0000
    31 C31     -3.2033  43.5604  40.6961   C.3       1 RES1   0.0000
    32 C32     -1.7171  43.2062  40.6520   C.3       1 RES1   0.0000
    33 O33     -0.8932  44.3648  40.7501   O.3       1 RES1   0.0000
@<TRIPOS>BOND
     1     1     2    2
     2     2     3    1
     3     3     4    2
     4     4     5    1
     5     5     6    2
     6     6     7    1
     7     7     8    1
     8     8     9    1
     9     9    10    1
    10    10    11    1
    11    11    12    1
    12     6    13    1
    13    13    14    2
    14    14    15    1
    15    15    16    2
    16    16    17    1
    17    17    18    1
    18    18    19    1
    19    19    20    1
    20    20    21    1
    21    21    22    1
    22    22    23    1
    23    23    24    1
    24    23    25    1
    25    23    26    1
    26    17    27    2
    27     3    28    1
    28    28    29    1
    29    29    30    1
    30    29    31    1
    31    31    32    1
    32    32    33    1
    33    32     2    1
    34    27    13    1
@<TRIPOS>SUBSTRUCTURE
     1 RES1        1 GROUP             0 ****  ****    0  
@<TRIPOS>MOLECULE
ligand_66
    33    34     1     0     0
SMALL
NO_CHARGES
****
Generated from the CSD

@<TRIPOS>ATOM
     1 C1      -0.4916  42.6987  38.5375   C.2       1 RES1   0.0000
     2 C2      -1.4127  42.3602  39.4184   C.2       1 RES1   0.0000
     3 C3      -2.2883  41.1770  39.2698   C.2       1 RES1   0.0000
     4 C4      -1.8694  39.9192  38.9460   C.2       1 RES1   0.0000
     5 C5      -0.5284  39.4783  38.7456   C.2       1 RES1   0.0000
     6 C6      -0.0817  38.2358  38.4230   C.2       1 RES1   0.0000
     7 C7      -0.9370  37.0248  38.1843   C.3       1 RES1   0.0000
     8 C8      -1.0218  36.5479  36.7384   C.3       1 RES1   0.0000
     9 C9      -1.8983  35.3212  36.5513   C.3       1 RES1   0.0000
    10 C10     -1.9812  34.8478  35.1088   C.3       1 RES1   0.0000
    11 C11     -2.8477  33.6266  34.8894   C.3       1 RES1   0.0000
    12 C12     -2.8982  33.1958  33.4437   C.3       1 RES1   0.0000
    13 C13      1.3924  38.0873  38.3169   C.2       1 RES1   0.0000
    14 C14      2.0194  36.9327  38.7710   C.2       1 RES1   0.0000
    15 C15      3.3931  36.8085  38.6855   C.2       1 RES1   0.0000
    16 C16      4.1520  37.8317  38.1498   C.2       1 RES1   0.0000
    17 C17      3.5510  38.9932  37.6926   C.2       1 RES1   0.0000
    18 C18      4.3754  40.1296  37.1372   C.3       1 RES1   0.0000
    19 C19      4.7470  41.1851  38.1820   C.3       1 RES1   0.0000
    20 C20      3.5624  41.9472  38.7554   C.3       1 RES1   0.0000
    21 C21      3.9308  42.9962  39.7937   C.3       1 RES1   0.0000
    22 C22      2.7258  43.7466  40.3535   C.3       1 RES1   0.0000
    23 C23      3.0325  44.8127  41.4003   C.3       1 RES1   0.0000
    24 C24      3.7200  44.2130  42.6180   C.3       1 RES1   0.0000
    25 C25      1.7720  45.5596  41.8087   C.3       1 RES1   0.0000
    26 O26      3.9346  45.7661  40.8073   O.3       1 RES1   0.0000
    27 C27      2.1664  39.1106  37.7763   C.2       1 RES1   0.0000
    28 C28     -3.7711  41.4607  39.4407   C.3       1 RES1   0.0000
    29 C29     -4.0863  42.3157  40.6659   C.3       1 RES1   0.0000
    30 O30     -3.8702  41.5241  41.8364   O.3       1 RES1   0.0000
    31 C31     -3.2033  43.5604  40.6961   C.3       1 RES1   0.0000
    32 C32     -1.7171  43.2062  40.6520   C.3       1 RES1   0.0000
    33 O33     -0.8932  44.3648  40.7501   O.3       1 RES1   0.0000
@<TRIPOS>BOND
     1     1     2    2
     2     2     3    1
     3     3     4    2
     4     4     5    1
     5     5     6    2
     6     6     7    1
     7     7     8    1
     8     8     9    1
     9     9    10    1
    10    10    11    1
    11    11    12    1
    12     6    13    1
    13    13    14    2
    14    14    15    1
    15    15    16    2
    16    16    17    1
    17    17    18    1
    18    18    19    1
    19    19    20    1
    20    20    21    1
    21    21    22    1
    22    22    23    1
    23    23    24    1
    24    23    25    1
    25    23    26    1
    26    17    27    2
    27     3    28    1
    28    28    29    1
    29    29    30    1
    30    29    31    1
    31    31    32    1
    32    32    33    1
    33    32     2    1
    34    27    13    1
@<TRIPOS>SUBSTRUCTURE
     1 RES1        1 GROUP             0 ****  ****    0  
@<TRIPOS>MOLECULE
ligand_67
    33    34     1     0     0
SMALL
NO_CHARGES
****
Generated from the CSD

@<TRIPOS>ATOM
     1 C1      -0.4916  42.6987  38.5375   C.2       1 RES1   0.0000
     2 C2      -1.4127  42.3602  39.4184   C.2       1 RES1   0.0000
     3 C3      -2.2883  41.1770  39.2698   C.2       1 RES1   0.0000
     4 C4      -1.8694  39.9192  38.9460   C.2       1 RES1   0.0000
     5 C5      -0.5284  39.4783  38.7456   C.2       1 RES1   0.0000
     6 C6      -0.0817  38.2358  38.4230   C.2       1 RES1   0.0000
     7 C7      -0.9370  37.0248  38.1843   C.3       1 RES1   0.0000
     8 C8      -1.0218  36.5479  36.7384   C.3       1 RES1   0.0000
     9 C9      -1.8983  35.3212  36.5513   C.3       1 RES1   0.0000
    10 C10     -1.9812  34.8478  35.1088   C.3       1 RES1   0.0000
    11 C11     -2.8477  33.6266  34.8894   C.3       1 RES1   0.0000
    12 C12     -2.8982  33.1958  33.4437   C.3       1 RES1   0.0000
    13 C13      1.3924  38.0873  38.3169   C.2       1 RES1   0.0000
    14 C14      2.0194  36.9327  38.7710   C.2       1 RES1   0.0000
    15 C15      3.3931  36.8085  38.6855   C.2       1 RES1   0.0000
    16 C16      4.1520  37.8317  38.1498   C.2       1 RES1   0.0000
    17 C17      3.5510  38.9932  37.6926   C.2       1 RES1   0.0000
    18 C18      4.3754  40.1296  37.1372   C.3       1 RES1   0.0000
    19 C19      4.7470  41.1851  38.1820   C.3       1 RES1   0.0000
    20 C20      5.6637  40.6821  39.2862   C.3       1 RES1   0.0000
    21 C21      6.0333  41.7304  40.3248   C.3       1 RES1   0.0000
    22 C22      6.9532  41.2015  41.4215   C.3       1 RES1   0.0000
    23 C23      7.3591  42.2079  42.4933   C.3       1 RES1   0.0000
    24 C24      8.1068  43.3884  41.8912   C.3       1 RES1   0.0000
    25 C25      8.1890  41.5454  43.5822   C.3       1 RES1   0.0000
    26 O26      6.1556  42.7111  43.1039   O.3       1 RES1   0.0000
    27 C27      2.1664  39.1106  37.7763   C.2       1 RES1   0.0000
    28 C28     -3.7711  41.4607  39.4407   C.3       1 RES1   0.0000
    29 C29     -4.0863  42.3157  40.6659   C.3       1 RES1   0.0000
    30 O30     -3.8702  41.5241  41.8364   O.3       1 RES1   0.0000
    31 C31     -3.2033  43.5604  40.6961   C.3       1 RES1   0.0000
    32 C32     -1.7171  43.2062  40.6520   C.3       1 RES1   0.0000
    33 O33     -0.8932  44.3648  40.7501   O.3       1 RES1   0.0000
@<TRIPOS>BOND
     1     1     2    2
     2     2     3    1
     3     3     4    2
     4     4     5    1
     5     5     6    2
     6     6     7    1
     7     7     8    1
     8     8     9    1
     9     9    10    1
    10    10    11    1
    11    11    12    1
    12     6    13    1
    13    13    14    2
    14    14    15    1
    15    15    16    2
    16    16    17    1
    17    17    18    1
    18    18    19    1
    19    19    20    1
    20    20    21    1
    21    21    22    1
    22    22    23    1
    23    23    24    1
    24    23    25    1
    25    23    26    1
    26    17    27    2
    27     3    28    1
    28    28    29    1
    29    29    30    1
    30    29    31    1
    31    31    32    1
    32    32    33    1
    33    32     2    1
    34    27    13    1
@<TRIPOS>SUBSTRUCTURE
     1 RES1        1 GROUP             0 ****  ****    0  
@<TRIPOS>MOLECULE
ligand_68
    33    34     1     0     0
SMALL
NO_CHARGES
****
Generated from the CSD

@<TRIPOS>ATOM
     1 C1       3.2588  39.5861  41.0906   C.2       1 RES1   0.0000
     2 C2       3.8017  38.5018  40.5727   C.2       1 RES1   0.0000
     3 C3       3.0441  37.2611  40.2981   C.2       1 RES1   0.0000
     4 C4       1.8435  37.1944  39.6528   C.2       1 RES1   0.0000
     5 C5       1.1130  38.2714  39.0700   C.2       1 RES1   0.0000
     6 C6      -0.0817  38.2358  38.4230   C.2       1 RES1   0.0000
     7 C7      -0.9239  37.0143  38.1911   C.3       1 RES1   0.0000
     8 C8      -0.7219  36.3147  36.8512   C.3       1 RES1   0.0000
     9 C9      -1.5957  35.0856  36.6673   C.3       1 RES1   0.0000
    10 C10     -1.3924  34.3900  35.3307   C.3       1 RES1   0.0000
    11 C11     -2.2491  33.1609  35.1170   C.3       1 RES1   0.0000
    12 C12     -2.0116  32.5065  33.7778   C.3       1 RES1   0.0000
    13 C13     -0.5687  39.5360  37.8953   C.2       1 RES1   0.0000
    14 C14     -1.2609  39.5937  36.6910   C.2       1 RES1   0.0000
    15 C15     -1.6957  40.8089  36.1970   C.2       1 RES1   0.0000
    16 C16     -1.4438  41.9741  36.8960   C.2       1 RES1   0.0000
    17 C17     -0.7541  41.9433  38.0971   C.2       1 RES1   0.0000
    18 C18     -0.4452  43.2149  38.8501   C.3       1 RES1   0.0000
    19 C19     -1.5653  43.6545  39.7965   C.3       1 RES1   0.0000
    20 C20     -2.8604  44.0437  39.1009   C.3       1 RES1   0.0000
    21 C21     -3.9741  44.4806  40.0406   C.3       1 RES1   0.0000
    22 C22     -5.2622  44.8657  39.3190   C.3       1 RES1   0.0000
    23 C23     -6.4166  45.3131  40.2099   C.3       1 RES1   0.0000
    24 C24     -6.8256  44.2154  41.1809   C.3       1 RES1   0.0000
    25 C25     -7.6074  45.7662  39.3791   C.3       1 RES1   0.0000
    26 O26     -5.9655  46.4420  40.9822   O.3       1 RES1   0.0000
    27 C27     -0.3231  40.7158  38.5925   C.2       1 RES1   0.0000
    28 C28      3.6726  35.9974  40.8605   C.3       1 RES1   0.0000
    29 C29      5.1685  35.8867  40.5747   C.3       1 RES1   0.0000
    30 O30      5.3436  35.6262  39.1802   O.3       1 RES1   0.0000
    31 C31      5.8891  37.1732  40.9692   C.3       1 RES1   0.0000
    32 C32      5.2946  38.3965  40.2717   C.3       1 RES1   0.0000
    33 O33      6.0118  39.5868  40.5869   O.3       1 RES1   0.0000
@<TRIPOS>BOND
     1     1     2    2
     2     2     3    1
     3     3     4    2
     4     4     5    1
     5     5     6    2
     6     6     7    1
     7     7     8    1
     8     8     9    1
     9     9    10    1
    10    10    11    1
    11    11    12    1
    12     6    13    1
    13    13    14    2
    14    14    15    1
    15    15    16    2
    16    16    17    1
    17    17    18    1
    18    18    19    1
    19    19    20    1
    20    20    21    1
    21    21    22    1
    22    22    23    1
    23    23    24    1
    24    23    25    1
    25    23    26    1
    26    17    27    2
    27     3    28    1
    28    28    29    1
    29    29    30    1
    30    29    31    1
    31    31    32    1
    32    32    33    1
    33    32     2    1
    34    27    13    1
@<TRIPOS>SUBSTRUCTURE
     1 RES1        1 GROUP             0 ****  ****    0  
@<TRIPOS>MOLECULE
ligand_69
    33    34     1     0     0
SMALL
NO_CHARGES
****
Generated from the CSD

@<TRIPOS>ATOM
     1 C1       3.2588  39.5861  41.0906   C.2       1 RES1   0.0000
     2 C2       3.8017  38.5018  40.5727   C.2       1 RES1   0.0000
     3 C3       3.0441  37.2611  40.2981   C.2       1 RES1   0.0000
     4 C4       1.8435  37.1944  39.6528   C.2       1 RES1   0.0000
     5 C5       1.1130  38.2714  39.0700   C.2       1 RES1   0.0000
     6 C6      -0.0817  38.2358  38.4230   C.2       1 RES1   0.0000
     7 C7      -0.9239  37.0143  38.1911   C.3       1 RES1   0.0000
     8 C8      -0.7219  36.3147  36.8512   C.3       1 RES1   0.0000
     9 C9      -1.5957  35.0856  36.6673   C.3       1 RES1   0.0000
    10 C10     -1.3924  34.3900  35.3307   C.3       1 RES1   0.0000
    11 C11     -2.2491  33.1609  35.1170   C.3       1 RES1   0.0000
    12 C12     -2.0116  32.5065  33.7778   C.3       1 RES1   0.0000
    13 C13     -0.5687  39.5360  37.8953   C.2       1 RES1   0.0000
    14 C14     -1.2609  39.5937  36.6910   C.2       1 RES1   0.0000
    15 C15     -1.6957  40.8089  36.1970   C.2       1 RES1   0.0000
    16 C16     -1.4438  41.9741  36.8960   C.2       1 RES1   0.0000
    17 C17     -0.7541  41.9433  38.0971   C.2       1 RES1   0.0000
    18 C18     -0.4452  43.2149  38.8501   C.3       1 RES1   0.0000
    19 C19     -1.5653  43.6545  39.7965   C.3       1 RES1   0.0000
    20 C20     -1.8267  42.6978  40.9495   C.3       1 RES1   0.0000
    21 C21     -2.9396  43.1339  41.8904   C.3       1 RES1   0.0000
    22 C22     -3.1824  42.1581  43.0382   C.3       1 RES1   0.0000
    23 C23     -4.2880  42.5419  44.0163   C.3       1 RES1   0.0000
    24 C24     -3.9942  43.8737  44.6908   C.3       1 RES1   0.0000
    25 C25     -4.5062  41.4511  45.0536   C.3       1 RES1   0.0000
    26 O26     -5.5095  42.6852  43.2667   O.3       1 RES1   0.0000
    27 C27     -0.3231  40.7158  38.5925   C.2       1 RES1   0.0000
    28 C28      3.6726  35.9974  40.8605   C.3       1 RES1   0.0000
    29 C29      5.1685  35.8867  40.5747   C.3       1 RES1   0.0000
    30 O30      5.3436  35.6262  39.1802   O.3       1 RES1   0.0000
    31 C31      5.8891  37.1732  40.9692   C.3       1 RES1   0.0000
    32 C32      5.2946  38.3965  40.2717   C.3       1 RES1   0.0000
    33 O33      6.0118  39.5868  40.5869   O.3       1 RES1   0.0000
@<TRIPOS>BOND
     1     1     2    2
     2     2     3    1
     3     3     4    2
     4     4     5    1
     5     5     6    2
     6     6     7    1
     7     7     8    1
     8     8     9    1
     9     9    10    1
    10    10    11    1
    11    11    12    1
    12     6    13    1
    13    13    14    2
    14    14    15    1
    15    15    16    2
    16    16    17    1
    17    17    18    1
    18    18    19    1
    19    19    20    1
    20    20    21    1
    21    21    22    1
    22    22    23    1
    23    23    24    1
    24    23    25    1
    25    23    26    1
    26    17    27    2
    27     3    28    1
    28    28    29    1
    29    29    30    1
    30    29    31    1
    31    31    32    1
    32    32    33    1
    33    32     2    1
    34    27    13    1
@<TRIPOS>SUBSTRUCTURE
     1 RES1        1 GROUP             0 ****  ****    0  
@<TRIPOS>MOLECULE
ligand_70
    33    34     1     0     0
SMALL
NO_CHARGES
****
Generated from the CSD

@<TRIPOS>ATOM
     1 C1       3.2597  39.5860  41.0896   C.2       1 RES1   0.0000
     2 C2       3.8023  38.5016  40.5716   C.2       1 RES1   0.0000
     3 C3       3.0444  37.2609  40.2974   C.2       1 RES1   0.0000
     4 C4       1.8437  37.1943  39.6524   C.2       1 RES1   0.0000
     5 C5       1.1132  38.2713  39.0697   C.2       1 RES1   0.0000
     6 C6      -0.0817  38.2358  38.4230   C.2       1 RES1   0.0000
     7 C7      -0.9240  37.0144  38.1914   C.3       1 RES1   0.0000
     8 C8      -0.9848  36.5144  36.7521   C.3       1 RES1   0.0000
     9 C9      -1.8489  35.2780  36.5720   C.3       1 RES1   0.0000
    10 C10     -1.9078  34.7815  35.1360   C.3       1 RES1   0.0000
    11 C11     -2.7615  33.5501  34.9238   C.3       1 RES1   0.0000
    12 C12     -2.7883  33.0965  33.4844   C.3       1 RES1   0.0000
    13 C13     -0.5687  39.5360  37.8953   C.2       1 RES1   0.0000
    14 C14      0.3207  40.4508  37.3433   C.2       1 RES1   0.0000
    15 C15     -0.1368  41.6660  36.8703   C.2       1 RES1   0.0000
    16 C16     -1.4805  41.9801  36.9445   C.2       1 RES1   0.0000
    17 C17     -2.3864  41.0863  37.4922   C.2       1 RES1   0.0000
    18 C18     -3.8508  41.4351  37.6081   C.3       1 RES1   0.0000
    19 C19     -4.6625  41.0974  36.3547   C.3       1 RES1   0.0000
    20 C20     -4.2766  41.8976  35.1205   C.3       1 RES1   0.0000
    21 C21     -5.0826  41.5626  33.8746   C.3       1 RES1   0.0000
    22 C22     -4.6768  42.3784  32.6505   C.3       1 RES1   0.0000
    23 C23     -5.4507  42.0865  31.3690   C.3       1 RES1   0.0000
    24 C24     -5.2900  40.6348  30.9424   C.3       1 RES1   0.0000
    25 C25     -5.0308  43.0252  30.2484   C.3       1 RES1   0.0000
    26 O26     -6.8472  42.3178  31.6351   O.3       1 RES1   0.0000
    27 C27     -1.9208  39.8616  37.9623   C.2       1 RES1   0.0000
    28 C28      3.6730  35.9972  40.8598   C.3       1 RES1   0.0000
    29 C29      5.1688  35.8864  40.5736   C.3       1 RES1   0.0000
    30 O30      5.3435  35.6257  39.1791   O.3       1 RES1   0.0000
    31 C31      5.8896  37.1729  40.9677   C.3       1 RES1   0.0000
    32 C32      5.2951  38.3961  40.2703   C.3       1 RES1   0.0000
    33 O33      6.0125  39.5863  40.5851   O.3       1 RES1   0.0000
@<TRIPOS>BOND
     1     1     2    2
     2     2     3    1
     3     3     4    2
     4     4     5    1
     5     5     6    2
     6     6     7    1
     7     7     8    1
     8     8     9    1
     9     9    10    1
    10    10    11    1
    11    11    12    1
    12     6    13    1
    13    13    14    2
    14    14    15    1
    15    15    16    2
    16    16    17    1
    17    17    18    1
    18    18    19    1
    19    19    20    1
    20    20    21    1
    21    21    22    1
    22    22    23    1
    23    23    24    1
    24    23    25    1
    25    23    26    1
    26    17    27    2
    27     3    28    1
    28    28    29    1
    29    29    30    1
    30    29    31    1
    31    31    32    1
    32    32    33    1
    33    32     2    1
    34    27    13    1
@<TRIPOS>SUBSTRUCTURE
     1 RES1        1 GROUP             0 ****  ****    0  
@<TRIPOS>MOLECULE
ligand_71
    33    34     1     0     0
SMALL
NO_CHARGES
****
Generated from the CSD

@<TRIPOS>ATOM
     1 C1       3.2597  39.5860  41.0896   C.2       1 RES1   0.0000
     2 C2       3.8023  38.5016  40.5716   C.2       1 RES1   0.0000
     3 C3       3.0444  37.2609  40.2974   C.2       1 RES1   0.0000
     4 C4       1.8437  37.1943  39.6524   C.2       1 RES1   0.0000
     5 C5       1.1132  38.2713  39.0697   C.2       1 RES1   0.0000
     6 C6      -0.0817  38.2358  38.4230   C.2       1 RES1   0.0000
     7 C7      -0.9240  37.0144  38.1914   C.3       1 RES1   0.0000
     8 C8      -0.9848  36.5144  36.7521   C.3       1 RES1   0.0000
     9 C9      -1.8489  35.2780  36.5720   C.3       1 RES1   0.0000
    10 C10     -1.9078  34.7815  35.1360   C.3       1 RES1   0.0000
    11 C11     -2.7615  33.5501  34.9238   C.3       1 RES1   0.0000
    12 C12     -2.7883  33.0965  33.4844   C.3       1 RES1   0.0000
    13 C13     -0.5687  39.5360  37.8953   C.2       1 RES1   0.0000
    14 C14      0.3207  40.4508  37.3433   C.2       1 RES1   0.0000
    15 C15     -0.1368  41.6660  36.8703   C.2       1 RES1   0.0000
    16 C16     -1.4805  41.9801  36.9445   C.2       1 RES1   0.0000
    17 C17     -2.3864  41.0863  37.4922   C.2       1 RES1   0.0000
    18 C18     -3.8508  41.4351  37.6081   C.3       1 RES1   0.0000
    19 C19     -4.6625  41.0974  36.3547   C.3       1 RES1   0.0000
    20 C20     -4.7481  39.6116  36.0419   C.3       1 RES1   0.0000
    21 C21     -5.5545  39.2751  34.7966   C.3       1 RES1   0.0000
    22 C22     -5.6255  37.7791  34.5043   C.3       1 RES1   0.0000
    23 C23     -6.4217  37.3794  33.2663   C.3       1 RES1   0.0000
    24 C24     -7.8722  37.8266  33.3713   C.3       1 RES1   0.0000
    25 C25     -6.3383  35.8807  33.0203   C.3       1 RES1   0.0000
    26 O26     -5.8346  38.0436  32.1312   O.3       1 RES1   0.0000
    27 C27     -1.9208  39.8616  37.9623   C.2       1 RES1   0.0000
    28 C28      3.6730  35.9972  40.8598   C.3       1 RES1   0.0000
    29 C29      5.1688  35.8864  40.5736   C.3       1 RES1   0.0000
    30 O30      5.3435  35.6257  39.1791   O.3       1 RES1   0.0000
    31 C31      5.8896  37.1729  40.9677   C.3       1 RES1   0.0000
    32 C32      5.2951  38.3961  40.2703   C.3       1 RES1   0.0000
    33 O33      6.0125  39.5863  40.5851   O.3       1 RES1   0.0000
@<TRIPOS>BOND
     1     1     2    2
     2     2     3    1
     3     3     4    2
     4     4     5    1
     5     5     6    2
     6     6     7    1
     7     7     8    1
     8     8     9    1
     9     9    10    1
    10    10    11    1
    11    11    12    1
    12     6    13    1
    13    13    14    2
    14    14    15    1
    15    15    16    2
    16    16    17    1
    17    17    18    1
    18    18    19    1
    19    19    20    1
    20    20    21    1
    21    21    22    1
    22    22    23    1
    23    23    24    1
    24    23    25    1
    25    23    26    1
    26    17    27    2
    27     3    28    1
    28    28    29    1
    29    29    30    1
    30    29    31    1
    31    31    32    1
    32    32    33    1
    33    32     2    1
    34    27    13    1
@<TRIPOS>SUBSTRUCTURE
     1 RES1        1 GROUP             0 ****  ****    0  
@<TRIPOS>MOLECULE
ligand_72
    33    34     1     0     0
SMALL
NO_CHARGES
****
Generated from the CSD

@<TRIPOS>ATOM
     1 C1      -0.4921  42.6988  38.5317   C.2       1 RES1   0.0000
     2 C2      -1.4130  42.3614  39.4131   C.2       1 RES1   0.0000
     3 C3      -2.2885  41.1779  39.2663   C.2       1 RES1   0.0000
     4 C4      -1.8695  39.9197  38.9441   C.2       1 RES1   0.0000
     5 C5      -0.5284  39.4787  38.7440   C.2       1 RES1   0.0000
     6 C6      -0.0817  38.2358  38.4230   C.2       1 RES1   0.0000
     7 C7      -0.9369  37.0244  38.1860   C.3       1 RES1   0.0000
     8 C8      -1.0219  36.5456  36.7407   C.3       1 RES1   0.0000
     9 C9      -1.8983  35.3186  36.5554   C.3       1 RES1   0.0000
    10 C10     -1.9813  34.8433  35.1135   C.3       1 RES1   0.0000
    11 C11     -2.8477  33.6217  34.8958   C.3       1 RES1   0.0000
    12 C12     -2.8984  33.1890  33.4506   C.3       1 RES1   0.0000
    13 C13      1.3924  38.0873  38.3169   C.2       1 RES1   0.0000
    14 C14      2.1652  39.1010  37.7621   C.2       1 RES1   0.0000
    15 C15      3.5342  38.9489  37.6503   C.2       1 RES1   0.0000
    16 C16      4.1431  37.7880  38.0876   C.2       1 RES1   0.0000
    17 C17      3.3946  36.7624  38.6419   C.2       1 RES1   0.0000
    18 C18      4.0475  35.4772  39.0910   C.3       1 RES1   0.0000
    19 C19      4.5748  35.5268  40.5274   C.3       1 RES1   0.0000
    20 C20      5.7103  36.5143  40.7471   C.3       1 RES1   0.0000
    21 C21      6.2348  36.5642  42.1742   C.3       1 RES1   0.0000
    22 C22      7.3730  37.5618  42.3689   C.3       1 RES1   0.0000
    23 C23      7.9412  37.6569  43.7811   C.3       1 RES1   0.0000
    24 C24      6.8750  38.0801  44.7808   C.3       1 RES1   0.0000
    25 C25      9.1307  38.6035  43.8316   C.3       1 RES1   0.0000
    26 O26      8.4066  36.3470  44.1581   O.3       1 RES1   0.0000
    27 C27      2.0167  36.9232  38.7569   C.2       1 RES1   0.0000
    28 C28     -3.7713  41.4617  39.4369   C.3       1 RES1   0.0000
    29 C29     -4.0864  42.3182  40.6611   C.3       1 RES1   0.0000
    30 O30     -3.8701  41.5283  41.8326   O.3       1 RES1   0.0000
    31 C31     -3.2035  43.5630  40.6896   C.3       1 RES1   0.0000
    32 C32     -1.7172  43.2090  40.6457   C.3       1 RES1   0.0000
    33 O33     -0.8935  44.3677  40.7422   O.3       1 RES1   0.0000
@<TRIPOS>BOND
     1     1     2    2
     2     2     3    1
     3     3     4    2
     4     4     5    1
     5     5     6    2
     6     6     7    1
     7     7     8    1
     8     8     9    1
     9     9    10    1
    10    10    11    1
    11    11    12    1
    12     6    13    1
    13    13    14    2
    14    14    15    1
    15    15    16    2
    16    16    17    1
    17    17    18    1
    18    18    19    1
    19    19    20    1
    20    20    21    1
    21    21    22    1
    22    22    23    1
    23    23    24    1
    24    23    25    1
    25    23    26    1
    26    17    27    2
    27     3    28    1
    28    28    29    1
    29    29    30    1
    30    29    31    1
    31    31    32    1
    32    32    33    1
    33    32     2    1
    34    27    13    1
@<TRIPOS>SUBSTRUCTURE
     1 RES1        1 GROUP             0 ****  ****    0  
@<TRIPOS>MOLECULE
ligand_73
    33    34     1     0     0
SMALL
NO_CHARGES
****
Generated from the CSD

@<TRIPOS>ATOM
     1 C1      -0.4921  42.6988  38.5317   C.2       1 RES1   0.0000
     2 C2      -1.4130  42.3614  39.4131   C.2       1 RES1   0.0000
     3 C3      -2.2885  41.1779  39.2663   C.2       1 RES1   0.0000
     4 C4      -1.8695  39.9197  38.9441   C.2       1 RES1   0.0000
     5 C5      -0.5284  39.4787  38.7440   C.2       1 RES1   0.0000
     6 C6      -0.0817  38.2358  38.4230   C.2       1 RES1   0.0000
     7 C7      -0.9369  37.0244  38.1860   C.3       1 RES1   0.0000
     8 C8      -1.0219  36.5456  36.7407   C.3       1 RES1   0.0000
     9 C9      -1.8983  35.3186  36.5554   C.3       1 RES1   0.0000
    10 C10     -1.9813  34.8433  35.1135   C.3       1 RES1   0.0000
    11 C11     -2.8477  33.6217  34.8958   C.3       1 RES1   0.0000
    12 C12     -2.8984  33.1890  33.4506   C.3       1 RES1   0.0000
    13 C13      1.3924  38.0873  38.3169   C.2       1 RES1   0.0000
    14 C14      2.1652  39.1010  37.7621   C.2       1 RES1   0.0000
    15 C15      3.5342  38.9489  37.6503   C.2       1 RES1   0.0000
    16 C16      4.1431  37.7880  38.0876   C.2       1 RES1   0.0000
    17 C17      3.3946  36.7624  38.6419   C.2       1 RES1   0.0000
    18 C18      4.0475  35.4772  39.0910   C.3       1 RES1   0.0000
    19 C19      4.5748  35.5268  40.5274   C.3       1 RES1   0.0000
    20 C20      3.4967  35.6838  41.5884   C.3       1 RES1   0.0000
    21 C21      4.0199  35.7332  43.0160   C.3       1 RES1   0.0000
    22 C22      2.9196  35.8910  44.0615   C.3       1 RES1   0.0000
    23 C23      3.3833  35.9468  45.5134   C.3       1 RES1   0.0000
    24 C24      4.1200  34.6759  45.9098   C.3       1 RES1   0.0000
    25 C25      2.2156  36.2060  46.4530   C.3       1 RES1   0.0000
    26 O26      4.3018  37.0490  45.6407   O.3       1 RES1   0.0000
    27 C27      2.0167  36.9232  38.7569   C.2       1 RES1   0.0000
    28 C28     -3.7713  41.4617  39.4369   C.3       1 RES1   0.0000
    29 C29     -4.0864  42.3182  40.6611   C.3       1 RES1   0.0000
    30 O30     -3.8701  41.5283  41.8326   O.3       1 RES1   0.0000
    31 C31     -3.2035  43.5630  40.6896   C.3       1 RES1   0.0000
    32 C32     -1.7172  43.2090  40.6457   C.3       1 RES1   0.0000
    33 O33     -0.8935  44.3677  40.7422   O.3       1 RES1   0.0000
@<TRIPOS>BOND
     1     1     2    2
     2     2     3    1
     3     3     4    2
     4     4     5    1
     5     5     6    2
     6     6     7    1
     7     7     8    1
     8     8     9    1
     9     9    10    1
    10    10    11    1
    11    11    12    1
    12     6    13    1
    13    13    14    2
    14    14    15    1
    15    15    16    2
    16    16    17    1
    17    17    18    1
    18    18    19    1
    19    19    20    1
    20    20    21    1
    21    21    22    1
    22    22    23    1
    23    23    24    1
    24    23    25    1
    25    23    26    1
    26    17    27    2
    27     3    28    1
    28    28    29    1
    29    29    30    1
    30    29    31    1
    31    31    32    1
    32    32    33    1
    33    32     2    1
    34    27    13    1
@<TRIPOS>SUBSTRUCTURE
     1 RES1        1 GROUP             0 ****  ****    0  
@<TRIPOS>MOLECULE
ligand_74
    33    34     1     0     0
SMALL
NO_CHARGES
****
Generated from the CSD

@<TRIPOS>ATOM
     1 C1       3.2493  39.5870  41.1019   C.2       1 RES1   0.0000
     2 C2       3.7951  38.5040  40.5843   C.2       1 RES1   0.0000
     3 C3       3.0398  37.2627  40.3059   C.2       1 RES1   0.0000
     4 C4       1.8413  37.1953  39.6570   C.2       1 RES1   0.0000
     5 C5       1.1112  38.2720  39.0733   C.2       1 RES1   0.0000
     6 C6      -0.0817  38.2358  38.4230   C.2       1 RES1   0.0000
     7 C7      -0.9219  37.0136  38.1875   C.3       1 RES1   0.0000
     8 C8      -0.7143  36.3147  36.8481   C.3       1 RES1   0.0000
     9 C9      -1.5878  35.0861  36.6597   C.3       1 RES1   0.0000
    10 C10     -1.3789  34.3912  35.3235   C.3       1 RES1   0.0000
    11 C11     -2.2353  33.1627  35.1053   C.3       1 RES1   0.0000
    12 C12     -1.9921  32.5089  33.7667   C.3       1 RES1   0.0000
    13 C13     -0.5687  39.5360  37.8953   C.2       1 RES1   0.0000
    14 C14     -1.2609  39.5937  36.6910   C.2       1 RES1   0.0000
    15 C15     -1.6957  40.8089  36.1970   C.2       1 RES1   0.0000
    16 C16     -1.4438  41.9741  36.8960   C.2       1 RES1   0.0000
    17 C17     -0.7541  41.9433  38.0971   C.2       1 RES1   0.0000
    18 C18     -0.4452  43.2149  38.8501   C.3       1 RES1   0.0000
    19 C19      0.9257  43.8082  38.5148   C.3       1 RES1   0.0000
    20 C20      2.1047  42.9405  38.9264   C.3       1 RES1   0.0000
    21 C21      3.4673  43.5293  38.5936   C.3       1 RES1   0.0000
    22 C22      4.6334  42.6404  39.0163   C.3       1 RES1   0.0000
    23 C23      6.0269  43.1785  38.7085   C.3       1 RES1   0.0000
    24 C24      6.2209  43.3942  37.2148   C.3       1 RES1   0.0000
    25 C25      7.1049  42.2599  39.2629   C.3       1 RES1   0.0000
    26 O26      6.1604  44.4555  39.3611   O.3       1 RES1   0.0000
    27 C27     -0.3231  40.7158  38.5925   C.2       1 RES1   0.0000
    28 C28      3.6683  35.9991  40.8688   C.3       1 RES1   0.0000
    29 C29      5.1651  35.8906  40.5873   C.3       1 RES1   0.0000
    30 O30      5.3447  35.6320  39.1930   O.3       1 RES1   0.0000
    31 C31      5.8829  37.1776  40.9854   C.3       1 RES1   0.0000
    32 C32      5.2890  38.4009  40.2877   C.3       1 RES1   0.0000
    33 O33      6.0038  39.5917  40.6064   O.3       1 RES1   0.0000
@<TRIPOS>BOND
     1     1     2    2
     2     2     3    1
     3     3     4    2
     4     4     5    1
     5     5     6    2
     6     6     7    1
     7     7     8    1
     8     8     9    1
     9     9    10    1
    10    10    11    1
    11    11    12    1
    12     6    13    1
    13    13    14    2
    14    14    15    1
    15    15    16    2
    16    16    17    1
    17    17    18    1
    18    18    19    1
    19    19    20    1
    20    20    21    1
    21    21    22    1
    22    22    23    1
    23    23    24    1
    24    23    25    1
    25    23    26    1
    26    17    27    2
    27     3    28    1
    28    28    29    1
    29    29    30    1
    30    29    31    1
    31    31    32    1
    32    32    33    1
    33    32     2    1
    34    27    13    1
@<TRIPOS>SUBSTRUCTURE
     1 RES1        1 GROUP             0 ****  ****    0  
@<TRIPOS>MOLECULE
ligand_75
    33    34     1     0     0
SMALL
NO_CHARGES
****
Generated from the CSD

@<TRIPOS>ATOM
     1 C1       3.2588  39.5861  41.0906   C.2       1 RES1   0.0000
     2 C2       3.8017  38.5018  40.5727   C.2       1 RES1   0.0000
     3 C3       3.0441  37.2611  40.2981   C.2       1 RES1   0.0000
     4 C4       1.8435  37.1944  39.6528   C.2       1 RES1   0.0000
     5 C5       1.1130  38.2714  39.0700   C.2       1 RES1   0.0000
     6 C6      -0.0817  38.2358  38.4230   C.2       1 RES1   0.0000
     7 C7      -0.9239  37.0143  38.1911   C.3       1 RES1   0.0000
     8 C8      -0.7219  36.3147  36.8512   C.3       1 RES1   0.0000
     9 C9      -1.5957  35.0856  36.6673   C.3       1 RES1   0.0000
    10 C10     -1.3924  34.3900  35.3307   C.3       1 RES1   0.0000
    11 C11     -2.2491  33.1609  35.1170   C.3       1 RES1   0.0000
    12 C12     -2.0116  32.5065  33.7778   C.3       1 RES1   0.0000
    13 C13     -0.5687  39.5360  37.8953   C.2       1 RES1   0.0000
    14 C14     -1.2609  39.5937  36.6910   C.2       1 RES1   0.0000
    15 C15     -1.6957  40.8089  36.1970   C.2       1 RES1   0.0000
    16 C16     -1.4438  41.9741  36.8960   C.2       1 RES1   0.0000
    17 C17     -0.7541  41.9433  38.0971   C.2       1 RES1   0.0000
    18 C18     -0.4452  43.2149  38.8501   C.3       1 RES1   0.0000
    19 C19      0.9259  43.8079  38.5151   C.3       1 RES1   0.0000
    20 C20      1.0709  44.2859  37.0788   C.3       1 RES1   0.0000
    21 C21      2.4330  44.8753  36.7451   C.3       1 RES1   0.0000
    22 C22      2.5534  45.3473  35.2989   C.3       1 RES1   0.0000
    23 C23      3.8983  45.9486  34.9042   C.3       1 RES1   0.0000
    24 C24      4.2260  47.1743  35.7441   C.3       1 RES1   0.0000
    25 C25      3.9340  46.2881  33.4220   C.3       1 RES1   0.0000
    26 O26      4.9139  44.9578  35.1519   O.3       1 RES1   0.0000
    27 C27     -0.3231  40.7158  38.5925   C.2       1 RES1   0.0000
    28 C28      3.6726  35.9974  40.8605   C.3       1 RES1   0.0000
    29 C29      5.1685  35.8867  40.5747   C.3       1 RES1   0.0000
    30 O30      5.3436  35.6262  39.1802   O.3       1 RES1   0.0000
    31 C31      5.8891  37.1732  40.9692   C.3       1 RES1   0.0000
    32 C32      5.2946  38.3965  40.2717   C.3       1 RES1   0.0000
    33 O33      6.0118  39.5868  40.5869   O.3       1 RES1   0.0000
@<TRIPOS>BOND
     1     1     2    2
     2     2     3    1
     3     3     4    2
     4     4     5    1
     5     5     6    2
     6     6     7    1
     7     7     8    1
     8     8     9    1
     9     9    10    1
    10    10    11    1
    11    11    12    1
    12     6    13    1
    13    13    14    2
    14    14    15    1
    15    15    16    2
    16    16    17    1
    17    17    18    1
    18    18    19    1
    19    19    20    1
    20    20    21    1
    21    21    22    1
    22    22    23    1
    23    23    24    1
    24    23    25    1
    25    23    26    1
    26    17    27    2
    27     3    28    1
    28    28    29    1
    29    29    30    1
    30    29    31    1
    31    31    32    1
    32    32    33    1
    33    32     2    1
    34    27    13    1
@<TRIPOS>SUBSTRUCTURE
     1 RES1        1 GROUP             0 ****  ****    0  
@<TRIPOS>MOLECULE
ligand_76
    33    34     1     0     0
SMALL
NO_CHARGES
****
Generated from the CSD

@<TRIPOS>ATOM
     1 C1       3.2597  39.5860  41.0896   C.2       1 RES1   0.0000
     2 C2       3.8023  38.5016  40.5716   C.2       1 RES1   0.0000
     3 C3       3.0444  37.2609  40.2974   C.2       1 RES1   0.0000
     4 C4       1.8437  37.1943  39.6524   C.2       1 RES1   0.0000
     5 C5       1.1132  38.2713  39.0697   C.2       1 RES1   0.0000
     6 C6      -0.0817  38.2358  38.4230   C.2       1 RES1   0.0000
     7 C7      -0.9240  37.0144  38.1914   C.3       1 RES1   0.0000
     8 C8      -0.9848  36.5144  36.7521   C.3       1 RES1   0.0000
     9 C9      -1.8489  35.2780  36.5720   C.3       1 RES1   0.0000
    10 C10     -1.9078  34.7815  35.1360   C.3       1 RES1   0.0000
    11 C11     -2.7615  33.5501  34.9238   C.3       1 RES1   0.0000
    12 C12     -2.7883  33.0965  33.4844   C.3       1 RES1   0.0000
    13 C13     -0.5687  39.5360  37.8953   C.2       1 RES1   0.0000
    14 C14      0.3207  40.4508  37.3433   C.2       1 RES1   0.0000
    15 C15     -0.1368  41.6660  36.8703   C.2       1 RES1   0.0000
    16 C16     -1.4805  41.9801  36.9445   C.2       1 RES1   0.0000
    17 C17     -2.3864  41.0863  37.4922   C.2       1 RES1   0.0000
    18 C18     -3.8508  41.4351  37.6081   C.3       1 RES1   0.0000
    19 C19     -4.2283  42.0561  38.9555   C.3       1 RES1   0.0000
    20 C20     -4.0630  41.1246  40.1461   C.3       1 RES1   0.0000
    21 C21     -4.4379  41.7409  41.4855   C.3       1 RES1   0.0000
    22 C22     -4.2635  40.7869  42.6636   C.3       1 RES1   0.0000
    23 C23     -4.6241  41.3490  44.0349   C.3       1 RES1   0.0000
    24 C24     -3.7684  42.5586  44.3812   C.3       1 RES1   0.0000
    25 C25     -4.5078  40.2826  45.1132   C.3       1 RES1   0.0000
    26 O26     -5.9983  41.7776  43.9882   O.3       1 RES1   0.0000
    27 C27     -1.9208  39.8616  37.9623   C.2       1 RES1   0.0000
    28 C28      3.6730  35.9972  40.8598   C.3       1 RES1   0.0000
    29 C29      5.1688  35.8864  40.5736   C.3       1 RES1   0.0000
    30 O30      5.3435  35.6257  39.1791   O.3       1 RES1   0.0000
    31 C31      5.8896  37.1729  40.9677   C.3       1 RES1   0.0000
    32 C32      5.2951  38.3961  40.2703   C.3       1 RES1   0.0000
    33 O33      6.0125  39.5863  40.5851   O.3       1 RES1   0.0000
@<TRIPOS>BOND
     1     1     2    2
     2     2     3    1
     3     3     4    2
     4     4     5    1
     5     5     6    2
     6     6     7    1
     7     7     8    1
     8     8     9    1
     9     9    10    1
    10    10    11    1
    11    11    12    1
    12     6    13    1
    13    13    14    2
    14    14    15    1
    15    15    16    2
    16    16    17    1
    17    17    18    1
    18    18    19    1
    19    19    20    1
    20    20    21    1
    21    21    22    1
    22    22    23    1
    23    23    24    1
    24    23    25    1
    25    23    26    1
    26    17    27    2
    27     3    28    1
    28    28    29    1
    29    29    30    1
    30    29    31    1
    31    31    32    1
    32    32    33    1
    33    32     2    1
    34    27    13    1
@<TRIPOS>SUBSTRUCTURE
     1 RES1        1 GROUP             0 ****  ****    0  
@<TRIPOS>MOLECULE
ligand_77
    33    34     1     0     0
SMALL
NO_CHARGES
****
Generated from the CSD

@<TRIPOS>ATOM
     1 C1       3.2597  39.5860  41.0896   C.2       1 RES1   0.0000
     2 C2       3.8023  38.5016  40.5716   C.2       1 RES1   0.0000
     3 C3       3.0444  37.2609  40.2974   C.2       1 RES1   0.0000
     4 C4       1.8437  37.1943  39.6524   C.2       1 RES1   0.0000
     5 C5       1.1132  38.2713  39.0697   C.2       1 RES1   0.0000
     6 C6      -0.0817  38.2358  38.4230   C.2       1 RES1   0.0000
     7 C7      -0.9240  37.0144  38.1914   C.3       1 RES1   0.0000
     8 C8      -0.9848  36.5144  36.7521   C.3       1 RES1   0.0000
     9 C9      -1.8489  35.2780  36.5720   C.3       1 RES1   0.0000
    10 C10     -1.9078  34.7815  35.1360   C.3       1 RES1   0.0000
    11 C11     -2.7615  33.5501  34.9238   C.3       1 RES1   0.0000
    12 C12     -2.7883  33.0965  33.4844   C.3       1 RES1   0.0000
    13 C13     -0.5687  39.5360  37.8953   C.2       1 RES1   0.0000
    14 C14      0.3207  40.4508  37.3433   C.2       1 RES1   0.0000
    15 C15     -0.1368  41.6660  36.8703   C.2       1 RES1   0.0000
    16 C16     -1.4805  41.9801  36.9445   C.2       1 RES1   0.0000
    17 C17     -2.3864  41.0863  37.4922   C.2       1 RES1   0.0000
    18 C18     -3.8508  41.4351  37.6081   C.3       1 RES1   0.0000
    19 C19     -4.2283  42.0561  38.9555   C.3       1 RES1   0.0000
    20 C20     -3.5914  43.4106  39.2247   C.3       1 RES1   0.0000
    21 C21     -3.9660  44.0283  40.5635   C.3       1 RES1   0.0000
    22 C22     -3.3147  45.3861  40.8099   C.3       1 RES1   0.0000
    23 C23     -3.6530  46.0561  42.1376   C.3       1 RES1   0.0000
    24 C24     -5.1478  46.3104  42.2658   C.3       1 RES1   0.0000
    25 C25     -2.8713  47.3487  42.3151   C.3       1 RES1   0.0000
    26 O26     -3.2642  45.1594  43.1956   O.3       1 RES1   0.0000
    27 C27     -1.9208  39.8616  37.9623   C.2       1 RES1   0.0000
    28 C28      3.6730  35.9972  40.8598   C.3       1 RES1   0.0000
    29 C29      5.1688  35.8864  40.5736   C.3       1 RES1   0.0000
    30 O30      5.3435  35.6257  39.1791   O.3       1 RES1   0.0000
    31 C31      5.8896  37.1729  40.9677   C.3       1 RES1   0.0000
    32 C32      5.2951  38.3961  40.2703   C.3       1 RES1   0.0000
    33 O33      6.0125  39.5863  40.5851   O.3       1 RES1   0.0000
@<TRIPOS>BOND
     1     1     2    2
     2     2     3    1
     3     3     4    2
     4     4     5    1
     5     5     6    2
     6     6     7    1
     7     7     8    1
     8     8     9    1
     9     9    10    1
    10    10    11    1
    11    11    12    1
    12     6    13    1
    13    13    14    2
    14    14    15    1
    15    15    16    2
    16    16    17    1
    17    17    18    1
    18    18    19    1
    19    19    20    1
    20    20    21    1
    21    21    22    1
    22    22    23    1
    23    23    24    1
    24    23    25    1
    25    23    26    1
    26    17    27    2
    27     3    28    1
    28    28    29    1
    29    29    30    1
    30    29    31    1
    31    31    32    1
    32    32    33    1
    33    32     2    1
    34    27    13    1
@<TRIPOS>SUBSTRUCTURE
     1 RES1        1 GROUP             0 ****  ****    0  
@<TRIPOS>MOLECULE
ligand_78
    33    34     1     0     0
SMALL
NO_CHARGES
****
Generated from the CSD

@<TRIPOS>ATOM
     1 C1      -0.4921  42.6988  38.5317   C.2       1 RES1   0.0000
     2 C2      -1.4130  42.3614  39.4131   C.2       1 RES1   0.0000
     3 C3      -2.2885  41.1779  39.2663   C.2       1 RES1   0.0000
     4 C4      -1.8695  39.9197  38.9441   C.2       1 RES1   0.0000
     5 C5      -0.5284  39.4787  38.7440   C.2       1 RES1   0.0000
     6 C6      -0.0817  38.2358  38.4230   C.2       1 RES1   0.0000
     7 C7      -0.9369  37.0244  38.1860   C.3       1 RES1   0.0000
     8 C8      -1.0219  36.5456  36.7407   C.3       1 RES1   0.0000
     9 C9      -1.8983  35.3186  36.5554   C.3       1 RES1   0.0000
    10 C10     -1.9813  34.8433  35.1135   C.3       1 RES1   0.0000
    11 C11     -2.8477  33.6217  34.8958   C.3       1 RES1   0.0000
    12 C12     -2.8984  33.1890  33.4506   C.3       1 RES1   0.0000
    13 C13      1.3924  38.0873  38.3169   C.2       1 RES1   0.0000
    14 C14      2.1652  39.1010  37.7621   C.2       1 RES1   0.0000
    15 C15      3.5342  38.9489  37.6503   C.2       1 RES1   0.0000
    16 C16      4.1431  37.7880  38.0876   C.2       1 RES1   0.0000
    17 C17      3.3946  36.7624  38.6419   C.2       1 RES1   0.0000
    18 C18      4.0475  35.4772  39.0910   C.3       1 RES1   0.0000
    19 C19      4.0503  34.3840  38.0192   C.3       1 RES1   0.0000
    20 C20      2.6690  33.8803  37.6305   C.3       1 RES1   0.0000
    21 C21      2.6709  32.7940  36.5655   C.3       1 RES1   0.0000
    22 C22      1.2741  32.3056  36.1929   C.3       1 RES1   0.0000
    23 C23      1.2117  31.2149  35.1286   C.3       1 RES1   0.0000
    24 C24      1.8248  31.6836  33.8173   C.3       1 RES1   0.0000
    25 C25     -0.2168  30.7389  34.9136   C.3       1 RES1   0.0000
    26 O26      1.9815  30.0932  35.6013   O.3       1 RES1   0.0000
    27 C27      2.0167  36.9232  38.7569   C.2       1 RES1   0.0000
    28 C28     -3.7713  41.4617  39.4369   C.3       1 RES1   0.0000
    29 C29     -4.0864  42.3182  40.6611   C.3       1 RES1   0.0000
    30 O30     -3.8701  41.5283  41.8326   O.3       1 RES1   0.0000
    31 C31     -3.2035  43.5630  40.6896   C.3       1 RES1   0.0000
    32 C32     -1.7172  43.2090  40.6457   C.3       1 RES1   0.0000
    33 O33     -0.8935  44.3677  40.7422   O.3       1 RES1   0.0000
@<TRIPOS>BOND
     1     1     2    2
     2     2     3    1
     3     3     4    2
     4     4     5    1
     5     5     6    2
     6     6     7    1
     7     7     8    1
     8     8     9    1
     9     9    10    1
    10    10    11    1
    11    11    12    1
    12     6    13    1
    13    13    14    2
    14    14    15    1
    15    15    16    2
    16    16    17    1
    17    17    18    1
    18    18    19    1
    19    19    20    1
    20    20    21    1
    21    21    22    1
    22    22    23    1
    23    23    24    1
    24    23    25    1
    25    23    26    1
    26    17    27    2
    27     3    28    1
    28    28    29    1
    29    29    30    1
    30    29    31    1
    31    31    32    1
    32    32    33    1
    33    32     2    1
    34    27    13    1
@<TRIPOS>SUBSTRUCTURE
     1 RES1        1 GROUP             0 ****  ****    0  
@<TRIPOS>MOLECULE
ligand_79
    33    34     1     0     0
SMALL
NO_CHARGES
****
Generated from the CSD

@<TRIPOS>ATOM
     1 C1      -0.4921  42.6988  38.5317   C.2       1 RES1   0.0000
     2 C2      -1.4130  42.3614  39.4131   C.2       1 RES1   0.0000
     3 C3      -2.2885  41.1779  39.2663   C.2       1 RES1   0.0000
     4 C4      -1.8695  39.9197  38.9441   C.2       1 RES1   0.0000
     5 C5      -0.5284  39.4787  38.7440   C.2       1 RES1   0.0000
     6 C6      -0.0817  38.2358  38.4230   C.2       1 RES1   0.0000
     7 C7      -0.9369  37.0244  38.1860   C.3       1 RES1   0.0000
     8 C8      -1.0219  36.5456  36.7407   C.3       1 RES1   0.0000
     9 C9      -1.8983  35.3186  36.5554   C.3       1 RES1   0.0000
    10 C10     -1.9813  34.8433  35.1135   C.3       1 RES1   0.0000
    11 C11     -2.8477  33.6217  34.8958   C.3       1 RES1   0.0000
    12 C12     -2.8984  33.1890  33.4506   C.3       1 RES1   0.0000
    13 C13      1.3924  38.0873  38.3169   C.2       1 RES1   0.0000
    14 C14      2.1652  39.1010  37.7621   C.2       1 RES1   0.0000
    15 C15      3.5342  38.9489  37.6503   C.2       1 RES1   0.0000
    16 C16      4.1431  37.7880  38.0876   C.2       1 RES1   0.0000
    17 C17      3.3946  36.7624  38.6419   C.2       1 RES1   0.0000
    18 C18      4.0475  35.4772  39.0910   C.3       1 RES1   0.0000
    19 C19      4.0503  34.3840  38.0192   C.3       1 RES1   0.0000
    20 C20      4.8826  34.7108  36.7892   C.3       1 RES1   0.0000
    21 C21      4.8859  33.6250  35.7237   C.3       1 RES1   0.0000
    22 C22      5.7275  33.9765  34.5003   C.3       1 RES1   0.0000
    23 C23      5.7696  32.9249  33.3963   C.3       1 RES1   0.0000
    24 C24      6.3459  31.6111  33.9031   C.3       1 RES1   0.0000
    25 C25      6.5515  33.4251  32.1914   C.3       1 RES1   0.0000
    26 O26      4.4160  32.6793  32.9697   O.3       1 RES1   0.0000
    27 C27      2.0167  36.9232  38.7569   C.2       1 RES1   0.0000
    28 C28     -3.7713  41.4617  39.4369   C.3       1 RES1   0.0000
    29 C29     -4.0864  42.3182  40.6611   C.3       1 RES1   0.0000
    30 O30     -3.8701  41.5283  41.8326   O.3       1 RES1   0.0000
    31 C31     -3.2035  43.5630  40.6896   C.3       1 RES1   0.0000
    32 C32     -1.7172  43.2090  40.6457   C.3       1 RES1   0.0000
    33 O33     -0.8935  44.3677  40.7422   O.3       1 RES1   0.0000
@<TRIPOS>BOND
     1     1     2    2
     2     2     3    1
     3     3     4    2
     4     4     5    1
     5     5     6    2
     6     6     7    1
     7     7     8    1
     8     8     9    1
     9     9    10    1
    10    10    11    1
    11    11    12    1
    12     6    13    1
    13    13    14    2
    14    14    15    1
    15    15    16    2
    16    16    17    1
    17    17    18    1
    18    18    19    1
    19    19    20    1
    20    20    21    1
    21    21    22    1
    22    22    23    1
    23    23    24    1
    24    23    25    1
    25    23    26    1
    26    17    27    2
    27     3    28    1
    28    28    29    1
    29    29    30    1
    30    29    31    1
    31    31    32    1
    32    32    33    1
    33    32     2    1
    34    27    13    1
@<TRIPOS>SUBSTRUCTURE
     1 RES1        1 GROUP             0 ****  ****    0  
@<TRIPOS>MOLECULE
ligand_80
    33    34     1     0     0
SMALL
NO_CHARGES
****
Generated from the CSD

@<TRIPOS>ATOM
     1 C1      -0.4978  42.6995  38.4515   C.2       1 RES1   0.0000
     2 C2      -1.4166  42.3769  39.3406   C.2       1 RES1   0.0000
     3 C3      -2.2908  41.1898  39.2169   C.2       1 RES1   0.0000
     4 C4      -1.8708  39.9266  38.9168   C.2       1 RES1   0.0000
     5 C5      -0.5295  39.4837  38.7223   C.2       1 RES1   0.0000
     6 C6      -0.0817  38.2358  38.4230   C.2       1 RES1   0.0000
     7 C7      -0.9357  37.0192  38.2095   C.3       1 RES1   0.0000
     8 C8      -1.2891  36.7035  36.7601   C.3       1 RES1   0.0000
     9 C9      -2.1634  35.4715  36.6001   C.3       1 RES1   0.0000
    10 C10     -2.5143  35.1589  35.1540   C.3       1 RES1   0.0000
    11 C11     -3.3851  33.9363  34.9613   C.3       1 RES1   0.0000
    12 C12     -3.7056  33.6678  33.5109   C.3       1 RES1   0.0000
    13 C13      1.3924  38.0873  38.3169   C.2       1 RES1   0.0000
    14 C14      2.2353  38.7919  39.1688   C.2       1 RES1   0.0000
    15 C15      3.6063  38.6626  39.0529   C.2       1 RES1   0.0000
    16 C16      4.1478  37.8338  38.0888   C.2       1 RES1   0.0000
    17 C17      3.3291  37.1229  37.2265   C.2       1 RES1   0.0000
    18 C18      3.9127  36.2415  36.1484   C.3       1 RES1   0.0000
    19 C19      4.2223  34.8186  36.6209   C.3       1 RES1   0.0000
    20 C20      5.3099  34.7299  37.6802   C.3       1 RES1   0.0000
    21 C21      5.6181  33.3163  38.1502   C.3       1 RES1   0.0000
    22 C22      6.7120  33.2539  39.2123   C.3       1 RES1   0.0000
    23 C23      7.0655  31.8610  39.7234   C.3       1 RES1   0.0000
    24 C24      5.8622  31.1820  40.3608   C.3       1 RES1   0.0000
    25 C25      8.2315  31.9137  40.6987   C.3       1 RES1   0.0000
    26 O26      7.4744  31.0674  38.5932   O.3       1 RES1   0.0000
    27 C27      1.9487  37.2528  37.3512   C.2       1 RES1   0.0000
    28 C28     -3.7737  41.4748  39.3851   C.3       1 RES1   0.0000
    29 C29     -4.0877  42.3530  40.5941   C.3       1 RES1   0.0000
    30 O30     -3.8682  41.5847  41.7793   O.3       1 RES1   0.0000
    31 C31     -3.2064  43.5993  40.5983   C.3       1 RES1   0.0000
    32 C32     -1.7198  43.2464  40.5581   C.3       1 RES1   0.0000
    33 O33     -0.8974  44.4077  40.6321   O.3       1 RES1   0.0000
@<TRIPOS>BOND
     1     1     2    2
     2     2     3    1
     3     3     4    2
     4     4     5    1
     5     5     6    2
     6     6     7    1
     7     7     8    1
     8     8     9    1
     9     9    10    1
    10    10    11    1
    11    11    12    1
    12     6    13    1
    13    13    14    2
    14    14    15    1
    15    15    16    2
    16    16    17    1
    17    17    18    1
    18    18    19    1
    19    19    20    1
    20    20    21    1
    21    21    22    1
    22    22    23    1
    23    23    24    1
    24    23    25    1
    25    23    26    1
    26    17    27    2
    27     3    28    1
    28    28    29    1
    29    29    30    1
    30    29    31    1
    31    31    32    1
    32    32    33    1
    33    32     2    1
    34    27    13    1
@<TRIPOS>SUBSTRUCTURE
     1 RES1        1 GROUP             0 ****  ****    0  
@<TRIPOS>MOLECULE
ligand_81
    33    34     1     0     0
SMALL
NO_CHARGES
****
Generated from the CSD

@<TRIPOS>ATOM
     1 C1      -0.4978  42.6995  38.4515   C.2       1 RES1   0.0000
     2 C2      -1.4166  42.3769  39.3406   C.2       1 RES1   0.0000
     3 C3      -2.2908  41.1898  39.2169   C.2       1 RES1   0.0000
     4 C4      -1.8708  39.9266  38.9168   C.2       1 RES1   0.0000
     5 C5      -0.5295  39.4837  38.7223   C.2       1 RES1   0.0000
     6 C6      -0.0817  38.2358  38.4230   C.2       1 RES1   0.0000
     7 C7      -0.9357  37.0192  38.2095   C.3       1 RES1   0.0000
     8 C8      -1.2891  36.7035  36.7601   C.3       1 RES1   0.0000
     9 C9      -2.1634  35.4715  36.6001   C.3       1 RES1   0.0000
    10 C10     -2.5143  35.1589  35.1540   C.3       1 RES1   0.0000
    11 C11     -3.3851  33.9363  34.9613   C.3       1 RES1   0.0000
    12 C12     -3.7056  33.6678  33.5109   C.3       1 RES1   0.0000
    13 C13      1.3924  38.0873  38.3169   C.2       1 RES1   0.0000
    14 C14      2.2353  38.7919  39.1688   C.2       1 RES1   0.0000
    15 C15      3.6063  38.6626  39.0529   C.2       1 RES1   0.0000
    16 C16      4.1478  37.8338  38.0888   C.2       1 RES1   0.0000
    17 C17      3.3291  37.1229  37.2265   C.2       1 RES1   0.0000
    18 C18      3.9127  36.2415  36.1484   C.3       1 RES1   0.0000
    19 C19      4.2223  34.8186  36.6209   C.3       1 RES1   0.0000
    20 C20      2.9992  34.0077  37.0196   C.3       1 RES1   0.0000
    21 C21      3.3060  32.5937  37.4892   C.3       1 RES1   0.0000
    22 C22      2.0631  31.8010  37.8833   C.3       1 RES1   0.0000
    23 C23      2.3075  30.3740  38.3632   C.3       1 RES1   0.0000
    24 C24      2.9818  29.5349  37.2878   C.3       1 RES1   0.0000
    25 C25      1.0133  29.7199  38.8219   C.3       1 RES1   0.0000
    26 O26      3.1937  30.4359  39.4969   O.3       1 RES1   0.0000
    27 C27      1.9487  37.2528  37.3512   C.2       1 RES1   0.0000
    28 C28     -3.7737  41.4748  39.3851   C.3       1 RES1   0.0000
    29 C29     -4.0877  42.3530  40.5941   C.3       1 RES1   0.0000
    30 O30     -3.8682  41.5847  41.7793   O.3       1 RES1   0.0000
    31 C31     -3.2064  43.5993  40.5983   C.3       1 RES1   0.0000
    32 C32     -1.7198  43.2464  40.5581   C.3       1 RES1   0.0000
    33 O33     -0.8974  44.4077  40.6321   O.3       1 RES1   0.0000
@<TRIPOS>BOND
     1     1     2    2
     2     2     3    1
     3     3     4    2
     4     4     5    1
     5     5     6    2
     6     6     7    1
     7     7     8    1
     8     8     9    1
     9     9    10    1
    10    10    11    1
    11    11    12    1
    12     6    13    1
    13    13    14    2
    14    14    15    1
    15    15    16    2
    16    16    17    1
    17    17    18    1
    18    18    19    1
    19    19    20    1
    20    20    21    1
    21    21    22    1
    22    22    23    1
    23    23    24    1
    24    23    25    1
    25    23    26    1
    26    17    27    2
    27     3    28    1
    28    28    29    1
    29    29    30    1
    30    29    31    1
    31    31    32    1
    32    32    33    1
    33    32     2    1
    34    27    13    1
@<TRIPOS>SUBSTRUCTURE
     1 RES1        1 GROUP             0 ****  ****    0  
@<TRIPOS>MOLECULE
ligand_82
    33    34     1     0     0
SMALL
NO_CHARGES
****
Generated from the CSD

@<TRIPOS>ATOM
     1 C1      -0.4978  42.6995  38.4515   C.2       1 RES1   0.0000
     2 C2      -1.4166  42.3769  39.3406   C.2       1 RES1   0.0000
     3 C3      -2.2908  41.1898  39.2169   C.2       1 RES1   0.0000
     4 C4      -1.8708  39.9266  38.9168   C.2       1 RES1   0.0000
     5 C5      -0.5295  39.4837  38.7223   C.2       1 RES1   0.0000
     6 C6      -0.0817  38.2358  38.4230   C.2       1 RES1   0.0000
     7 C7      -0.9357  37.0192  38.2095   C.3       1 RES1   0.0000
     8 C8      -1.2891  36.7035  36.7601   C.3       1 RES1   0.0000
     9 C9      -2.1634  35.4715  36.6001   C.3       1 RES1   0.0000
    10 C10     -2.5143  35.1589  35.1540   C.3       1 RES1   0.0000
    11 C11     -3.3851  33.9363  34.9613   C.3       1 RES1   0.0000
    12 C12     -3.7056  33.6678  33.5109   C.3       1 RES1   0.0000
    13 C13      1.3924  38.0873  38.3169   C.2       1 RES1   0.0000
    14 C14      2.2353  38.7919  39.1688   C.2       1 RES1   0.0000
    15 C15      3.6063  38.6626  39.0529   C.2       1 RES1   0.0000
    16 C16      4.1478  37.8338  38.0888   C.2       1 RES1   0.0000
    17 C17      3.3291  37.1229  37.2265   C.2       1 RES1   0.0000
    18 C18      3.9127  36.2415  36.1484   C.3       1 RES1   0.0000
    19 C19      4.0770  36.9488  34.8007   C.3       1 RES1   0.0000
    20 C20      2.7698  37.3692  34.1472   C.3       1 RES1   0.0000
    21 C21      2.9321  38.0721  32.8078   C.3       1 RES1   0.0000
    22 C22      1.6071  38.4837  32.1728   C.3       1 RES1   0.0000
    23 C23      1.7057  39.1938  30.8266   C.3       1 RES1   0.0000
    24 C24      2.5039  40.4845  30.9373   C.3       1 RES1   0.0000
    25 C25      0.3260  39.4638  30.2460   C.3       1 RES1   0.0000
    26 O26      2.4011  38.3199  29.9171   O.3       1 RES1   0.0000
    27 C27      1.9487  37.2528  37.3512   C.2       1 RES1   0.0000
    28 C28     -3.7737  41.4748  39.3851   C.3       1 RES1   0.0000
    29 C29     -4.0877  42.3530  40.5941   C.3       1 RES1   0.0000
    30 O30     -3.8682  41.5847  41.7793   O.3       1 RES1   0.0000
    31 C31     -3.2064  43.5993  40.5983   C.3       1 RES1   0.0000
    32 C32     -1.7198  43.2464  40.5581   C.3       1 RES1   0.0000
    33 O33     -0.8974  44.4077  40.6321   O.3       1 RES1   0.0000
@<TRIPOS>BOND
     1     1     2    2
     2     2     3    1
     3     3     4    2
     4     4     5    1
     5     5     6    2
     6     6     7    1
     7     7     8    1
     8     8     9    1
     9     9    10    1
    10    10    11    1
    11    11    12    1
    12     6    13    1
    13    13    14    2
    14    14    15    1
    15    15    16    2
    16    16    17    1
    17    17    18    1
    18    18    19    1
    19    19    20    1
    20    20    21    1
    21    21    22    1
    22    22    23    1
    23    23    24    1
    24    23    25    1
    25    23    26    1
    26    17    27    2
    27     3    28    1
    28    28    29    1
    29    29    30    1
    30    29    31    1
    31    31    32    1
    32    32    33    1
    33    32     2    1
    34    27    13    1
@<TRIPOS>SUBSTRUCTURE
     1 RES1        1 GROUP             0 ****  ****    0  
@<TRIPOS>MOLECULE
ligand_83
    33    34     1     0     0
SMALL
NO_CHARGES
****
Generated from the CSD

@<TRIPOS>ATOM
     1 C1      -0.4978  42.6995  38.4515   C.2       1 RES1   0.0000
     2 C2      -1.4166  42.3769  39.3406   C.2       1 RES1   0.0000
     3 C3      -2.2908  41.1898  39.2169   C.2       1 RES1   0.0000
     4 C4      -1.8708  39.9266  38.9168   C.2       1 RES1   0.0000
     5 C5      -0.5295  39.4837  38.7223   C.2       1 RES1   0.0000
     6 C6      -0.0817  38.2358  38.4230   C.2       1 RES1   0.0000
     7 C7      -0.9357  37.0192  38.2095   C.3       1 RES1   0.0000
     8 C8      -1.2891  36.7035  36.7601   C.3       1 RES1   0.0000
     9 C9      -2.1634  35.4715  36.6001   C.3       1 RES1   0.0000
    10 C10     -2.5143  35.1589  35.1540   C.3       1 RES1   0.0000
    11 C11     -3.3851  33.9363  34.9613   C.3       1 RES1   0.0000
    12 C12     -3.7056  33.6678  33.5109   C.3       1 RES1   0.0000
    13 C13      1.3924  38.0873  38.3169   C.2       1 RES1   0.0000
    14 C14      2.2353  38.7919  39.1688   C.2       1 RES1   0.0000
    15 C15      3.6063  38.6626  39.0529   C.2       1 RES1   0.0000
    16 C16      4.1478  37.8338  38.0888   C.2       1 RES1   0.0000
    17 C17      3.3291  37.1229  37.2265   C.2       1 RES1   0.0000
    18 C18      3.9127  36.2415  36.1484   C.3       1 RES1   0.0000
    19 C19      4.0770  36.9488  34.8007   C.3       1 RES1   0.0000
    20 C20      5.0805  38.0914  34.8077   C.3       1 RES1   0.0000
    21 C21      5.2443  38.7947  33.4688   C.3       1 RES1   0.0000
    22 C22      6.2560  39.9366  33.5019   C.3       1 RES1   0.0000
    23 C23      6.4637  40.6808  32.1868   C.3       1 RES1   0.0000
    24 C24      6.9632  39.7473  31.0940   C.3       1 RES1   0.0000
    25 C25      7.4131  41.8557  32.3649   C.3       1 RES1   0.0000
    26 O26      5.1886  41.2062  31.7715   O.3       1 RES1   0.0000
    27 C27      1.9487  37.2528  37.3512   C.2       1 RES1   0.0000
    28 C28     -3.7737  41.4748  39.3851   C.3       1 RES1   0.0000
    29 C29     -4.0877  42.3530  40.5941   C.3       1 RES1   0.0000
    30 O30     -3.8682  41.5847  41.7793   O.3       1 RES1   0.0000
    31 C31     -3.2064  43.5993  40.5983   C.3       1 RES1   0.0000
    32 C32     -1.7198  43.2464  40.5581   C.3       1 RES1   0.0000
    33 O33     -0.8974  44.4077  40.6321   O.3       1 RES1   0.0000
@<TRIPOS>BOND
     1     1     2    2
     2     2     3    1
     3     3     4    2
     4     4     5    1
     5     5     6    2
     6     6     7    1
     7     7     8    1
     8     8     9    1
     9     9    10    1
    10    10    11    1
    11    11    12    1
    12     6    13    1
    13    13    14    2
    14    14    15    1
    15    15    16    2
    16    16    17    1
    17    17    18    1
    18    18    19    1
    19    19    20    1
    20    20    21    1
    21    21    22    1
    22    22    23    1
    23    23    24    1
    24    23    25    1
    25    23    26    1
    26    17    27    2
    27     3    28    1
    28    28    29    1
    29    29    30    1
    30    29    31    1
    31    31    32    1
    32    32    33    1
    33    32     2    1
    34    27    13    1
@<TRIPOS>SUBSTRUCTURE
     1 RES1        1 GROUP             0 ****  ****    0  
@<TRIPOS>MOLECULE
ligand_84
    33    34     1     0     0
SMALL
NO_CHARGES
****
Generated from the CSD

@<TRIPOS>ATOM
     1 C1       3.2503  39.5870  41.1008   C.2       1 RES1   0.0000
     2 C2       3.7957  38.5038  40.5832   C.2       1 RES1   0.0000
     3 C3       3.0401  37.2626  40.3054   C.2       1 RES1   0.0000
     4 C4       1.8414  37.1953  39.6568   C.2       1 RES1   0.0000
     5 C5       1.1113  38.2720  39.0732   C.2       1 RES1   0.0000
     6 C6      -0.0817  38.2358  38.4230   C.2       1 RES1   0.0000
     7 C7      -0.9219  37.0136  38.1876   C.3       1 RES1   0.0000
     8 C8      -0.7121  36.3127  36.8497   C.3       1 RES1   0.0000
     9 C9      -1.5848  35.0835  36.6618   C.3       1 RES1   0.0000
    10 C10     -1.3736  34.3865  35.3271   C.3       1 RES1   0.0000
    11 C11     -2.2293  33.1574  35.1095   C.3       1 RES1   0.0000
    12 C12     -1.9838  32.5016  33.7723   C.3       1 RES1   0.0000
    13 C13     -0.5687  39.5360  37.8953   C.2       1 RES1   0.0000
    14 C14     -0.3391  40.7131  38.5984   C.2       1 RES1   0.0000
    15 C15     -0.8104  41.9171  38.1104   C.2       1 RES1   0.0000
    16 C16     -1.5142  41.9583  36.9218   C.2       1 RES1   0.0000
    17 C17     -1.7580  40.7988  36.2038   C.2       1 RES1   0.0000
    18 C18     -2.5550  40.8302  34.9219   C.3       1 RES1   0.0000
    19 C19     -1.7075  41.1185  33.6800   C.3       1 RES1   0.0000
    20 C20     -1.0764  42.5019  33.6562   C.3       1 RES1   0.0000
    21 C21     -0.2340  42.7893  32.4224   C.3       1 RES1   0.0000
    22 C22      0.3879  44.1827  32.4222   C.3       1 RES1   0.0000
    23 C23      1.2449  44.5295  31.2090   C.3       1 RES1   0.0000
    24 C24      2.4223  43.5756  31.0706   C.3       1 RES1   0.0000
    25 C25      1.7260  45.9710  31.2707   C.3       1 RES1   0.0000
    26 O26      0.4227  44.3912  30.0345   O.3       1 RES1   0.0000
    27 C27     -1.2763  39.5896  36.6973   C.2       1 RES1   0.0000
    28 C28      3.6686  35.9990  40.8682   C.3       1 RES1   0.0000
    29 C29      5.1653  35.8902  40.5863   C.3       1 RES1   0.0000
    30 O30      5.3444  35.6313  39.1920   O.3       1 RES1   0.0000
    31 C31      5.8835  37.1771  40.9839   C.3       1 RES1   0.0000
    32 C32      5.2895  38.4004  40.2861   C.3       1 RES1   0.0000
    33 O33      6.0046  39.5912  40.6044   O.3       1 RES1   0.0000
@<TRIPOS>BOND
     1     1     2    2
     2     2     3    1
     3     3     4    2
     4     4     5    1
     5     5     6    2
     6     6     7    1
     7     7     8    1
     8     8     9    1
     9     9    10    1
    10    10    11    1
    11    11    12    1
    12     6    13    1
    13    13    14    2
    14    14    15    1
    15    15    16    2
    16    16    17    1
    17    17    18    1
    18    18    19    1
    19    19    20    1
    20    20    21    1
    21    21    22    1
    22    22    23    1
    23    23    24    1
    24    23    25    1
    25    23    26    1
    26    17    27    2
    27     3    28    1
    28    28    29    1
    29    29    30    1
    30    29    31    1
    31    31    32    1
    32    32    33    1
    33    32     2    1
    34    27    13    1
@<TRIPOS>SUBSTRUCTURE
     1 RES1        1 GROUP             0 ****  ****    0  
@<TRIPOS>MOLECULE
ligand_85
    33    34     1     0     0
SMALL
NO_CHARGES
****
Generated from the CSD

@<TRIPOS>ATOM
     1 C1       3.2503  39.5870  41.1008   C.2       1 RES1   0.0000
     2 C2       3.7957  38.5038  40.5832   C.2       1 RES1   0.0000
     3 C3       3.0401  37.2626  40.3054   C.2       1 RES1   0.0000
     4 C4       1.8414  37.1953  39.6568   C.2       1 RES1   0.0000
     5 C5       1.1113  38.2720  39.0732   C.2       1 RES1   0.0000
     6 C6      -0.0817  38.2358  38.4230   C.2       1 RES1   0.0000
     7 C7      -0.9219  37.0136  38.1876   C.3       1 RES1   0.0000
     8 C8      -0.7121  36.3127  36.8497   C.3       1 RES1   0.0000
     9 C9      -1.5848  35.0835  36.6618   C.3       1 RES1   0.0000
    10 C10     -1.3736  34.3865  35.3271   C.3       1 RES1   0.0000
    11 C11     -2.2293  33.1574  35.1095   C.3       1 RES1   0.0000
    12 C12     -1.9838  32.5016  33.7723   C.3       1 RES1   0.0000
    13 C13     -0.5687  39.5360  37.8953   C.2       1 RES1   0.0000
    14 C14     -0.3391  40.7131  38.5984   C.2       1 RES1   0.0000
    15 C15     -0.8104  41.9171  38.1104   C.2       1 RES1   0.0000
    16 C16     -1.5142  41.9583  36.9218   C.2       1 RES1   0.0000
    17 C17     -1.7580  40.7988  36.2038   C.2       1 RES1   0.0000
    18 C18     -2.5550  40.8302  34.9219   C.3       1 RES1   0.0000
    19 C19     -1.7075  41.1185  33.6800   C.3       1 RES1   0.0000
    20 C20     -0.6846  40.0420  33.3523   C.3       1 RES1   0.0000
    21 C21      0.1580  40.3277  32.1184   C.3       1 RES1   0.0000
    22 C22      1.1761  39.2335  31.8108   C.3       1 RES1   0.0000
    23 C23      2.0515  39.4641  30.5833   C.3       1 RES1   0.0000
    24 C24      1.2136  39.5851  29.3191   C.3       1 RES1   0.0000
    25 C25      3.0907  38.3633  30.4356   C.3       1 RES1   0.0000
    26 O26      2.7535  40.7079  30.7699   O.3       1 RES1   0.0000
    27 C27     -1.2763  39.5896  36.6973   C.2       1 RES1   0.0000
    28 C28      3.6686  35.9990  40.8682   C.3       1 RES1   0.0000
    29 C29      5.1653  35.8902  40.5863   C.3       1 RES1   0.0000
    30 O30      5.3444  35.6313  39.1920   O.3       1 RES1   0.0000
    31 C31      5.8835  37.1771  40.9839   C.3       1 RES1   0.0000
    32 C32      5.2895  38.4004  40.2861   C.3       1 RES1   0.0000
    33 O33      6.0046  39.5912  40.6044   O.3       1 RES1   0.0000
@<TRIPOS>BOND
     1     1     2    2
     2     2     3    1
     3     3     4    2
     4     4     5    1
     5     5     6    2
     6     6     7    1
     7     7     8    1
     8     8     9    1
     9     9    10    1
    10    10    11    1
    11    11    12    1
    12     6    13    1
    13    13    14    2
    14    14    15    1
    15    15    16    2
    16    16    17    1
    17    17    18    1
    18    18    19    1
    19    19    20    1
    20    20    21    1
    21    21    22    1
    22    22    23    1
    23    23    24    1
    24    23    25    1
    25    23    26    1
    26    17    27    2
    27     3    28    1
    28    28    29    1
    29    29    30    1
    30    29    31    1
    31    31    32    1
    32    32    33    1
    33    32     2    1
    34    27    13    1
@<TRIPOS>SUBSTRUCTURE
     1 RES1        1 GROUP             0 ****  ****    0  
@<TRIPOS>MOLECULE
ligand_86
    33    34     1     0     0
SMALL
NO_CHARGES
****
Generated from the CSD

@<TRIPOS>ATOM
     1 C1       3.2503  39.5870  41.1008   C.2       1 RES1   0.0000
     2 C2       3.7957  38.5038  40.5832   C.2       1 RES1   0.0000
     3 C3       3.0401  37.2626  40.3054   C.2       1 RES1   0.0000
     4 C4       1.8414  37.1953  39.6568   C.2       1 RES1   0.0000
     5 C5       1.1113  38.2720  39.0732   C.2       1 RES1   0.0000
     6 C6      -0.0817  38.2358  38.4230   C.2       1 RES1   0.0000
     7 C7      -0.9219  37.0136  38.1876   C.3       1 RES1   0.0000
     8 C8      -0.7121  36.3127  36.8497   C.3       1 RES1   0.0000
     9 C9      -1.5848  35.0835  36.6618   C.3       1 RES1   0.0000
    10 C10     -1.3736  34.3865  35.3271   C.3       1 RES1   0.0000
    11 C11     -2.2293  33.1574  35.1095   C.3       1 RES1   0.0000
    12 C12     -1.9838  32.5016  33.7723   C.3       1 RES1   0.0000
    13 C13     -0.5687  39.5360  37.8953   C.2       1 RES1   0.0000
    14 C14     -0.3391  40.7131  38.5984   C.2       1 RES1   0.0000
    15 C15     -0.8104  41.9171  38.1104   C.2       1 RES1   0.0000
    16 C16     -1.5142  41.9583  36.9218   C.2       1 RES1   0.0000
    17 C17     -1.7580  40.7988  36.2038   C.2       1 RES1   0.0000
    18 C18     -2.5550  40.8302  34.9219   C.3       1 RES1   0.0000
    19 C19     -4.0498  40.5673  35.1228   C.3       1 RES1   0.0000
    20 C20     -4.3809  39.1721  35.6292   C.3       1 RES1   0.0000
    21 C21     -5.8660  38.9101  35.8292   C.3       1 RES1   0.0000
    22 C22     -6.1721  37.5042  36.3374   C.3       1 RES1   0.0000
    23 C23     -7.6466  37.1818  36.5574   C.3       1 RES1   0.0000
    24 C24     -8.2709  38.1138  37.5854   C.3       1 RES1   0.0000
    25 C25     -7.8359  35.7287  36.9650   C.3       1 RES1   0.0000
    26 O26     -8.3325  37.3795  35.3064   O.3       1 RES1   0.0000
    27 C27     -1.2763  39.5896  36.6973   C.2       1 RES1   0.0000
    28 C28      3.6686  35.9990  40.8682   C.3       1 RES1   0.0000
    29 C29      5.1653  35.8902  40.5863   C.3       1 RES1   0.0000
    30 O30      5.3444  35.6313  39.1920   O.3       1 RES1   0.0000
    31 C31      5.8835  37.1771  40.9839   C.3       1 RES1   0.0000
    32 C32      5.2895  38.4004  40.2861   C.3       1 RES1   0.0000
    33 O33      6.0046  39.5912  40.6044   O.3       1 RES1   0.0000
@<TRIPOS>BOND
     1     1     2    2
     2     2     3    1
     3     3     4    2
     4     4     5    1
     5     5     6    2
     6     6     7    1
     7     7     8    1
     8     8     9    1
     9     9    10    1
    10    10    11    1
    11    11    12    1
    12     6    13    1
    13    13    14    2
    14    14    15    1
    15    15    16    2
    16    16    17    1
    17    17    18    1
    18    18    19    1
    19    19    20    1
    20    20    21    1
    21    21    22    1
    22    22    23    1
    23    23    24    1
    24    23    25    1
    25    23    26    1
    26    17    27    2
    27     3    28    1
    28    28    29    1
    29    29    30    1
    30    29    31    1
    31    31    32    1
    32    32    33    1
    33    32     2    1
    34    27    13    1
@<TRIPOS>SUBSTRUCTURE
     1 RES1        1 GROUP             0 ****  ****    0  
@<TRIPOS>MOLECULE
ligand_87
    33    34     1     0     0
SMALL
NO_CHARGES
****
Generated from the CSD

@<TRIPOS>ATOM
     1 C1       3.2503  39.5870  41.1008   C.2       1 RES1   0.0000
     2 C2       3.7957  38.5038  40.5832   C.2       1 RES1   0.0000
     3 C3       3.0401  37.2626  40.3054   C.2       1 RES1   0.0000
     4 C4       1.8414  37.1953  39.6568   C.2       1 RES1   0.0000
     5 C5       1.1113  38.2720  39.0732   C.2       1 RES1   0.0000
     6 C6      -0.0817  38.2358  38.4230   C.2       1 RES1   0.0000
     7 C7      -0.9219  37.0136  38.1876   C.3       1 RES1   0.0000
     8 C8      -0.7121  36.3127  36.8497   C.3       1 RES1   0.0000
     9 C9      -1.5848  35.0835  36.6618   C.3       1 RES1   0.0000
    10 C10     -1.3736  34.3865  35.3271   C.3       1 RES1   0.0000
    11 C11     -2.2293  33.1574  35.1095   C.3       1 RES1   0.0000
    12 C12     -1.9838  32.5016  33.7723   C.3       1 RES1   0.0000
    13 C13     -0.5687  39.5360  37.8953   C.2       1 RES1   0.0000
    14 C14     -0.3391  40.7131  38.5984   C.2       1 RES1   0.0000
    15 C15     -0.8104  41.9171  38.1104   C.2       1 RES1   0.0000
    16 C16     -1.5142  41.9583  36.9218   C.2       1 RES1   0.0000
    17 C17     -1.7580  40.7988  36.2038   C.2       1 RES1   0.0000
    18 C18     -2.5550  40.8302  34.9219   C.3       1 RES1   0.0000
    19 C19     -4.0498  40.5673  35.1228   C.3       1 RES1   0.0000
    20 C20     -4.7726  41.6321  35.9330   C.3       1 RES1   0.0000
    21 C21     -6.2580  41.3716  36.1332   C.3       1 RES1   0.0000
    22 C22     -6.9603  42.4534  36.9487   C.3       1 RES1   0.0000
    23 C23     -8.4532  42.2471  37.1831   C.3       1 RES1   0.0000
    24 C24     -9.2183  42.1893  35.8691   C.3       1 RES1   0.0000
    25 C25     -9.0215  43.3294  38.0882   C.3       1 RES1   0.0000
    26 O26     -8.6240  40.9825  37.8508   O.3       1 RES1   0.0000
    27 C27     -1.2763  39.5896  36.6973   C.2       1 RES1   0.0000
    28 C28      3.6686  35.9990  40.8682   C.3       1 RES1   0.0000
    29 C29      5.1653  35.8902  40.5863   C.3       1 RES1   0.0000
    30 O30      5.3444  35.6313  39.1920   O.3       1 RES1   0.0000
    31 C31      5.8835  37.1771  40.9839   C.3       1 RES1   0.0000
    32 C32      5.2895  38.4004  40.2861   C.3       1 RES1   0.0000
    33 O33      6.0046  39.5912  40.6044   O.3       1 RES1   0.0000
@<TRIPOS>BOND
     1     1     2    2
     2     2     3    1
     3     3     4    2
     4     4     5    1
     5     5     6    2
     6     6     7    1
     7     7     8    1
     8     8     9    1
     9     9    10    1
    10    10    11    1
    11    11    12    1
    12     6    13    1
    13    13    14    2
    14    14    15    1
    15    15    16    2
    16    16    17    1
    17    17    18    1
    18    18    19    1
    19    19    20    1
    20    20    21    1
    21    21    22    1
    22    22    23    1
    23    23    24    1
    24    23    25    1
    25    23    26    1
    26    17    27    2
    27     3    28    1
    28    28    29    1
    29    29    30    1
    30    29    31    1
    31    31    32    1
    32    32    33    1
    33    32     2    1
    34    27    13    1
@<TRIPOS>SUBSTRUCTURE
     1 RES1        1 GROUP             0 ****  ****    0  
@<TRIPOS>MOLECULE
ligand_88
    33    34     1     0     0
SMALL
NO_CHARGES
****
Generated from the CSD

@<TRIPOS>ATOM
     1 C1      -0.9315  34.2913  43.2159   C.2       1 RES1   0.0000
     2 C2      -1.9891  33.8393  42.5708   C.2       1 RES1   0.0000
     3 C3      -2.7402  34.6359  41.5758   C.2       1 RES1   0.0000
     4 C4      -2.1862  35.3458  40.5504   C.2       1 RES1   0.0000
     5 C5      -0.8074  35.4202  40.1949   C.2       1 RES1   0.0000
     6 C6      -0.2275  36.1169  39.1822   C.2       1 RES1   0.0000
     7 C7      -0.9387  37.0007  38.1983   C.3       1 RES1   0.0000
     8 C8      -1.0278  36.4677  36.7724   C.3       1 RES1   0.0000
     9 C9      -1.9011  35.2321  36.6367   C.3       1 RES1   0.0000
    10 C10     -1.9882  34.7028  35.2139   C.3       1 RES1   0.0000
    11 C11     -2.8516  33.4714  35.0457   C.3       1 RES1   0.0000
    12 C12     -2.9065  32.9846  33.6179   C.3       1 RES1   0.0000
    13 C13      1.2438  35.9607  39.0512   C.2       1 RES1   0.0000
    14 C14      2.0398  37.0453  38.7007   C.2       1 RES1   0.0000
    15 C15      3.4059  36.8888  38.5633   C.2       1 RES1   0.0000
    16 C16      3.9890  35.6534  38.7717   C.2       1 RES1   0.0000
    17 C17      3.2172  34.5567  39.1195   C.2       1 RES1   0.0000
    18 C18      3.8416  33.1962  39.3159   C.3       1 RES1   0.0000
    19 C19      4.3627  32.9600  40.7359   C.3       1 RES1   0.0000
    20 C20      4.9959  31.5948  40.9550   C.3       1 RES1   0.0000
    21 C21      5.5139  31.3594  42.3658   C.3       1 RES1   0.0000
    22 C22      6.1442  29.9833  42.5601   C.3       1 RES1   0.0000
    23 C23      6.6827  29.6884  43.9563   C.3       1 RES1   0.0000
    24 C24      7.7705  30.6762  44.3515   C.3       1 RES1   0.0000
    25 C25      7.1927  28.2590  44.0574   C.3       1 RES1   0.0000
    26 O26      5.5940  29.8327  44.8882   O.3       1 RES1   0.0000
    27 C27      1.8422  34.7213  39.2617   C.2       1 RES1   0.0000
    28 C28     -4.2417  34.6815  41.8039   C.3       1 RES1   0.0000
    29 C29     -4.8521  33.3114  42.0900   C.3       1 RES1   0.0000
    30 O30     -4.8288  32.5458  40.8831   O.3       1 RES1   0.0000
    31 C31     -4.0735  32.5935  43.1893   C.3       1 RES1   0.0000
    32 C32     -2.5900  32.4631  42.8451   C.3       1 RES1   0.0000
    33 O33     -1.8776  31.7323  43.8395   O.3       1 RES1   0.0000
@<TRIPOS>BOND
     1     1     2    2
     2     2     3    1
     3     3     4    2
     4     4     5    1
     5     5     6    2
     6     6     7    1
     7     7     8    1
     8     8     9    1
     9     9    10    1
    10    10    11    1
    11    11    12    1
    12     6    13    1
    13    13    14    2
    14    14    15    1
    15    15    16    2
    16    16    17    1
    17    17    18    1
    18    18    19    1
    19    19    20    1
    20    20    21    1
    21    21    22    1
    22    22    23    1
    23    23    24    1
    24    23    25    1
    25    23    26    1
    26    17    27    2
    27     3    28    1
    28    28    29    1
    29    29    30    1
    30    29    31    1
    31    31    32    1
    32    32    33    1
    33    32     2    1
    34    27    13    1
@<TRIPOS>SUBSTRUCTURE
     1 RES1        1 GROUP             0 ****  ****    0  
@<TRIPOS>MOLECULE
ligand_89
    33    34     1     0     0
SMALL
NO_CHARGES
****
Generated from the CSD

@<TRIPOS>ATOM
     1 C1      -0.9315  34.2913  43.2159   C.2       1 RES1   0.0000
     2 C2      -1.9891  33.8393  42.5708   C.2       1 RES1   0.0000
     3 C3      -2.7402  34.6359  41.5758   C.2       1 RES1   0.0000
     4 C4      -2.1862  35.3458  40.5504   C.2       1 RES1   0.0000
     5 C5      -0.8074  35.4202  40.1949   C.2       1 RES1   0.0000
     6 C6      -0.2275  36.1169  39.1822   C.2       1 RES1   0.0000
     7 C7      -0.9387  37.0007  38.1983   C.3       1 RES1   0.0000
     8 C8      -1.0278  36.4677  36.7724   C.3       1 RES1   0.0000
     9 C9      -1.9011  35.2321  36.6367   C.3       1 RES1   0.0000
    10 C10     -1.9882  34.7028  35.2139   C.3       1 RES1   0.0000
    11 C11     -2.8516  33.4714  35.0457   C.3       1 RES1   0.0000
    12 C12     -2.9065  32.9846  33.6179   C.3       1 RES1   0.0000
    13 C13      1.2438  35.9607  39.0512   C.2       1 RES1   0.0000
    14 C14      2.0398  37.0453  38.7007   C.2       1 RES1   0.0000
    15 C15      3.4059  36.8888  38.5633   C.2       1 RES1   0.0000
    16 C16      3.9890  35.6534  38.7717   C.2       1 RES1   0.0000
    17 C17      3.2172  34.5567  39.1195   C.2       1 RES1   0.0000
    18 C18      3.8416  33.1962  39.3159   C.3       1 RES1   0.0000
    19 C19      3.8276  32.3276  38.0553   C.3       1 RES1   0.0000
    20 C20      4.4522  30.9523  38.2317   C.3       1 RES1   0.0000
    21 C21      4.4387  30.0885  36.9796   C.3       1 RES1   0.0000
    22 C22      5.0706  28.7144  37.1822   C.3       1 RES1   0.0000
    23 C23      5.0864  27.8018  35.9602   C.3       1 RES1   0.0000
    24 C24      3.6770  27.5147  35.4639   C.3       1 RES1   0.0000
    25 C25      5.8272  26.5059  36.2525   C.3       1 RES1   0.0000
    26 O26      5.7954  28.4849  34.9089   O.3       1 RES1   0.0000
    27 C27      1.8422  34.7213  39.2617   C.2       1 RES1   0.0000
    28 C28     -4.2417  34.6815  41.8039   C.3       1 RES1   0.0000
    29 C29     -4.8521  33.3114  42.0900   C.3       1 RES1   0.0000
    30 O30     -4.8288  32.5458  40.8831   O.3       1 RES1   0.0000
    31 C31     -4.0735  32.5935  43.1893   C.3       1 RES1   0.0000
    32 C32     -2.5900  32.4631  42.8451   C.3       1 RES1   0.0000
    33 O33     -1.8776  31.7323  43.8395   O.3       1 RES1   0.0000
@<TRIPOS>BOND
     1     1     2    2
     2     2     3    1
     3     3     4    2
     4     4     5    1
     5     5     6    2
     6     6     7    1
     7     7     8    1
     8     8     9    1
     9     9    10    1
    10    10    11    1
    11    11    12    1
    12     6    13    1
    13    13    14    2
    14    14    15    1
    15    15    16    2
    16    16    17    1
    17    17    18    1
    18    18    19    1
    19    19    20    1
    20    20    21    1
    21    21    22    1
    22    22    23    1
    23    23    24    1
    24    23    25    1
    25    23    26    1
    26    17    27    2
    27     3    28    1
    28    28    29    1
    29    29    30    1
    30    29    31    1
    31    31    32    1
    32    32    33    1
    33    32     2    1
    34    27    13    1
@<TRIPOS>SUBSTRUCTURE
     1 RES1        1 GROUP             0 ****  ****    0  
@<TRIPOS>MOLECULE
ligand_90
    33    34     1     0     0
SMALL
NO_CHARGES
****
Generated from the CSD

@<TRIPOS>ATOM
     1 C1       3.8886  35.4628  40.8341   C.2       1 RES1   0.0000
     2 C2       3.7378  36.7469  41.0935   C.2       1 RES1   0.0000
     3 C3       3.0540  37.6891  40.1805   C.2       1 RES1   0.0000
     4 C4       1.8445  37.4762  39.5856   C.2       1 RES1   0.0000
     5 C5       0.9794  36.3562  39.7597   C.2       1 RES1   0.0000
     6 C6      -0.2275  36.1169  39.1822   C.2       1 RES1   0.0000
     7 C7      -0.9230  37.0045  38.1905   C.3       1 RES1   0.0000
     8 C8      -0.9438  36.5014  36.7512   C.3       1 RES1   0.0000
     9 C9      -1.7973  35.2606  36.5513   C.3       1 RES1   0.0000
    10 C10     -1.8397  34.7779  35.1100   C.3       1 RES1   0.0000
    11 C11     -2.6825  33.5426  34.8780   C.3       1 RES1   0.0000
    12 C12     -2.6931  33.1031  33.4340   C.3       1 RES1   0.0000
    13 C13     -0.9047  34.8622  39.5986   C.2       1 RES1   0.0000
    14 C14     -2.2831  34.8304  39.7769   C.2       1 RES1   0.0000
    15 C15     -2.9045  33.6643  40.1816   C.2       1 RES1   0.0000
    16 C16     -2.1599  32.5234  40.4131   C.2       1 RES1   0.0000
    17 C17     -0.7848  32.5302  40.2447   C.2       1 RES1   0.0000
    18 C18      0.0402  31.2979  40.5282   C.3       1 RES1   0.0000
    19 C19      0.1536  30.3479  39.3331   C.3       1 RES1   0.0000
    20 C20      0.9809  29.0996  39.5977   C.3       1 RES1   0.0000
    21 C21      1.0940  28.1550  38.4106   C.3       1 RES1   0.0000
    22 C22      1.9285  26.9109  38.7011   C.3       1 RES1   0.0000
    23 C23      2.0781  25.9248  37.5471   C.3       1 RES1   0.0000
    24 C24      0.7269  25.3923  37.0937   C.3       1 RES1   0.0000
    25 C25      3.0086  24.7809  37.9199   C.3       1 RES1   0.0000
    26 O26      2.6707  26.6292  36.4394   O.3       1 RES1   0.0000
    27 C27     -0.1646  33.7062  39.8319   C.2       1 RES1   0.0000
    28 C28      3.8403  38.9508  39.8672   C.3       1 RES1   0.0000
    29 C29      4.4411  39.6125  41.1052   C.3       1 RES1   0.0000
    30 O30      3.3795  40.1902  41.8684   O.3       1 RES1   0.0000
    31 C31      5.2043  38.5917  41.9451   C.3       1 RES1   0.0000
    32 C32      4.3245  37.4056  42.3393   C.3       1 RES1   0.0000
    33 O33      5.0178  36.4881  43.1806   O.3       1 RES1   0.0000
@<TRIPOS>BOND
     1     1     2    2
     2     2     3    1
     3     3     4    2
     4     4     5    1
     5     5     6    2
     6     6     7    1
     7     7     8    1
     8     8     9    1
     9     9    10    1
    10    10    11    1
    11    11    12    1
    12     6    13    1
    13    13    14    2
    14    14    15    1
    15    15    16    2
    16    16    17    1
    17    17    18    1
    18    18    19    1
    19    19    20    1
    20    20    21    1
    21    21    22    1
    22    22    23    1
    23    23    24    1
    24    23    25    1
    25    23    26    1
    26    17    27    2
    27     3    28    1
    28    28    29    1
    29    29    30    1
    30    29    31    1
    31    31    32    1
    32    32    33    1
    33    32     2    1
    34    27    13    1
@<TRIPOS>SUBSTRUCTURE
     1 RES1        1 GROUP             0 ****  ****    0  
@<TRIPOS>MOLECULE
ligand_91
    33    34     1     0     0
SMALL
NO_CHARGES
****
Generated from the CSD

@<TRIPOS>ATOM
     1 C1       3.8886  35.4628  40.8341   C.2       1 RES1   0.0000
     2 C2       3.7378  36.7469  41.0935   C.2       1 RES1   0.0000
     3 C3       3.0540  37.6891  40.1805   C.2       1 RES1   0.0000
     4 C4       1.8445  37.4762  39.5856   C.2       1 RES1   0.0000
     5 C5       0.9794  36.3562  39.7597   C.2       1 RES1   0.0000
     6 C6      -0.2275  36.1169  39.1822   C.2       1 RES1   0.0000
     7 C7      -0.9230  37.0045  38.1905   C.3       1 RES1   0.0000
     8 C8      -0.9438  36.5014  36.7512   C.3       1 RES1   0.0000
     9 C9      -1.7973  35.2606  36.5513   C.3       1 RES1   0.0000
    10 C10     -1.8397  34.7779  35.1100   C.3       1 RES1   0.0000
    11 C11     -2.6825  33.5426  34.8780   C.3       1 RES1   0.0000
    12 C12     -2.6931  33.1031  33.4340   C.3       1 RES1   0.0000
    13 C13     -0.9047  34.8622  39.5986   C.2       1 RES1   0.0000
    14 C14     -2.2831  34.8304  39.7769   C.2       1 RES1   0.0000
    15 C15     -2.9045  33.6643  40.1816   C.2       1 RES1   0.0000
    16 C16     -2.1599  32.5234  40.4131   C.2       1 RES1   0.0000
    17 C17     -0.7848  32.5302  40.2447   C.2       1 RES1   0.0000
    18 C18      0.0402  31.2979  40.5282   C.3       1 RES1   0.0000
    19 C19      0.5968  31.2472  41.9535   C.3       1 RES1   0.0000
    20 C20      1.4311  30.0133  42.2598   C.3       1 RES1   0.0000
    21 C21      1.9845  29.9622  43.6759   C.3       1 RES1   0.0000
    22 C22      2.8176  28.7153  43.9583   C.3       1 RES1   0.0000
    23 C23      3.4002  28.6077  45.3638   C.3       1 RES1   0.0000
    24 C24      4.3266  29.7749  45.6712   C.3       1 RES1   0.0000
    25 C25      4.1221  27.2832  45.5588   C.3       1 RES1   0.0000
    26 O26      2.3059  28.6527  46.2992   O.3       1 RES1   0.0000
    27 C27     -0.1646  33.7062  39.8319   C.2       1 RES1   0.0000
    28 C28      3.8403  38.9508  39.8672   C.3       1 RES1   0.0000
    29 C29      4.4411  39.6125  41.1052   C.3       1 RES1   0.0000
    30 O30      3.3795  40.1902  41.8684   O.3       1 RES1   0.0000
    31 C31      5.2043  38.5917  41.9451   C.3       1 RES1   0.0000
    32 C32      4.3245  37.4056  42.3393   C.3       1 RES1   0.0000
    33 O33      5.0178  36.4881  43.1806   O.3       1 RES1   0.0000
@<TRIPOS>BOND
     1     1     2    2
     2     2     3    1
     3     3     4    2
     4     4     5    1
     5     5     6    2
     6     6     7    1
     7     7     8    1
     8     8     9    1
     9     9    10    1
    10    10    11    1
    11    11    12    1
    12     6    13    1
    13    13    14    2
    14    14    15    1
    15    15    16    2
    16    16    17    1
    17    17    18    1
    18    18    19    1
    19    19    20    1
    20    20    21    1
    21    21    22    1
    22    22    23    1
    23    23    24    1
    24    23    25    1
    25    23    26    1
    26    17    27    2
    27     3    28    1
    28    28    29    1
    29    29    30    1
    30    29    31    1
    31    31    32    1
    32    32    33    1
    33    32     2    1
    34    27    13    1
@<TRIPOS>SUBSTRUCTURE
     1 RES1        1 GROUP             0 ****  ****    0  
@<TRIPOS>MOLECULE
ligand_92
    33    34     1     0     0
SMALL
NO_CHARGES
****
Generated from the CSD

@<TRIPOS>ATOM
     1 C1      -3.6171  41.2631  40.9084   C.2       1 RES1   0.0000
     2 C2      -3.1128  41.8040  39.8167   C.2       1 RES1   0.0000
     3 C3      -1.8821  41.3149  39.1571   C.2       1 RES1   0.0000
     4 C4      -1.6078  40.0110  38.8624   C.2       1 RES1   0.0000
     5 C5      -2.4523  38.8808  39.0688   C.2       1 RES1   0.0000
     6 C6      -2.2071  37.5741  38.7865   C.2       1 RES1   0.0000
     7 C7      -0.9438  37.0215  38.1919   C.3       1 RES1   0.0000
     8 C8      -1.0357  36.5766  36.7363   C.3       1 RES1   0.0000
     9 C9      -1.9097  35.3517  36.5271   C.3       1 RES1   0.0000
    10 C10     -1.9735  34.8907  35.0796   C.3       1 RES1   0.0000
    11 C11     -2.8370  33.6715  34.8383   C.3       1 RES1   0.0000
    12 C12     -2.8684  33.2532  33.3883   C.3       1 RES1   0.0000
    13 C13     -3.3124  36.6297  39.0912   C.2       1 RES1   0.0000
    14 C14     -3.0396  35.3666  39.6038   C.2       1 RES1   0.0000
    15 C15     -4.0716  34.4864  39.8684   C.2       1 RES1   0.0000
    16 C16     -5.3806  34.8555  39.6236   C.2       1 RES1   0.0000
    17 C17     -5.6782  36.1077  39.1108   C.2       1 RES1   0.0000
    18 C18     -7.1027  36.5066  38.8086   C.3       1 RES1   0.0000
    19 C19     -7.8402  37.1034  40.0101   C.3       1 RES1   0.0000
    20 C20     -9.2773  37.5121  39.7268   C.3       1 RES1   0.0000
    21 C21    -10.0109  38.1052  40.9202   C.3       1 RES1   0.0000
    22 C22    -11.4501  38.5070  40.6106   C.3       1 RES1   0.0000
    23 C23    -12.2377  39.1088  41.7699   C.3       1 RES1   0.0000
    24 C24    -12.3455  38.1336  42.9328   C.3       1 RES1   0.0000
    25 C25    -13.6179  39.5618  41.3192   C.3       1 RES1   0.0000
    26 O26    -11.5235  40.2712  42.2317   O.3       1 RES1   0.0000
    27 C27     -4.6351  36.9921  38.8511   C.2       1 RES1   0.0000
    28 C28     -0.8490  42.3903  38.8663   C.3       1 RES1   0.0000
    29 C29     -1.4425  43.6412  38.2225   C.3       1 RES1   0.0000
    30 O30     -1.8218  43.3222  36.8818   O.3       1 RES1   0.0000
    31 C31     -2.6518  44.1325  39.0138   C.3       1 RES1   0.0000
    32 C32     -3.7154  43.0451  39.1634   C.3       1 RES1   0.0000
    33 O33     -4.8727  43.5255  39.8419   O.3       1 RES1   0.0000
@<TRIPOS>BOND
     1     1     2    2
     2     2     3    1
     3     3     4    2
     4     4     5    1
     5     5     6    2
     6     6     7    1
     7     7     8    1
     8     8     9    1
     9     9    10    1
    10    10    11    1
    11    11    12    1
    12     6    13    1
    13    13    14    2
    14    14    15    1
    15    15    16    2
    16    16    17    1
    17    17    18    1
    18    18    19    1
    19    19    20    1
    20    20    21    1
    21    21    22    1
    22    22    23    1
    23    23    24    1
    24    23    25    1
    25    23    26    1
    26    17    27    2
    27     3    28    1
    28    28    29    1
    29    29    30    1
    30    29    31    1
    31    31    32    1
    32    32    33    1
    33    32     2    1
    34    27    13    1
@<TRIPOS>SUBSTRUCTURE
     1 RES1        1 GROUP             0 ****  ****    0  
@<TRIPOS>MOLECULE
ligand_93
    33    34     1     0     0
SMALL
NO_CHARGES
****
Generated from the CSD

@<TRIPOS>ATOM
     1 C1      -5.7418  36.2112  41.1839   C.2       1 RES1   0.0000
     2 C2      -4.7619  35.8062  41.9678   C.2       1 RES1   0.0000
     3 C3      -3.4911  35.2430  41.4612   C.2       1 RES1   0.0000
     4 C4      -2.7249  35.7860  40.4710   C.2       1 RES1   0.0000
     5 C5      -2.9503  37.0095  39.7745   C.2       1 RES1   0.0000
     6 C6      -2.2071  37.5741  38.7865   C.2       1 RES1   0.0000
     7 C7      -0.9559  37.0008  38.1858   C.3       1 RES1   0.0000
     8 C8      -1.1449  36.1926  36.9066   C.3       1 RES1   0.0000
     9 C9      -1.8844  34.8823  37.1168   C.3       1 RES1   0.0000
    10 C10     -2.0715  34.0785  35.8398   C.3       1 RES1   0.0000
    11 C11     -2.8053  32.7668  36.0162   C.3       1 RES1   0.0000
    12 C12     -2.9660  32.0064  34.7222   C.3       1 RES1   0.0000
    13 C13     -2.6922  38.8846  38.2828   C.2       1 RES1   0.0000
    14 C14     -2.5607  39.2162  36.9391   C.2       1 RES1   0.0000
    15 C15     -2.9982  40.4443  36.4807   C.2       1 RES1   0.0000
    16 C16     -3.5672  41.3507  37.3548   C.2       1 RES1   0.0000
    17 C17     -3.7073  41.0448  38.6988   C.2       1 RES1   0.0000
    18 C18     -4.2968  42.0423  39.6668   C.3       1 RES1   0.0000
    19 C19     -5.8240  41.9821  39.7549   C.3       1 RES1   0.0000
    20 C20     -6.4381  42.9793  40.7250   C.3       1 RES1   0.0000
    21 C21     -7.9557  42.9202  40.8131   C.3       1 RES1   0.0000
    22 C22     -8.5475  43.9297  41.7924   C.3       1 RES1   0.0000
    23 C23    -10.0670  43.9181  41.9242   C.3       1 RES1   0.0000
    24 C24    -10.7415  44.2214  40.5944   C.3       1 RES1   0.0000
    25 C25    -10.5324  44.8909  42.9967   C.3       1 RES1   0.0000
    26 O26    -10.4641  42.5944  42.3302   O.3       1 RES1   0.0000
    27 C27     -3.2697  39.8042  39.1541   C.2       1 RES1   0.0000
    28 C28     -3.0908  33.9182  42.0880   C.3       1 RES1   0.0000
    29 C29     -3.2103  33.9084  43.6102   C.3       1 RES1   0.0000
    30 O30     -2.1772  34.7361  44.1495   O.3       1 RES1   0.0000
    31 C31     -4.5813  34.4184  44.0464   C.3       1 RES1   0.0000
    32 C32     -4.8749  35.8114  43.4901   C.3       1 RES1   0.0000
    33 O33     -6.1245  36.3148  43.9543   O.3       1 RES1   0.0000
@<TRIPOS>BOND
     1     1     2    2
     2     2     3    1
     3     3     4    2
     4     4     5    1
     5     5     6    2
     6     6     7    1
     7     7     8    1
     8     8     9    1
     9     9    10    1
    10    10    11    1
    11    11    12    1
    12     6    13    1
    13    13    14    2
    14    14    15    1
    15    15    16    2
    16    16    17    1
    17    17    18    1
    18    18    19    1
    19    19    20    1
    20    20    21    1
    21    21    22    1
    22    22    23    1
    23    23    24    1
    24    23    25    1
    25    23    26    1
    26    17    27    2
    27     3    28    1
    28    28    29    1
    29    29    30    1
    30    29    31    1
    31    31    32    1
    32    32    33    1
    33    32     2    1
    34    27    13    1
@<TRIPOS>SUBSTRUCTURE
     1 RES1        1 GROUP             0 ****  ****    0  
@<TRIPOS>MOLECULE
ligand_94
    33    34     1     0     0
SMALL
NO_CHARGES
****
Generated from the CSD

@<TRIPOS>ATOM
     1 C1      -0.9185  34.3798  43.2570   C.2       1 RES1   0.0000
     2 C2      -1.9766  33.9116  42.6247   C.2       1 RES1   0.0000
     3 C3      -2.7317  34.6844  41.6140   C.2       1 RES1   0.0000
     4 C4      -2.1815  35.3724  40.5718   C.2       1 RES1   0.0000
     5 C5      -0.8037  35.4416  40.2115   C.2       1 RES1   0.0000
     6 C6      -0.2275  36.1169  39.1822   C.2       1 RES1   0.0000
     7 C7      -0.9428  36.9773  38.1807   C.3       1 RES1   0.0000
     8 C8      -1.3363  36.2900  36.8776   C.3       1 RES1   0.0000
     9 C9      -2.4240  35.2427  37.0449   C.3       1 RES1   0.0000
    10 C10     -2.8145  34.5590  35.7441   C.3       1 RES1   0.0000
    11 C11     -3.8967  33.5096  35.8777   C.3       1 RES1   0.0000
    12 C12     -4.2492  32.8603  34.5614   C.3       1 RES1   0.0000
    13 C13      1.2438  35.9607  39.0512   C.2       1 RES1   0.0000
    14 C14      1.8419  35.9396  37.7964   C.2       1 RES1   0.0000
    15 C15      3.2093  35.7762  37.6812   C.2       1 RES1   0.0000
    16 C16      3.9903  35.6311  38.8120   C.2       1 RES1   0.0000
    17 C17      3.4178  35.6463  40.0735   C.2       1 RES1   0.0000
    18 C18      4.2591  35.4545  41.3125   C.3       1 RES1   0.0000
    19 C19      4.8646  36.7540  41.8495   C.3       1 RES1   0.0000
    20 C20      5.7161  36.5828  43.0978   C.3       1 RES1   0.0000
    21 C21      6.3182  37.8736  43.6321   C.3       1 RES1   0.0000
    22 C22      7.1677  37.6755  44.8841   C.3       1 RES1   0.0000
    23 C23      7.7988  38.9357  45.4672   C.3       1 RES1   0.0000
    24 C24      8.7285  39.6049  44.4657   C.3       1 RES1   0.0000
    25 C25      8.5347  38.6319  46.7632   C.3       1 RES1   0.0000
    26 O26      6.7371  39.8600  45.7718   O.3       1 RES1   0.0000
    27 C27      2.0406  35.8166  40.1839   C.2       1 RES1   0.0000
    28 C28     -4.2327  34.7321  41.8445   C.3       1 RES1   0.0000
    29 C29     -4.8396  33.3675  42.1625   C.3       1 RES1   0.0000
    30 O30     -4.8176  32.5754  40.9728   O.3       1 RES1   0.0000
    31 C31     -4.0571  32.6758  43.2756   C.3       1 RES1   0.0000
    32 C32     -2.5741  32.5407  42.9308   C.3       1 RES1   0.0000
    33 O33     -1.8580  31.8334  43.9395   O.3       1 RES1   0.0000
@<TRIPOS>BOND
     1     1     2    2
     2     2     3    1
     3     3     4    2
     4     4     5    1
     5     5     6    2
     6     6     7    1
     7     7     8    1
     8     8     9    1
     9     9    10    1
    10    10    11    1
    11    11    12    1
    12     6    13    1
    13    13    14    2
    14    14    15    1
    15    15    16    2
    16    16    17    1
    17    17    18    1
    18    18    19    1
    19    19    20    1
    20    20    21    1
    21    21    22    1
    22    22    23    1
    23    23    24    1
    24    23    25    1
    25    23    26    1
    26    17    27    2
    27     3    28    1
    28    28    29    1
    29    29    30    1
    30    29    31    1
    31    31    32    1
    32    32    33    1
    33    32     2    1
    34    27    13    1
@<TRIPOS>SUBSTRUCTURE
     1 RES1        1 GROUP             0 ****  ****    0  
@<TRIPOS>MOLECULE
ligand_95
    33    34     1     0     0
SMALL
NO_CHARGES
****
Generated from the CSD

@<TRIPOS>ATOM
     1 C1      -0.9309  34.2954  43.2178   C.2       1 RES1   0.0000
     2 C2      -1.9885  33.8427  42.5734   C.2       1 RES1   0.0000
     3 C3      -2.7398  34.6382  41.5776   C.2       1 RES1   0.0000
     4 C4      -2.1860  35.3470  40.5515   C.2       1 RES1   0.0000
     5 C5      -0.8073  35.4212  40.1957   C.2       1 RES1   0.0000
     6 C6      -0.2275  36.1169  39.1822   C.2       1 RES1   0.0000
     7 C7      -0.9389  36.9996  38.1975   C.3       1 RES1   0.0000
     8 C8      -1.0281  36.4652  36.7721   C.3       1 RES1   0.0000
     9 C9      -1.9013  35.2293  36.6378   C.3       1 RES1   0.0000
    10 C10     -1.9885  34.6985  35.2156   C.3       1 RES1   0.0000
    11 C11     -2.8518  33.4668  35.0487   C.3       1 RES1   0.0000
    12 C12     -2.9068  32.9786  33.6215   C.3       1 RES1   0.0000
    13 C13      1.2438  35.9607  39.0512   C.2       1 RES1   0.0000
    14 C14      1.8451  34.7278  39.2774   C.2       1 RES1   0.0000
    15 C15      3.2164  34.5937  39.1711   C.2       1 RES1   0.0000
    16 C16      3.9985  35.6842  38.8412   C.2       1 RES1   0.0000
    17 C17      3.4234  36.9239  38.6133   C.2       1 RES1   0.0000
    18 C18      4.2734  38.1279  38.2856   C.3       1 RES1   0.0000
    19 C19      4.5760  38.2766  36.7923   C.3       1 RES1   0.0000
    20 C20      5.4315  39.4838  36.4407   C.3       1 RES1   0.0000
    21 C21      5.7326  39.6323  34.9570   C.3       1 RES1   0.0000
    22 C22      6.5918  40.8502  34.6301   C.3       1 RES1   0.0000
    23 C23      6.9275  41.0523  33.1560   C.3       1 RES1   0.0000
    24 C24      7.6996  39.8671  32.5953   C.3       1 RES1   0.0000
    25 C25      7.6984  42.3457  32.9410   C.3       1 RES1   0.0000
    26 O26      5.6870  41.1553  32.4315   O.3       1 RES1   0.0000
    27 C27      2.0411  37.0520  38.7165   C.2       1 RES1   0.0000
    28 C28     -4.2412  34.6838  41.8058   C.3       1 RES1   0.0000
    29 C29     -4.8515  33.3140  42.0934   C.3       1 RES1   0.0000
    30 O30     -4.8283  32.5472  40.8873   O.3       1 RES1   0.0000
    31 C31     -4.0727  32.5973  43.1934   C.3       1 RES1   0.0000
    32 C32     -2.5893  32.4667  42.8491   C.3       1 RES1   0.0000
    33 O33     -1.8767  31.7369  43.8442   O.3       1 RES1   0.0000
@<TRIPOS>BOND
     1     1     2    2
     2     2     3    1
     3     3     4    2
     4     4     5    1
     5     5     6    2
     6     6     7    1
     7     7     8    1
     8     8     9    1
     9     9    10    1
    10    10    11    1
    11    11    12    1
    12     6    13    1
    13    13    14    2
    14    14    15    1
    15    15    16    2
    16    16    17    1
    17    17    18    1
    18    18    19    1
    19    19    20    1
    20    20    21    1
    21    21    22    1
    22    22    23    1
    23    23    24    1
    24    23    25    1
    25    23    26    1
    26    17    27    2
    27     3    28    1
    28    28    29    1
    29    29    30    1
    30    29    31    1
    31    31    32    1
    32    32    33    1
    33    32     2    1
    34    27    13    1
@<TRIPOS>SUBSTRUCTURE
     1 RES1        1 GROUP             0 ****  ****    0  
@<TRIPOS>MOLECULE
ligand_96
    33    34     1     0     0
SMALL
NO_CHARGES
****
Generated from the CSD

@<TRIPOS>ATOM
     1 C1       3.8903  35.4601  40.8287   C.2       1 RES1   0.0000
     2 C2       3.7403  36.7440  41.0891   C.2       1 RES1   0.0000
     3 C3       3.0558  37.6871  40.1776   C.2       1 RES1   0.0000
     4 C4       1.8455  37.4751  39.5840   C.2       1 RES1   0.0000
     5 C5       0.9802  36.3553  39.7584   C.2       1 RES1   0.0000
     6 C6      -0.2275  36.1169  39.1822   C.2       1 RES1   0.0000
     7 C7      -0.9238  37.0054  38.1920   C.3       1 RES1   0.0000
     8 C8      -0.9463  36.5033  36.7523   C.3       1 RES1   0.0000
     9 C9      -1.8004  35.2629  36.5524   C.3       1 RES1   0.0000
    10 C10     -1.8443  34.7812  35.1109   C.3       1 RES1   0.0000
    11 C11     -2.6876  33.5462  34.8789   C.3       1 RES1   0.0000
    12 C12     -2.6998  33.1076  33.4347   C.3       1 RES1   0.0000
    13 C13     -0.9047  34.8622  39.5986   C.2       1 RES1   0.0000
    14 C14     -0.1695  33.7025  39.8157   C.2       1 RES1   0.0000
    15 C15     -0.8080  32.5341  40.1858   C.2       1 RES1   0.0000
    16 C16     -2.1811  32.5108  40.3407   C.2       1 RES1   0.0000
    17 C17     -2.9362  33.6527  40.1278   C.2       1 RES1   0.0000
    18 C18     -4.4399  33.6276  40.2617   C.3       1 RES1   0.0000
    19 C19     -4.9323  33.8752  41.6900   C.3       1 RES1   0.0000
    20 C20     -6.4448  33.8540  41.8466   C.3       1 RES1   0.0000
    21 C21     -6.9350  34.1000  43.2656   C.3       1 RES1   0.0000
    22 C22     -8.4551  34.0738  43.3967   C.3       1 RES1   0.0000
    23 C23     -9.0071  34.3145  44.7980   C.3       1 RES1   0.0000
    24 C24     -8.5120  33.2609  45.7778   C.3       1 RES1   0.0000
    25 C25    -10.5272  34.3661  44.7878   C.3       1 RES1   0.0000
    26 O26     -8.5276  35.5964  45.2465   O.3       1 RES1   0.0000
    27 C27     -2.2872  34.8281  39.7604   C.2       1 RES1   0.0000
    28 C28      3.8423  38.9487  39.8641   C.3       1 RES1   0.0000
    29 C29      4.4448  39.6094  41.1019   C.3       1 RES1   0.0000
    30 O30      3.3843  40.1870  41.8667   O.3       1 RES1   0.0000
    31 C31      5.2086  38.5877  41.9402   C.3       1 RES1   0.0000
    32 C32      4.3287  37.4018  42.3347   C.3       1 RES1   0.0000
    33 O33      5.0227  36.4834  43.1746   O.3       1 RES1   0.0000
@<TRIPOS>BOND
     1     1     2    2
     2     2     3    1
     3     3     4    2
     4     4     5    1
     5     5     6    2
     6     6     7    1
     7     7     8    1
     8     8     9    1
     9     9    10    1
    10    10    11    1
    11    11    12    1
    12     6    13    1
    13    13    14    2
    14    14    15    1
    15    15    16    2
    16    16    17    1
    17    17    18    1
    18    18    19    1
    19    19    20    1
    20    20    21    1
    21    21    22    1
    22    22    23    1
    23    23    24    1
    24    23    25    1
    25    23    26    1
    26    17    27    2
    27     3    28    1
    28    28    29    1
    29    29    30    1
    30    29    31    1
    31    31    32    1
    32    32    33    1
    33    32     2    1
    34    27    13    1
@<TRIPOS>SUBSTRUCTURE
     1 RES1        1 GROUP             0 ****  ****    0  
@<TRIPOS>MOLECULE
ligand_97
    33    34     1     0     0
SMALL
NO_CHARGES
****
Generated from the CSD

@<TRIPOS>ATOM
     1 C1      -3.6171  41.2631  40.9084   C.2       1 RES1   0.0000
     2 C2      -3.1128  41.8040  39.8167   C.2       1 RES1   0.0000
     3 C3      -1.8821  41.3149  39.1571   C.2       1 RES1   0.0000
     4 C4      -1.6078  40.0110  38.8624   C.2       1 RES1   0.0000
     5 C5      -2.4523  38.8808  39.0688   C.2       1 RES1   0.0000
     6 C6      -2.2071  37.5741  38.7865   C.2       1 RES1   0.0000
     7 C7      -0.9438  37.0215  38.1919   C.3       1 RES1   0.0000
     8 C8      -1.0357  36.5766  36.7363   C.3       1 RES1   0.0000
     9 C9      -1.9097  35.3517  36.5271   C.3       1 RES1   0.0000
    10 C10     -1.9735  34.8907  35.0796   C.3       1 RES1   0.0000
    11 C11     -2.8370  33.6715  34.8383   C.3       1 RES1   0.0000
    12 C12     -2.8684  33.2532  33.3883   C.3       1 RES1   0.0000
    13 C13     -3.3124  36.6297  39.0912   C.2       1 RES1   0.0000
    14 C14     -3.0396  35.3666  39.6038   C.2       1 RES1   0.0000
    15 C15     -4.0716  34.4864  39.8684   C.2       1 RES1   0.0000
    16 C16     -5.3806  34.8555  39.6236   C.2       1 RES1   0.0000
    17 C17     -5.6782  36.1077  39.1108   C.2       1 RES1   0.0000
    18 C18     -7.1027  36.5066  38.8086   C.3       1 RES1   0.0000
    19 C19     -7.5218  36.2336  37.3617   C.3       1 RES1   0.0000
    20 C20     -8.9539  36.6285  37.0362   C.3       1 RES1   0.0000
    21 C21     -9.3712  36.3576  35.5986   C.3       1 RES1   0.0000
    22 C22    -10.8114  36.7621  35.2973   C.3       1 RES1   0.0000
    23 C23    -11.2881  36.5143  33.8698   C.3       1 RES1   0.0000
    24 C24    -10.4467  37.2842  32.8624   C.3       1 RES1   0.0000
    25 C25    -12.7611  36.8604  33.7151   C.3       1 RES1   0.0000
    26 O26    -11.1359  35.1093  33.5918   O.3       1 RES1   0.0000
    27 C27     -4.6351  36.9921  38.8511   C.2       1 RES1   0.0000
    28 C28     -0.8490  42.3903  38.8663   C.3       1 RES1   0.0000
    29 C29     -1.4425  43.6412  38.2225   C.3       1 RES1   0.0000
    30 O30     -1.8218  43.3222  36.8818   O.3       1 RES1   0.0000
    31 C31     -2.6518  44.1325  39.0138   C.3       1 RES1   0.0000
    32 C32     -3.7154  43.0451  39.1634   C.3       1 RES1   0.0000
    33 O33     -4.8727  43.5255  39.8419   O.3       1 RES1   0.0000
@<TRIPOS>BOND
     1     1     2    2
     2     2     3    1
     3     3     4    2
     4     4     5    1
     5     5     6    2
     6     6     7    1
     7     7     8    1
     8     8     9    1
     9     9    10    1
    10    10    11    1
    11    11    12    1
    12     6    13    1
    13    13    14    2
    14    14    15    1
    15    15    16    2
    16    16    17    1
    17    17    18    1
    18    18    19    1
    19    19    20    1
    20    20    21    1
    21    21    22    1
    22    22    23    1
    23    23    24    1
    24    23    25    1
    25    23    26    1
    26    17    27    2
    27     3    28    1
    28    28    29    1
    29    29    30    1
    30    29    31    1
    31    31    32    1
    32    32    33    1
    33    32     2    1
    34    27    13    1
@<TRIPOS>SUBSTRUCTURE
     1 RES1        1 GROUP             0 ****  ****    0  
@<TRIPOS>MOLECULE
ligand_98
    33    34     1     0     0
SMALL
NO_CHARGES
****
Generated from the CSD

@<TRIPOS>ATOM
     1 C1      -5.7418  36.2112  41.1839   C.2       1 RES1   0.0000
     2 C2      -4.7619  35.8062  41.9678   C.2       1 RES1   0.0000
     3 C3      -3.4911  35.2430  41.4612   C.2       1 RES1   0.0000
     4 C4      -2.7249  35.7860  40.4710   C.2       1 RES1   0.0000
     5 C5      -2.9503  37.0095  39.7745   C.2       1 RES1   0.0000
     6 C6      -2.2071  37.5741  38.7865   C.2       1 RES1   0.0000
     7 C7      -0.9559  37.0008  38.1858   C.3       1 RES1   0.0000
     8 C8      -1.1449  36.1926  36.9066   C.3       1 RES1   0.0000
     9 C9      -1.8844  34.8823  37.1168   C.3       1 RES1   0.0000
    10 C10     -2.0715  34.0785  35.8398   C.3       1 RES1   0.0000
    11 C11     -2.8053  32.7668  36.0162   C.3       1 RES1   0.0000
    12 C12     -2.9660  32.0064  34.7222   C.3       1 RES1   0.0000
    13 C13     -2.6922  38.8846  38.2828   C.2       1 RES1   0.0000
    14 C14     -2.5607  39.2162  36.9391   C.2       1 RES1   0.0000
    15 C15     -2.9982  40.4443  36.4807   C.2       1 RES1   0.0000
    16 C16     -3.5672  41.3507  37.3548   C.2       1 RES1   0.0000
    17 C17     -3.7073  41.0448  38.6988   C.2       1 RES1   0.0000
    18 C18     -4.2968  42.0423  39.6668   C.3       1 RES1   0.0000
    19 C19     -3.2482  42.9125  40.3648   C.3       1 RES1   0.0000
    20 C20     -3.8214  43.9244  41.3445   C.3       1 RES1   0.0000
    21 C21     -2.7802  44.7895  42.0385   C.3       1 RES1   0.0000
    22 C22     -3.3799  45.7962  43.0159   C.3       1 RES1   0.0000
    23 C23     -2.3836  46.6932  43.7434   C.3       1 RES1   0.0000
    24 C24     -1.4055  45.8761  44.5746   C.3       1 RES1   0.0000
    25 C25     -3.0989  47.7184  44.6098   C.3       1 RES1   0.0000
    26 O26     -1.6280  47.4102  42.7486   O.3       1 RES1   0.0000
    27 C27     -3.2697  39.8042  39.1541   C.2       1 RES1   0.0000
    28 C28     -3.0908  33.9182  42.0880   C.3       1 RES1   0.0000
    29 C29     -3.2103  33.9084  43.6102   C.3       1 RES1   0.0000
    30 O30     -2.1772  34.7361  44.1495   O.3       1 RES1   0.0000
    31 C31     -4.5813  34.4184  44.0464   C.3       1 RES1   0.0000
    32 C32     -4.8749  35.8114  43.4901   C.3       1 RES1   0.0000
    33 O33     -6.1245  36.3148  43.9543   O.3       1 RES1   0.0000
@<TRIPOS>BOND
     1     1     2    2
     2     2     3    1
     3     3     4    2
     4     4     5    1
     5     5     6    2
     6     6     7    1
     7     7     8    1
     8     8     9    1
     9     9    10    1
    10    10    11    1
    11    11    12    1
    12     6    13    1
    13    13    14    2
    14    14    15    1
    15    15    16    2
    16    16    17    1
    17    17    18    1
    18    18    19    1
    19    19    20    1
    20    20    21    1
    21    21    22    1
    22    22    23    1
    23    23    24    1
    24    23    25    1
    25    23    26    1
    26    17    27    2
    27     3    28    1
    28    28    29    1
    29    29    30    1
    30    29    31    1
    31    31    32    1
    32    32    33    1
    33    32     2    1
    34    27    13    1
@<TRIPOS>SUBSTRUCTURE
     1 RES1        1 GROUP             0 ****  ****    0  
@<TRIPOS>MOLECULE
ligand_99
    33    34     1     0     0
SMALL
NO_CHARGES
****
Generated from the CSD

@<TRIPOS>ATOM
     1 C1      -5.7530  36.1977  41.1595   C.2       1 RES1   0.0000
     2 C2      -4.7769  35.7932  41.9484   C.2       1 RES1   0.0000
     3 C3      -3.5018  35.2340  41.4482   C.2       1 RES1   0.0000
     4 C4      -2.7309  35.7810  40.4639   C.2       1 RES1   0.0000
     5 C5      -2.9550  37.0055  39.7687   C.2       1 RES1   0.0000
     6 C6      -2.2071  37.5741  38.7865   C.2       1 RES1   0.0000
     7 C7      -0.9510  37.0051  38.1921   C.3       1 RES1   0.0000
     8 C8      -1.0695  36.4875  36.7627   C.3       1 RES1   0.0000
     9 C9      -1.9564  35.2612  36.6298   C.3       1 RES1   0.0000
    10 C10     -2.0728  34.7471  35.2036   C.3       1 RES1   0.0000
    11 C11     -2.9503  33.5253  35.0380   C.3       1 RES1   0.0000
    12 C12     -3.0343  33.0536  33.6067   C.3       1 RES1   0.0000
    13 C13     -2.6922  38.8846  38.2828   C.2       1 RES1   0.0000
    14 C14     -1.7914  39.8914  37.9548   C.2       1 RES1   0.0000
    15 C15     -2.2503  41.1143  37.5036   C.2       1 RES1   0.0000
    16 C16     -3.6071  41.3446  37.3772   C.2       1 RES1   0.0000
    17 C17     -4.5248  40.3582  37.6999   C.2       1 RES1   0.0000
    18 C18     -6.0095  40.6128  37.5971   C.3       1 RES1   0.0000
    19 C19     -6.5839  40.3364  36.2051   C.3       1 RES1   0.0000
    20 C20     -8.0787  40.5868  36.0801   C.3       1 RES1   0.0000
    21 C21     -8.6502  40.3124  34.6973   C.3       1 RES1   0.0000
    22 C22    -10.1508  40.5709  34.5976   C.3       1 RES1   0.0000
    23 C23    -10.7820  40.3130  33.2332   C.3       1 RES1   0.0000
    24 C24    -10.1612  41.1942  32.1593   C.3       1 RES1   0.0000
    25 C25    -12.2899  40.5059  33.2807   C.3       1 RES1   0.0000
    26 O26    -10.5262  38.9399  32.8816   O.3       1 RES1   0.0000
    27 C27     -4.0568  39.1265  38.1488   C.2       1 RES1   0.0000
    28 C28     -3.1022  33.9087  42.0744   C.3       1 RES1   0.0000
    29 C29     -3.2309  33.8952  43.5959   C.3       1 RES1   0.0000
    30 O30     -2.2029  34.7241  44.1432   O.3       1 RES1   0.0000
    31 C31     -4.6056  34.4011  44.0249   C.3       1 RES1   0.0000
    32 C32     -4.8991  35.7947  43.4700   C.3       1 RES1   0.0000
    33 O33     -6.1526  36.2942  43.9278   O.3       1 RES1   0.0000
@<TRIPOS>BOND
     1     1     2    2
     2     2     3    1
     3     3     4    2
     4     4     5    1
     5     5     6    2
     6     6     7    1
     7     7     8    1
     8     8     9    1
     9     9    10    1
    10    10    11    1
    11    11    12    1
    12     6    13    1
    13    13    14    2
    14    14    15    1
    15    15    16    2
    16    16    17    1
    17    17    18    1
    18    18    19    1
    19    19    20    1
    20    20    21    1
    21    21    22    1
    22    22    23    1
    23    23    24    1
    24    23    25    1
    25    23    26    1
    26    17    27    2
    27     3    28    1
    28    28    29    1
    29    29    30    1
    30    29    31    1
    31    31    32    1
    32    32    33    1
    33    32     2    1
    34    27    13    1
@<TRIPOS>SUBSTRUCTURE
     1 RES1        1 GROUP             0 ****  ****    0  
